18

 C    0.2445073579    1.5124140936    0.1585175082
 C   -0.2713972860    0.1071856764   -0.1725962288
 C    0.4570712851   -0.4911050669   -1.3520272893
 N    1.7755306746   -1.0627419642   -1.0987785331
 C    0.6685835453   -1.9833643877   -1.5103459547
 C    0.2064708112   -2.9061966034   -0.5012179799
 C   -0.2023837719   -3.6810016165    0.3209116113
 C    0.6957492554   -2.5024102638   -2.8564543483
 C    0.7402939453   -2.9245146795   -3.9814397457
 H    1.3119227598    1.4831233427    0.3975308889
 H    0.1056879830    2.1997258316   -0.6835912163
 H   -0.2852842215    1.9303515596    1.0194519529
 H   -0.1477993115   -0.5524757680    0.6908029427
 H   -1.3438144690    0.1400564565   -0.4009189325
 H    0.3164814966    0.0316777909   -2.2975401679
 H    2.3909206374   -0.9296533045   -1.8982023904
 H   -0.5531166892   -4.3682290474    1.0505646283
 H    0.7714356175   -3.3055686994   -4.9721678654