23

 C    0.3801926219    1.6448353278    0.0252267312
 C   -0.0280797772    0.1618910350   -0.0516412330
 C    0.5410741546   -0.4740296737   -1.3300537076
 C    0.0182355407   -1.8691212460   -1.6967194923
 C    0.5533723323   -3.0190893990   -0.8349659218
 C    0.0005887323   -3.0943381952    0.5915576366
 C    0.3800722362   -1.9700362310    1.5331202144
 O    1.6052002729   -1.2551054142    1.3134159317
 C    0.3674471511   -0.5286677364    1.2454476170
 H    1.4697870668    1.7451491234    0.0836606877
 H    0.0391702103    2.1922247126   -0.8588400856
 H   -0.0474243932    2.1326864865    0.9072387601
 H   -1.1272627697    0.1219950109   -0.1051914933
 H    0.3097195555    0.2074479355   -2.1575913881
 H    1.6342773235   -0.5054683149   -1.2506975229
 H   -1.0812405630   -1.8701460156   -1.6725742750
 H    0.2958216410   -2.0688042935   -2.7388425223
 H    0.3143494039   -3.9681585957   -1.3293332303
 H    1.6465939414   -2.9575804496   -0.7893215225
 H   -1.0968349538   -3.1608529348    0.5693420995
 H    0.3447724052   -4.0319438165    1.0465673305
 H    0.2256333920   -2.2313602603    2.5836296993
 H    0.2109409254    0.1115705548    2.1185026970