19

 C    0.4987052556    0.8972909391    0.5374795541
 C   -0.2846225408    0.1655117269   -0.5560186118
 N    0.4242811244   -0.7587877424   -1.4289322275
 C    1.6540594641   -0.9453850697   -1.2773430574
 O    2.2794074605   -1.8278339272   -2.1257128855
 C    3.6342277436   -2.0189123738   -1.9427303568
 O    4.3008443380   -1.4700575890   -1.0968244976
 N    4.0669227689   -2.9115568925   -2.8618813872
 C    5.4490627506   -3.3348340560   -2.9437952506
 H    0.9546067410    0.2004830401    1.2486585066
 H    1.2931834291    1.5245802121    0.1197683496
 H   -0.1785271401    1.5484687067    1.0982136732
 H   -1.1060782450   -0.4026474759   -0.1000243066
 H   -0.7740040514    0.8997220240   -1.2094182638
 H    2.3352876761   -0.5032159256   -0.5523373872
 H    3.3820234455   -3.2796636069   -3.5010223331
 H    6.0014799584   -2.8115243525   -2.1628694688
 H    5.5448536774   -4.4143792810   -2.7841185537
 H    5.8852940541   -3.0835424062   -3.9167539461