21

 C    0.1244819011    1.5287908568   -0.1040635605
 C    0.0068391549    0.0011694331    0.0026294107
 O    0.5813514715   -0.6454074744   -1.1332541724
 C    0.5769103712   -0.4976224810    1.2582693315
 C    1.0923200586   -0.8905868712    2.2745092289
 C    1.6875911958   -1.4048761881    3.5059575755
 C    1.9251008363   -2.9082295512    3.4764017440
 C    3.1955039440   -3.4625054500    2.8902235487
 C    2.9622567730   -3.5192436977    4.3816338194
 H    1.1746763433    1.8350710862   -0.0607377977
 H   -0.3003040888    1.8609560912   -1.0550419334
 H   -0.4067628155    2.0190653660    0.7170732247
 H   -1.0552267737   -0.2704144717   -0.0404381757
 H    1.5385224732   -0.5998881263   -1.0321755674
 H    2.6406187598   -0.8936231697    3.6985047738
 H    1.0356222185   -1.1513271454    4.3531642736
 H    1.0242842568   -3.4901960295    3.3067269827
 H    3.1435087278   -4.3849212420    2.3229839096
 H    3.9320757461   -2.7565189454    2.5201056378
 H    3.5436044030   -2.8522897274    5.0105163887
 H    2.7485292030   -4.4800194522    4.8364752475