21

 C   -0.0558479872    1.5628682137   -0.0351741841
 C    0.0471373694    0.0375837708   -0.0140235680
 C    0.6806004800   -0.5333399356   -1.2911675157
 C    0.7703425909   -2.0587660045   -1.2141520093
 O    1.4780669116   -2.4906264226   -0.0624135752
 C    0.8806281744   -2.0466812940    1.1345371021
 C    0.8189253465   -0.5028783886    1.2241190190
 C    2.1564484122    0.0712412624    1.3535728863
 C    3.2588722175    0.5377411588    1.4684180677
 H    0.9359733841    2.0207085547   -0.0965113673
 H   -0.6411613589    1.8990748580   -0.8974188373
 H   -0.5433429366    1.9411096059    0.8700874871
 H   -0.9688182781   -0.3758541132    0.0689825093
 H    0.0917571416   -0.2439810531   -2.1697552877
 H    1.6871605671   -0.1178462373   -1.4178026015
 H   -0.2457192087   -2.4924963259   -1.2127739458
 H    1.3094042484   -2.4706775512   -2.0719646752
 H   -0.1479491188   -2.4388437773    1.2228221639
 H    1.4787155431   -2.4572416146    1.9517771708
 H    0.2462712595   -0.2475412730    2.1267687147
 H    4.2337789217    0.9452064567    1.5731981263