18

 O   -0.0512550709    1.4303834448   -0.1573394413
 C    0.0106886574    0.0200371683    0.0478004576
 C   -1.4333617467   -0.4855519135    0.0538547043
 O   -2.0489655291   -0.0789411776   -1.1722049077
 C   -1.5251616901   -2.0255133522    0.1702281315
 C   -2.6611101913   -2.3255286172    1.1803613954
 C   -2.9010920403   -0.9902352531    1.8402419726
 C   -2.2321326930   -0.0024776345    1.2516461466
 H    0.8257223906    1.7505799227   -0.3841517553
 H    0.5593448902   -0.4727198087   -0.7681647047
 H    0.5029693292   -0.2223615531    1.0008500414
 H   -1.7895953195    0.8432804238   -1.2971717332
 H   -1.7001385247   -2.4557422856   -0.8175495970
 H   -0.5770286442   -2.4265568909    0.5438579045
 H   -3.5725960735   -2.6834075116    0.6839986613
 H   -2.3803310083   -3.1040548884    1.8992646648
 H   -3.5740828770   -0.8733485135    2.6836164208
 H   -2.2631513687    1.0455638103    1.5259705183