19

 C    0.2715436846    1.5155158579    0.1070159560
 C   -0.0909252398    0.0460804286   -0.0408346589
 C    0.8426005695   -0.8188886261   -0.9460615138
 N    1.1080661006   -1.6697496006    0.2101211871
 C    0.2953645061   -0.8926856513    1.1456017545
 C    1.9749831029   -2.7095275785    0.3216286815
 C    2.0695591725   -3.3208495943    1.7116039436
 O    2.6164878575   -3.1091888946   -0.6357857317
 H    1.3250427150    1.6353539703    0.3836151066
 H    0.1095059303    2.0568068743   -0.8311397192
 H   -0.3357651787    1.9983307192    0.8801676057
 H   -1.1426890974   -0.0604961538   -0.3164187448
 H    0.3635851844   -1.3399148969   -1.7811879427
 H    1.7332022482   -0.3016805977   -1.3221383084
 H    0.8705083354   -0.4032089611    1.9428419013
 H   -0.5305409441   -1.4503931027    1.6028237910
 H    1.0873062452   -3.6433635721    2.0723114692
 H    2.7401296249   -4.1784921803    1.6678846067
 H    2.4610498529   -2.5947331104    2.4325630463