21

 C    0.0248216492    1.4820925333    0.1937862175
 C   -0.0500858425   -0.0272917638   -0.0980520572
 C   -1.4517730542   -0.5670534192   -0.0646279488
 C   -2.1398689870   -1.0865512388   -1.0931083295
 C   -3.5477686676   -1.4944889072   -0.7141646451
 C   -3.6088634983   -1.2364664083    0.7920537345
 C   -2.6483162999   -2.0148178609    1.6476522732
 O   -2.0041325043   -3.1677208955    1.2052717057
 C   -2.2602444777   -0.6168346018    1.1940364746
 H    1.0610317049    1.8315865265    0.1577426029
 H   -0.5529326984    2.0507028538   -0.5414191938
 H   -0.3714852267    1.7195621910    1.1859405106
 H    0.3916236076   -0.2290239120   -1.0802486029
 H    0.5641104972   -0.5602570310    0.6402984757
 H   -1.7457963367   -1.2135007874   -2.0963974502
 H   -4.2966176314   -0.9055119903   -1.2588386915
 H   -3.7496115752   -2.5485262486   -0.9497062915
 H   -4.5395578849   -0.8955537226    1.2311528453
 H   -2.9066398076   -2.1190305506    2.6966435733
 H   -1.5575268020   -2.9494734101    0.3760640285
 H   -2.1659890742    0.1705724035    1.9342941885