25

 C   -0.1095405436    1.6382805299    0.0098062393
 C   -0.0850484394    0.1018769897    0.0176515668
 C    0.4851269052   -0.4138418934   -1.3243658150
 C    0.3118330735   -1.9196503300   -1.6369529587
 C    1.5448628954   -2.8122127781   -1.4122109987
 C    2.1794104767   -2.7234924102   -0.0043250882
 C    1.1664455153   -2.8676477244    1.0959036386
 C    0.4908057593   -1.8490975472    1.6298749289
 C    0.6723682582   -0.3919886711    1.2783313943
 H    0.9067097282    2.0464751117   -0.0530509873
 H   -0.6737392521    2.0236710661   -0.8457811192
 H   -0.5684653500    2.0351560383    0.9212825392
 H   -1.1234673324   -0.2519474165    0.0917122304
 H   -0.0167056543    0.1573082578   -2.1145729377
 H    1.5456879153   -0.1324793988   -1.3952675447
 H   -0.5297679950   -2.3119323791   -1.0559721087
 H    0.0250273808   -2.0298586539   -2.6893347906
 H    1.2559137022   -3.8516145990   -1.6143294097
 H    2.3174974397   -2.5611191418   -2.1505678244
 H    2.9525688291   -3.4956181983    0.0813360103
 H    2.6939169004   -1.7606573275    0.0893710649
 H    0.9323683924   -3.8803894556    1.4191541742
 H   -0.2700754734   -2.0657252095    2.3773932173
 H    1.7375483809   -0.1587389650    1.1478481548
 H    0.3361671976    0.2119143960    2.1293013240