19

 C    0.0810135049    1.4920068765    0.0157923663
 C    0.0385416168    0.0368524379    0.0071031428
 C   -0.0026935524   -1.1671675084    0.0167635437
 C   -0.0107917428   -2.6106825620   -0.0253687952
 C    1.1798428737   -3.2227988224   -0.7459068530
 N   -0.5128972810   -3.2857888854    1.2030071025
 C   -1.3106582727   -3.3606231183   -0.0290749245
 C   -2.6577125498   -2.6844447918   -0.0128482582
 H    1.0691596487    1.8627503750   -0.2786319992
 H   -0.6525113899    1.9188609939   -0.6774179812
 H   -0.1365686171    1.8882057500    1.0138845353
 H    2.1139701821   -2.9667003500   -0.2353199084
 H    1.0924435929   -4.3139699171   -0.7818349101
 H    1.2483596898   -2.8506438998   -1.7727856571
 H    0.0110029084   -4.1475758298    1.3404541526
 H   -1.2805707032   -4.3027105171   -0.5771086310
 H   -2.5996460262   -1.7274588685    0.5095394717
 H   -3.0130250201   -2.5029993200   -1.0329383700
 H   -3.3953604422   -3.3126000426    0.4979139031