19

 O    0.3920572278    0.2655283937    0.6611885180
 C    0.4837337302    1.4556496600    0.6527916298
 O    0.6756917562    2.1554837193   -0.4868785755
 C    0.8504059171    3.5691195456   -0.3691706218
 C    2.3087850799    3.9392570625   -0.1678871289
 C    2.5837712611    5.4632954025   -0.1707302501
 C    3.5779537886    5.6610145137    1.0040720949
 C    3.8743745308    4.2205575519    1.4606344290
 O    2.7160144728    3.4755066490    1.1125833933
 H    0.4096469877    2.1008255510    1.5460765403
 H    0.4746387084    3.9975317308   -1.3016712355
 H    0.2555572141    3.9641398183    0.4644635454
 H    2.9089339767    3.4423223881   -0.9469426346
 H    2.9944352324    5.7878827580   -1.1293262132
 H    1.6611247316    6.0275688711   -0.0030173546
 H    4.4838682649    6.1936951530    0.7059105969
 H    3.1105602845    6.2286071921    1.8123985656
 H    4.7582711673    3.8179868942    0.9406545411
 H    4.0303235579    4.1159621352    2.5366795499