19

 C    0.0470391023    1.5298801590   -0.1507740205
 C    0.0246317507    0.0092252278    0.0680068924
 O    0.6302571493   -0.3467418405    1.3014203472
 C   -1.3822981041   -0.5346074015   -0.0056271146
 C   -2.0118569799   -1.1677774955   -1.0049248522
 C   -3.4389241416   -1.5407522408   -0.6890401438
 C   -3.6488950802   -1.0287315343    0.7494994766
 C   -2.3084638031   -0.4068204502    1.1467944247
 O   -2.0428362074    0.0947403610    2.2230292739
 H    1.0730123162    1.8946862110   -0.0515787972
 H   -0.3284748636    1.7945742336   -1.1447773424
 H   -0.5730483560    2.0329222309    0.5979672864
 H    0.6328128306   -0.4690218922   -0.7089986439
 H    0.0229672066   -0.0477902074    1.9945205051
 H   -1.5621300652   -1.4054703846   -1.9645109513
 H   -4.1320913977   -1.0834926685   -1.4054679917
 H   -3.5883689401   -2.6237440426   -0.7751230664
 H   -4.4368581497   -0.2736409530    0.8264745456
 H   -3.9046885770   -1.8226853221    1.4570265020