11

 N    0.0792014047    1.3897977013    0.1647192075
 C   -0.0118699123    0.0239388127    0.0475734627
 C   -1.1019347422   -0.8108572892    0.0107474624
 O   -0.6212099797   -2.0820403458   -0.0409073214
 N    0.7634479110   -1.9971366885   -0.0380478855
 N    1.1028541102   -0.7752322575    0.0129954431
 C   -2.4780859391   -0.5644737827    0.0137132608
 C   -3.6568579550   -0.3135146033    0.0120901485
 H    0.9585685099    1.7673179957   -0.1577812613
 H   -0.7206287471    1.9028617937   -0.1756102464
 H   -4.6981109403   -0.1031812564    0.0182254896