20

 C   -0.4847546747    1.3983309416    0.1796020790
 C    0.2387500208    0.0669063661   -0.0544979746
 C    0.9865801590   -0.4346554358    1.1478525450
 C    1.1514910013   -1.8878786963    1.4584248412
 C    2.2198093054   -2.0662011022    2.5223426354
 C    1.6320950167   -0.7645696189    3.0895272285
 C    1.9401954499    0.3289556307    2.0419288769
 O    3.2500320072    0.5061590230    1.5529899784
 N    0.2832565968   -1.0362144982    2.3508260322
 H    0.2214354294    2.2054522057    0.4001367222
 H   -1.0537156722    1.6923825061   -0.7073223624
 H   -1.1798423565    1.3166368132    1.0205961865
 H   -0.4885834523   -0.6983577616   -0.3511276754
 H    0.9443670744    0.1634027702   -0.8898290960
 H    0.7135584104   -2.6455744261    0.8174899405
 H    1.9946873093   -2.9203458865    3.1656779794
 H    3.2729548320   -2.0683371502    2.2292529252
 H    1.6236085938   -0.5476092183    4.1563812198
 H    1.4873697451    1.2811628557    2.3464991640
 H    3.7113485741    1.1276768321    2.1247710542