17

 O    0.3725378595    1.2533166758   -0.5458620894
 C    0.0450873817   -0.0147073017   -0.0713986502
 C   -0.0357763397   -0.2829884077    1.4554129210
 C   -1.2537025921   -1.2045449686    1.1961967133
 C   -1.4248186273   -0.5518227153   -0.2291014936
 C   -2.4644231805    0.5211606431   -0.2111933234
 O   -2.3051516723    1.6455442897    0.2283580443
 C   -3.8573469715    0.1847361868   -0.7685541852
 O   -4.1428879866   -0.8733506572   -1.2615591887
 H   -0.2744259328    1.8667521139   -0.1713861893
 H    0.7314452721   -0.7153946431   -0.5562070582
 H    0.8399016038   -0.7163807996    1.9427282873
 H   -0.3278191720    0.6256859231    1.9884105909
 H   -0.9851845822   -2.2578756917    1.0973840287
 H   -2.0997863049   -1.1230068742    1.8810642298
 H   -1.6362682951   -1.2503712381   -1.0398596606
 H   -4.5698444199    1.0307081749   -0.6695004565