17

 C   -0.2058659984    1.5680451191    0.0402272513
 C    0.0386502991    0.0564990067   -0.0293647586
 C    0.8475570739   -0.4539244097   -1.2132486923
 C    2.3375526290   -0.1950281056   -1.2202332904
 O    2.7887122318    0.1853055402    0.0841939933
 C    2.1460913723   -1.0160661214    0.6382195065
 C    1.8309192394   -1.5357710691   -0.7746863381
 C    0.8303742237   -0.4610597212    1.1929168959
 O    0.4898968979   -0.3985952374    2.3435236734
 H    0.7424256601    2.1108072397    0.0092975752
 H   -0.8267186927    1.9039500056   -0.7960389092
 H   -0.7181242453    1.8218150374    0.9726010028
 H   -0.9277406245   -0.4647842572   -0.0148949156
 H    0.3740050201   -0.5689456052   -2.1821248699
 H    2.9182802437    0.1357269256   -2.0729311978
 H    2.7906044438   -1.5596224310    1.3265904310
 H    1.9304731964   -2.5355657664   -1.1712964476