17

 O    0.0096843324   -0.0405414987    0.4873274440
 C   -0.0431960730    1.0797081830    0.0618164751
 C   -1.3376342918    1.8814521508   -0.0168354605
 C   -1.6906937576    2.3852444737   -1.4049382360
 C   -2.1120448838    3.8357808449   -1.5682141829
 C   -0.7541434932    3.3949307569   -2.0044562005
 O    0.3323598234    3.7766859811   -1.1972760548
 C    1.3228113090    2.7999759363   -1.1598302663
 O    1.1268135813    1.7092520062   -0.2529743127
 H   -2.1248075429    1.2367736843    0.3777299598
 H   -1.2249715513    2.7311917621    0.6637069450
 H   -2.1338420012    1.6526674702   -2.0719336111
 H   -2.8317348891    4.0885898285   -2.3382458259
 H   -2.1726917034    4.4389775753   -0.6692349965
 H   -0.5200509393    3.3588865935   -3.0672744168
 H    1.4802218484    2.3693204486   -2.1591028970
 H    2.2365218123    3.2820093934   -0.8081804527