13

 C   -0.0769930547    1.4361458944   -0.0274494366
 N   -0.1095675312   -0.0154921716   -0.1085933196
 C    0.5243233251   -0.6239491490   -0.9939148480
 C    0.5864521609   -2.1175199030   -1.2030856645
 O    1.4412570241   -2.2659770218   -2.3396280880
 C    1.8521047682   -1.0561876776   -2.7765190460
 O    2.5672682606   -0.8591953285   -3.6999761049
 O    1.3161730969   -0.0627198034   -1.9870813150
 H    0.5379247822    1.9161636851   -0.7956614595
 H   -1.1021254537    1.8132275502   -0.1019220664
 H    0.2967199482    1.7224010621    0.9610071562
 H    1.0215356528   -2.6366093797   -0.3449461801
 H   -0.3956220994   -2.5446041271   -1.4228210477