14

 O    0.4126765457    1.3144710739   -0.0423909715
 C    0.1115403870    0.0123225155    0.0575620300
 N   -0.4323764346   -0.6538947844   -0.9327240605
 O   -0.5887573421   -1.9557130771   -0.4462133405
 C   -0.1269549721   -2.0128256430    0.8152818428
 C    0.3349263904   -0.7949707701    1.2063795347
 C   -0.2088829649   -3.3017328652    1.5217329151
 C   -1.1510988539   -4.3586562671    1.1147959187
 O    0.2366653855   -4.4655102080    0.8149654684
 H    0.1637172693    1.6070719331   -0.9295982326
 H    0.7712268691   -0.5074437336    2.1473443783
 H    0.1082006570   -3.2519167185    2.5618418950
 H   -1.5271413047   -5.0479107424    1.8694791710
 H   -1.8006089716   -4.1834734431    0.2602341010