21

 C   -0.1858092859    1.2668010330   -0.4321297410
 O   -0.1030717181   -0.1238371772   -0.2255009275
 C    0.6401790481   -0.7994213695   -1.2264906784
 C    0.7151516793   -2.2604590879   -0.8034179169
 O    1.2717927256   -2.3567499936    0.4867419754
 C   -0.6085266094   -3.0512583733   -1.0647214274
 C    0.0187204201   -3.6210789174   -2.3563694967
 O   -0.4511215746   -2.8763181359   -3.4710673083
 C    1.4156623133   -3.1694083863   -1.8413946873
 H    0.8099500950    1.7369688061   -0.4398728243
 H   -0.6860524048    1.5053384302   -1.3829038358
 H   -0.7701742533    1.6871281487    0.3900923123
 H    0.1602219633   -0.7052009572   -2.2100842657
 H    1.6593834215   -0.3816802567   -1.2889545794
 H    0.8801101988   -1.6359482295    0.9973842578
 H   -0.7461488654   -3.8195225080   -0.3012201867
 H   -1.5298199122   -2.4800875487   -1.1927550643
 H   -0.1057990479   -4.6969794724   -2.5296524261
 H    0.0981381521   -3.1022106548   -4.2290062095
 H    2.0850071471   -2.6963291558   -2.5671999551
 H    1.9473771275   -3.9746385341   -1.3283757252