22

 C    0.5443342706    1.6989336148    0.1274324708
 C    0.9759801190    0.4043817849   -0.4681932243
 N   -0.3410802601    0.5388792836    0.1461156745
 C   -0.5205042500   -0.1061972889    1.4185293683
 C   -1.8259323559   -0.0117554044    2.1702055232
 C   -3.0784835302    0.4548191612    1.4393678769
 C   -3.1738259037   -0.4085443029    0.1567477999
 C   -2.3635207504   -1.6954821082    0.4509408452
 C   -1.3861020722   -1.3342861481    1.5622278281
 H    1.0108953239    1.9961798945    1.0652875903
 H    0.2329517017    2.5240408356   -0.5070333444
 H    0.9854886009    0.2663836789   -1.5457390366
 H    1.7313459753   -0.1649693786    0.0711238493
 H    0.3664858985   -0.1065375494    2.0615147944
 H   -1.7684315896    0.1641719695    3.2395759611
 H   -3.9419703552    0.2801027230    2.0923151681
 H   -3.0646718878    1.5252280509    1.2081893483
 H   -4.2111542155   -0.6303297250   -0.1110698715
 H   -2.7180221552    0.1260258969   -0.6763325314
 H   -3.0196612720   -2.4942177708    0.8171077640
 H   -1.8671510603   -2.0770397947   -0.4475784913
 H   -1.0023308919   -2.1393519729    2.1805958171