20

 C   -0.2328272155    1.6649701492    1.2686618166
 C   -0.1348351857    0.2250704179    0.7721737550
 C    0.7766117002    0.0087529079   -0.4568001712
 O    2.0425869517    0.5631471875    0.0115747744
 C    2.0975239209   -0.5853851635    0.8537117352
 C    1.3243752959   -1.4771783919   -0.1203664399
 N    0.5931219292   -2.0760974422    0.9849536126
 C   -0.6811540561   -2.7456993636    0.7923812815
 C    0.7064530700   -0.7469692072    1.6451278376
 H    0.7581806274    2.1080017878    1.3831381784
 H   -0.8026135104    2.2856580582    0.5684985522
 H   -0.7457610270    1.7035503862    2.2357311210
 H   -1.1381307246   -0.1769663636    0.6093769803
 H    0.4822868588    0.3622989978   -1.4437046477
 H    3.0486566625   -0.7915705080    1.3385654505
 H    1.7424119033   -2.0954123820   -0.9144993314
 H   -0.5043376429   -3.6845608300    0.2567066774
 H   -1.1073847664   -2.9966785097    1.7692096767
 H   -1.4365453641   -2.1773562255    0.2270421345
 H    0.6097507629   -0.7110700955    2.7305695962