16

 C   -0.0814609948    1.5984496797   -0.0120173936
 C   -0.0400241647    0.0947395306   -0.2118031565
 O   -1.3052774846   -0.4358585055    0.1827156567
 C   -1.4157792300   -1.8207815522    0.1186949397
 C   -2.6056767000   -2.2434607824    0.9818280752
 O   -2.9545279288   -3.3857147732    1.1149985259
 C   -1.6058742247   -2.3827620925   -1.2986142710
 O   -1.5228282771   -1.7183144947   -2.2946497975
 H    0.8787382070    2.0415666062   -0.2916955050
 H   -0.8628290090    2.0443234127   -0.6333158320
 H   -0.2877137318    1.8452221672    1.0332914567
 H    0.1598696714   -0.1549392437   -1.2595497045
 H    0.7517956510   -0.3595403701    0.4064234505
 H   -0.5305552354   -2.3409677355    0.5348817087
 H   -3.1195559805   -1.3838731367    1.4608148797
 H   -1.8331524680   -3.4695650698   -1.3133299532