17

 C    0.0254252616    1.4098041139    0.1937921290
 N   -0.0017656641    0.0416292409   -0.2983299923
 C    1.2151266281   -0.7064341866   -0.0505587890
 C   -1.1843693688   -0.6724524063   -0.1004153600
 C   -1.3229936352   -2.0053354180    0.1810363801
 O   -2.6486346134   -2.3482170030    0.2257334754
 C   -3.3531758798   -1.2199324937   -0.0091263305
 C   -2.5285438199   -0.1622739820   -0.2151092652
 H    0.9242190826    1.9073172506   -0.1824421857
 H   -0.8398010915    1.9637541832   -0.1762853749
 H    0.0297834984    1.4758491488    1.2955841370
 H    1.3333880370   -1.0055433407    1.0063897200
 H    1.2202937445   -1.6134570869   -0.6631449722
 H    2.0789863957   -0.0993520296   -0.3340453872
 H   -0.6275720037   -2.8065973620    0.3544740980
 H   -4.4260640587   -1.3227465895   -0.0001872747
 H   -2.8328806327    0.8484524107   -0.4329869377