16

 C   -0.0040760096    1.3998472390    0.0233628613
 N   -0.0888868767   -0.0403497581   -0.0644178721
 C   -1.2837851244   -0.6866506066    0.0077411528
 N   -2.4002188734   -0.0565379520    0.0755536333
 C   -1.1337412785   -2.1586514021   -0.0071532605
 N   -0.0322760098   -2.8475711929   -0.0379180743
 C   -0.4448348784   -4.1698071433   -0.0285461255
 C   -1.7985977386   -4.2059738308    0.0081440058
 O   -2.2527557824   -2.9199795988    0.0226209707
 H    1.0348257206    1.7022078267   -0.1220454418
 H   -0.6252876870    1.8660281410   -0.7476164212
 H   -0.3546383808    1.7711850930    0.9946608535
 H    0.7415147678   -0.6057338686   -0.0148270716
 H   -3.1753315455   -0.7148719484    0.0997418141
 H    0.2560654149   -4.9888473722   -0.0487727269
 H   -2.5445814983   -4.9812822859    0.0268148624