19

 O   -0.6905891935    1.1446477419    0.9455901769
 C   -0.0740614605    0.1760328361    0.0973454379
 C    0.9220044704   -0.7358267964    0.8636757312
 C    0.0943400312   -1.9223424985    1.3237276734
 O    0.7287903161   -3.1582393901    1.5064890844
 C   -1.2226120800   -1.6565345513    2.0279820423
 C   -1.1870076987   -1.9452121363    0.5358847500
 O   -1.6937388263   -3.1494260553    0.0580786841
 C   -1.1865543795   -0.7655088642   -0.4172099253
 H    0.0045533819    1.6985349335    1.3151777841
 H    0.4263279344    0.6859249161   -0.7363967806
 H    1.7017756235   -1.1025682686    0.1860435453
 H    1.4185260019   -0.1872691627    1.6741242514
 H    0.9201133095   -3.2743176217    2.4426190419
 H   -1.6036400001   -2.4738803250    2.6320222349
 H   -1.4409105481   -0.6552512967    2.3804982012
 H   -1.0541504474   -3.8293482960    0.3119947156
 H   -2.1379195047   -0.2295816503   -0.4719075210
 H   -0.9433002600   -1.1342738546   -1.4190295078