18

 O   -0.0366770326    0.0709584508    0.8103882403
 C   -0.0413286071    1.1356211019    0.2549638803
 C   -1.3435574814    1.9299259626    0.0435438189
 N   -1.9179095441    1.8283867997   -1.2931577660
 C   -1.3046332273    2.5581927787   -2.3978237901
 C    0.0868753659    2.1092782996   -2.8886269505
 O    1.2129882360    2.7511841286   -2.2933525763
 C    1.2328682166    2.8626598623   -0.9130376930
 O    1.1351285519    1.6051298849   -0.2510498533
 H   -2.0463322444    1.4887870035    0.7539565223
 H   -1.2394818344    2.9870111521    0.3042502059
 H   -2.0454535910    0.8527087408   -1.5394868668
 H   -1.9885916591    2.4600980786   -3.2491057100
 H   -1.2815829373    3.6268351441   -2.1504358905
 H    0.1745941646    1.0187345248   -2.7746844927
 H    0.1879737613    2.3385985599   -3.9535387640
 H    2.2179308169    3.2585385667   -0.6578528112
 H    0.4601734856    3.5442408504   -0.5398113332