22

 C    0.1073551908    1.3927419962    0.4322098709
 C    0.0304057548   -0.0956927600    0.0812485995
 C   -1.3852379694   -0.5402996169   -0.2472248668
 C   -1.6776464940   -2.0510539677   -0.3367788463
 C   -2.7005435945   -1.7918712050    0.8005625116
 C   -4.1639127424   -1.8914228238    0.3848786266
 C   -2.4320934550   -2.5018225896    2.1201401957
 O   -2.2890190655   -0.3928223457    0.8757199113
 H    1.1253898965    1.6856481810    0.7056742073
 H   -0.2047064940    2.0155674070   -0.4136261437
 H   -0.5526852477    1.6171322055    1.2749017322
 H    0.6719962072   -0.3205546493   -0.7816874436
 H    0.4025734350   -0.6976452552    0.9196511199
 H   -1.7585927045    0.0301779713   -1.1112534467
 H   -2.0962590750   -2.4074623147   -1.2797931248
 H   -0.8370796190   -2.6892615339   -0.0527657035
 H   -4.4617448246   -2.9373980077    0.2518137510
 H   -4.8070866720   -1.4461245430    1.1508051097
 H   -4.3381180741   -1.3608590836   -0.5557142713
 H   -1.3819809656   -2.4019088281    2.4080606442
 H   -3.0465688715   -2.0696283640    2.9168911695
 H   -2.6716563955   -3.5682866029    2.0437008674