18

 C   -0.4687735551    1.1298919173    0.7145469165
 N    0.1598488759   -0.0782220306    0.2120351798
 C    0.7954295349   -0.9440350658    1.0665900738
 O    0.7694724449   -0.8139485781    2.2881424561
 N    1.4645787073   -1.9738412565    0.4444549128
 C    2.1297515919   -3.0096259590    1.2237274104
 C    1.1823834191   -4.0988362936    1.7667382142
 N    0.3428268712   -3.6547971613    2.7368769507
 O    1.2109172387   -5.2423241199    1.3508157071
 H    0.2133862786    1.9899052438    0.7195530220
 H   -1.3424620175    1.3764412073    0.1048028403
 H   -0.7857021510    0.9414375811    1.7401877171
 H    0.4500742859   -0.0790141247   -0.7526284142
 H    1.1821815849   -2.2257318387   -0.4898515279
 H    2.8621449665   -3.5096562327    0.5887681635
 H    2.6455565036   -2.5190061012    2.0529977564
 H    0.3132643659   -2.6682470138    2.9660339173
 H   -0.3610394558   -4.2855768537    3.0841806142