19

 C   -0.0273563842    1.5316971559    0.1698522204
 O    1.4202086088    1.5752644811    0.0710639166
 C    1.5030841845    0.1405346742   -0.0630251808
 C   -0.0444252194    0.0045407591   -0.0298177641
 C   -0.3361952055   -0.5684329044   -1.4348085135
 C    0.8407375158   -1.5494533816   -1.5948426207
 C    1.8895147799   -0.4162570973   -1.4604916123
 C    1.3635193549    0.5469698316   -2.5299377891
 O   -0.0751187541    0.4260845651   -2.4311296307
 H   -0.3643981937    1.8686987771    1.1567566582
 H   -0.5094652846    2.1219054046   -0.6144911191
 H    2.0953661927   -0.3049111352    0.7436057042
 H   -0.4966242746   -0.5870013282    0.7679231757
 H   -1.3442947764   -0.9528949193   -1.5940859571
 H    0.8968123763   -2.2944718969   -0.7960155520
 H    0.8563335125   -2.0504078372   -2.5658395839
 H    2.9374860192   -0.6917548924   -1.5809592229
 H    1.6544697926    1.5826537332   -2.3414020757
 H    1.6847856953    0.2531779007   -3.5373030532