21

 C    0.2304207086    1.4410349019   -0.2186598989
 C    0.0320305013   -0.0577456312    0.0193320917
 C    0.7374567132   -0.5590804028    1.2854244028
 C    0.5594943057   -2.0460388937    1.5096733905
 O    1.2500454013   -2.8517970729    0.4849287068
 C    2.1158826684   -3.3870417711    1.4137006766
 N    3.1299292380   -4.1120352646    1.2714437683
 C    1.4214870135   -2.7360686587    2.6074266023
 N    2.1436234854   -1.9093805332    3.5477689006
 H    1.2922009447    1.6870490682   -0.3305964269
 H   -0.2841593661    1.7703799491   -1.1264747351
 H   -0.1585204489    2.0316771597    0.6183437033
 H   -1.0406093860   -0.2809610359    0.0926168552
 H    0.4049646252   -0.6250005189   -0.8412439154
 H    1.8083413183   -0.3252791392    1.2268183968
 H    0.3546472004   -0.0371664451    2.1714603855
 H   -0.5009475048   -2.3185361779    1.5232508706
 H    3.3046681667   -4.3221849087    0.2868191939
 H    0.8348432283   -3.4697339840    3.1669615503
 H    2.5517389951   -2.4898727586    4.2725643602
 H    2.9198040915   -1.4412136623    3.0906000708