18

 C   -0.0382962739    1.5255245356    0.0189568047
 O    1.4342135050    1.5125235696    0.0937128186
 C    1.3834867845    0.1041686406    0.3657290169
 C    0.9665793186   -0.4006660992    1.7716930167
 N   -0.1443430340   -1.1224272401    1.0585324321
 C    0.5873887656   -1.8760458288   -0.1203935184
 C   -0.2859415734   -1.0629956370   -1.1080496292
 C   -0.0829214726   -0.0213981592   -0.0309167449
 C    1.9870282061   -1.1537931940   -0.2553260518
 H   -0.4846402682    2.0087273867    0.8940794904
 H   -0.3794063345    2.0232203924   -0.8936043849
 H    1.6544294587   -1.0297949568    2.3440732789
 H    0.5454986800    0.3745003472    2.4150616571
 H    0.5560473895   -2.9627585241   -0.0624169345
 H    0.0989477290   -0.8875184369   -2.1152788223
 H   -1.3169521559   -1.4235414577   -1.1369940715
 H    2.2831289691   -1.0607047144   -1.3017661978
 H    2.7989505565   -1.6092831342    0.3154405299