18

 C   -0.5831014875    0.7562602247   -0.0333976081
 O    0.6881986739    0.1345903245   -0.1805080776
 C    0.7375343790   -0.8815267325   -1.0632647556
 N    1.8021222247   -1.5383876919   -1.2091202922
 C    1.8360404451   -2.6099701523   -2.1652103230
 C    1.8769349538   -4.0835991753   -1.5960488175
 C    0.6987678848   -4.4102353060   -2.5172805472
 O   -0.3872883163   -3.5600086841   -2.1322853375
 C    0.6110664294   -3.0277475925   -3.0164392608
 H   -0.9504105724    1.1526341969   -0.9880513287
 H   -1.3244135642    0.0605846127    0.3773580365
 H   -0.4420958121    1.5824162465    0.6644724929
 H   -0.1985151203   -1.0566759715   -1.6086198400
 H    2.6995559449   -2.4618266078   -2.8231851588
 H    2.8034659537   -4.6076291626   -1.8384832714
 H    1.6595831678   -4.1766073686   -0.5307583975
 H    0.4459401145   -5.3421344362   -3.0090051518
 H    0.2690825111   -2.6418311441   -3.9707727317