18

 C   -0.0504119564    1.5011072610    0.0691225229
 C    0.0174799335   -0.0258124696   -0.0240099000
 C    0.7341840994   -0.4841066831   -1.2826484989
 O    0.7474849803   -1.9227436426   -1.2804832270
 C    1.3411947197   -2.5084579743   -2.3204385773
 N    1.8937537581   -1.8405021822   -3.3095665018
 O    2.3911353523   -2.8242455020   -4.1720870118
 C    2.1135337462   -4.0315624043   -3.6599682334
 C    1.4488615346   -3.9221880425   -2.4861487519
 H    0.9508110092    1.9449582034    0.0870126807
 H   -0.5876041838    1.9296715361   -0.7838342171
 H   -0.5689745837    1.8133554129    0.9797030718
 H    0.5380315569   -0.4369503313    0.8484672570
 H   -0.9921632926   -0.4521898894   -0.0172986802
 H    0.2285334793   -0.1319296098   -2.1898533100
 H    1.7667406520   -0.1164004548   -1.3195768137
 H    2.4509346981   -4.8756421359   -4.2420240365
 H    1.0870098270   -4.6965985418   -1.8325333229