19

 C    0.0091349709    1.5446433076    0.0342275512
 C    0.0375128849    0.0296470201    0.0306717756
 C   -1.1948546984   -0.6302615742   -0.5615003694
 C    1.3131120364   -0.7218428311   -0.1929541229
 O    2.4539706224   -0.0184965817    0.2850273006
 C    1.9601003196   -0.0892595592    1.6471800666
 C    0.6600202666   -0.7666527490    1.1982705280
 C   -0.0059710798   -1.7903376732    1.9209995744
 C   -0.5648435950   -2.6422372372    2.5634615006
 H    0.9835585622    1.9666783022    0.2861369283
 H   -0.2610800633    1.9142246074   -0.9612295271
 H   -0.7350085950    1.9237476049    0.7429229995
 H   -1.3619310043   -0.2700143072   -1.5821807644
 H   -1.1009102402   -1.7191405840   -0.5925881758
 H   -2.0855416741   -0.3964699644    0.0312255074
 H    1.4678678743   -1.4954223113   -0.9381172601
 H    2.5893429328   -0.7528800247    2.2482960642
 H    1.8867655170    0.8947924114    2.1227754307
 H   -1.0559605468   -3.3982765965    3.1240612125