19

 C   -0.3582209688    1.1534416581    0.1308134811
 O    0.3559858852   -0.0423686891   -0.0869096951
 C    0.8420687243   -0.6419825053    1.0779067985
 C   -0.1980698620   -1.1011411239    2.1333965149
 N   -1.1040015160   -1.9217859316    1.2603975268
 C    0.0366005809   -2.8746981758    1.2559283915
 C    0.5775390687   -2.4260235060    2.6273102360
 N    1.9532822805   -2.4812954396    2.1141533270
 C    1.3417597302   -2.0809297645    0.8148710141
 H    0.2377683946    1.8872831143    0.6971746577
 H   -0.5881149555    1.5734667672   -0.8513442761
 H   -1.2994978193    0.9732556189    0.6671140024
 H    1.6347470175   -0.0224794750    1.5307303808
 H   -0.6503682742   -0.3743100642    2.8062891437
 H   -1.8237881166   -2.3327639988    1.8556035361
 H   -0.0989557132   -3.9009104125    0.9219201097
 H    0.3339798539   -2.8623129601    3.5973873461
 H    2.5979283003   -1.7888214003    2.4962912982
 H    1.8923465593   -2.2752155820   -0.1038268737