15

 C    0.0120832356    1.4919109185    0.0092468811
 O    1.2585217835    0.7527306949   -0.0076877299
 C    0.0673693421    0.0394497719    0.0017248538
 C   -0.5253484770   -0.9740511458    0.9954526960
 O   -1.6151482254   -1.1211804090    0.0142882068
 C   -0.5466922154   -0.9645874165   -0.9886454872
 C    0.2762989138   -2.2524619529   -0.7441591166
 O    1.4978489833   -2.0418090566   -0.0235945521
 C    0.2920656428   -2.2594488056    0.7210473537
 H   -0.1967350428    2.0252232582    0.9347317569
 H   -0.2165427240    2.0340027510   -0.9064037492
 H   -0.8593869518   -0.7423525159    2.0048880420
 H   -0.9023454867   -0.7233037463   -1.9884046535
 H    0.2203573651   -3.1258180392   -1.3832986605
 H    0.2497997769   -3.1388656067    1.3528855187