15

 O    0.0128331802   -0.0443830784    0.0011565365
 C    0.0101415270    1.1653971825    0.0239587990
 N   -1.0836245830    1.9817559379    0.1456388652
 C   -0.8419965802    3.4089687257    0.0252308314
 C    0.6840414571    3.4900300401   -0.0928875338
 N    1.3473900816    2.9393405966    1.1147141695
 C    1.2062139107    2.0886308153   -0.0869576140
 C    1.2882333642    4.5572591577   -0.8266236747
 C    1.7833094982    5.4731654553   -1.4289256394
 H   -1.9939082309    1.5904806831    0.3252854400
 H   -1.3154289014    3.8278165312   -0.8706843014
 H   -1.1942560165    3.9623650732    0.9028140324
 H    2.3010740894    3.2972609231    1.1452497302
 H    2.0777168156    1.7703695642   -0.6442624979
 H    2.2254507679    6.2757110925   -1.9661413331