14

 N   -0.0881590810    1.4979363569    0.0925969605
 C   -0.0242026008    0.0966764230   -0.0487825417
 C   -1.1036001991   -0.9662205521   -0.1119164185
 O   -0.3398271916   -1.7503135748   -1.0483826969
 C    0.6446419370   -0.7527476492   -1.1008765209
 N    1.6371986972   -0.6127500048   -1.8440452264
 C   -0.3327673489   -0.8080598864    1.1663496336
 C    0.5677280237   -1.8114136273    1.6682078527
 N    1.2898481894   -2.6117540738    2.0854773735
 H    0.7495679819    1.8572373935    0.5401027639
 H   -0.1683309329    1.9494632071   -0.8132110014
 H   -2.1778801693   -0.9319222880   -0.2250398443
 H    1.7479795270   -1.3946260618   -2.4912504311
 H   -0.8634553325   -0.2458639022    1.9302310471