18

 O   -0.0608402261    1.3733534586   -0.1498402589
 C    0.0568120898   -0.0322762993   -0.0896350374
 C   -1.2886965678   -0.6480038296    0.2615756803
 O   -2.2813609975   -0.2464987041   -0.7223910564
 C   -2.4179809783   -1.5960169196   -1.2158134356
 C   -1.5379299838   -2.1455127125   -0.0715438668
 N   -0.4314942477   -3.0015271451   -0.4080543991
 C   -0.1522175916   -4.1549742917    0.2690585027
 O   -0.7760590478   -4.5751307542    1.2175922445
 H   -0.8261149099    1.5491460780   -0.7123531431
 H    0.4231132008   -0.4401271135   -1.0477468223
 H    0.8008074753   -0.2686860245    0.6782889387
 H   -1.5917351323   -0.3287390944    1.2650492404
 H   -3.4623298219   -1.9238203161   -1.2361139067
 H   -1.9849922211   -1.7192451177   -2.2183375413
 H   -2.0995956927   -2.6612801654    0.7057606292
 H    0.1579227594   -2.7606639304   -1.1894019638
 H    0.7272270831   -4.6752760185   -0.1578255445