23

 C    0.0469500162    1.5277515137    0.0770421257
 C   -0.0127831795    0.0049280112    0.0245489481
 C   -1.4390516758   -0.4773969760   -0.2253965728
 O   -1.8626460646   -0.0001664448   -1.4959251509
 C    1.0032382472   -0.7046061089   -0.9272490444
 C    1.3419195156   -1.7101251545    0.2067025328
 C    2.8016036540   -2.0332472533    0.4438136252
 O    2.8892037226   -2.8547976357    1.6002705537
 C    0.6302427347   -0.7692293959    1.2172873232
 H    1.0747749637    1.8751669551    0.2243988924
 H   -0.3357777898    1.9632411992   -0.8503681655
 H   -0.5584985098    1.9156191122    0.9056470728
 H   -1.4730678987   -1.5779570193   -0.1894532424
 H   -2.0938197972   -0.1026407761    0.5792491600
 H   -2.7626942268   -0.3017549126   -1.6474081817
 H    0.5984887216   -1.1028331858   -1.8599849352
 H    1.8529151572   -0.0565494039   -1.1670150122
 H    0.7951638217   -2.6509434677    0.0902952467
 H    3.2182912120   -2.5422557107   -0.4417932203
 H    3.3681417692   -1.0960005749    0.5777573484
 H    3.8177402150   -3.0369185656    1.7712659071
 H    1.3431342633   -0.1480901995    1.7687724855
 H   -0.0506067214   -1.2293619162    1.9393306637