17

 C   -0.0445117546    1.4929519202   -0.1438545094
 C    1.2862963190    0.8152322861    0.0170243527
 C    2.0820258310    0.8618811356    1.3088958725
 C    1.2127559900    0.7605161703    2.5795495934
 C    0.1398720194   -0.2925470391    2.4602020861
 C   -0.3890994979   -0.6427367390    1.2853734109
 C    0.0233538009   -0.0239164160    0.0021810848
 H   -0.4603817338    2.0469536953    0.6905846560
 H   -0.2967137288    1.8979313549   -1.1182101509
 H    1.8975556854    0.7634043273   -0.8797669539
 H    2.7839227026    0.0181070856    1.2994908031
 H    2.6904779229    1.7728673888    1.3508431718
 H    1.8556463290    0.5512418129    3.4422109953
 H    0.7530880895    1.7361573231    2.7925233542
 H   -0.2131725546   -0.7591854705    3.3756311777
 H   -1.1643485027   -1.4033564235    1.2423663983
 H   -0.1889356775   -0.5999482321   -0.8926359127