15

 O   -0.3019379956    1.2508816991    0.9582171399
 C    0.0183070880    0.1364358499    0.1596266760
 C    0.8154557028   -0.8744383272    0.9890880517
 O   -0.1654418159   -1.6856684920    1.6845381447
 C   -1.3816279885   -1.5026278052    1.1274823821
 N   -2.4985201891   -1.8949906654    1.5641032061
 C   -1.2561754007   -0.6748826942   -0.1373230346
 O   -2.3816723245    0.1393039322   -0.3456675555
 H   -1.1979489510    1.5072416734    0.6932302271
 H    0.5610090061    0.4314038201   -0.7482505062
 H    1.4337227843   -1.5269200934    0.3633519236
 H    1.4362856976   -0.3824343572    1.7391724901
 H   -2.4212418627   -2.3950512133    2.4489458291
 H   -1.0863164912   -1.3434250169   -0.9954985836
 H   -3.0865999197   -0.2592107498    0.1902329894