19

 C    0.0119674245    1.5196614287    0.0651103129
 C   -0.0533347391    0.0230209020   -0.0247872466
 C   -0.8671732374   -0.8130203100    0.8852749363
 N    0.6010915003   -0.8946977238    1.0045678192
 C    1.0311871838   -1.7889261996   -0.1314450320
 C    0.4884525192   -0.8034417538   -1.1976386480
 C   -0.4660929735   -1.2891965474   -2.2725721572
 O    0.2815561932   -2.1061759320   -3.1635211529
 H    0.9931355345    1.8916869330   -0.2494593520
 H   -0.7459717834    1.9850310694   -0.5765263634
 H   -0.1636537794    1.8539839632    1.0917607196
 H   -1.3337799497   -0.3119670706    1.7285869074
 H   -1.4150716482   -1.6800772375    0.5218379321
 H    2.1160053393   -1.9036744277   -0.1365075467
 H    0.5687048205   -2.7819331841   -0.1051884107
 H    1.3145550412   -0.2793518015   -1.6878939838
 H   -1.2961489780   -1.8542273620   -1.8211582152
 H   -0.9067086812   -0.4234283383   -2.7949871290
 H   -0.3186601066   -2.4580383680   -3.8272540801