17

 C   -0.1331629654    1.1801032196    0.4816458011
 O   -0.1016701735   -0.1603868734   -0.0344713836
 C   -1.2938316412   -0.7623788027   -0.1607685606
 O   -2.3485355938   -0.2571295142    0.1359860450
 C   -1.1418325977   -2.1640355230   -0.7537900633
 N   -2.3655818103   -2.9378683878   -0.8028317947
 C   -2.8557821930   -3.3354395270    0.5177267573
 C   -4.0535754077   -4.1710355286    0.3955449114
 N   -5.0089396811   -4.8139861860    0.3085764758
 H    0.9047786590    1.5101472695    0.5110715057
 H   -0.7241806829    1.8275626317   -0.1703955684
 H   -0.5694552875    1.1943484763    1.4832455577
 H   -0.7431145159   -2.0510564755   -1.7688865592
 H   -0.3757527694   -2.7067677454   -0.1888217019
 H   -3.0870537634   -2.3958730213   -1.2682876649
 H   -2.0769304387   -3.9279125416    1.0139767537
 H   -3.0948987776   -2.4886862507    1.1793006787