19

 O   -0.0529071173    1.3481353350    0.0517456104
 C    0.0236509978   -0.0578008295   -0.0118954659
 C    0.2169339841   -0.6517859123   -1.4517620290
 C   -1.0818664863   -1.4466006079   -1.2828705391
 C   -1.2087044886   -2.1520596476    0.0458438687
 O   -0.2249942108   -2.8145273296    0.7897850208
 C    1.0360858829   -2.1732038237    0.9106088688
 C    0.9400244492   -0.6493499096    1.0608447599
 C   -1.3846101747   -0.6753610395    0.0294998022
 H    0.8425254514    1.6994804254   -0.0101491388
 H    0.0758887691    0.1602154064   -2.1691602760
 H    1.1357134763   -1.1937292177   -1.6972284069
 H   -1.7585365639   -1.6881187870   -2.0953506801
 H   -2.1277850557   -2.7235631791    0.1321815637
 H    1.5121906525   -2.6176488889    1.7898243780
 H    1.6626112249   -2.4195336781    0.0415434393
 H    1.9522655388   -0.2301170909    0.9784333572
 H    0.5465311660   -0.3776649157    2.0467937607
 H   -2.2668437057   -0.1422779796    0.3619798061