18

 C    0.0823348572    1.5066764785   -0.1297710831
 C    0.0281476768   -0.0064495359   -0.0528716832
 C    1.3363102958   -0.7831612621   -0.1034616142
 C    0.5816673356   -0.6905699731    1.1891682797
 C   -1.1488821567   -0.6143296390   -0.6966621453
 C   -2.2206663036   -0.0907269851   -1.3599483205
 C   -2.9802534389   -1.2333716974   -1.7220067025
 N   -2.4289705667   -2.3505418391   -1.3203191974
 O   -1.2586098663   -1.9571247753   -0.6648251493
 H    0.9804827593    1.8803841545    0.3693217577
 H    0.1083268264    1.8523563423   -1.1688344264
 H   -0.7860699840    1.9619947181    0.3584637489
 H    1.3319993925   -1.7326079650   -0.6251576170
 H    2.2443322090   -0.2012506741   -0.2187247141
 H    0.9661312688   -0.0444695277    1.9709135557
 H    0.0678181189   -1.5774707551    1.5398912299
 H   -2.4363620040    0.9444490745   -1.5602191294
 H   -3.9144897401   -1.2791723689   -2.2644206394