22

 C   -0.1961772261    0.8425201401   -1.9668588944
 C   -0.0152386209   -0.3026346896   -0.9937631954
 C    1.3191252303   -0.6283807350   -0.3381893005
 C    2.5860010772    0.1558869724   -0.6040272201
 C    0.1859784987   -0.0600258775    0.4746498067
 C    0.1964275567    1.2793993117    1.2606975868
 C   -0.5124666440    0.5383191818    2.4051214100
 N   -1.7846480972    0.0116645209    1.8496141602
 C   -0.5126327397   -0.7355358152    1.6370091444
 H    0.3905514605    1.7209586544   -1.6846945651
 H    0.1035705439    0.5559152448   -2.9813874440
 H   -1.2463913123    1.1513310490   -2.0036134946
 H   -0.6260463774   -1.1714118052   -1.2310441940
 H    1.4964769183   -1.6921090777   -0.1869406724
 H    2.3943772227    1.2258937642   -0.7200669872
 H    3.2983598966    0.0397451242    0.2209771162
 H    3.0807367962   -0.1914507047   -1.5178796004
 H    1.2052686488    1.6079268791    1.5257101216
 H   -0.3633930559    2.1150538251    0.8319535451
 H   -0.4006224039    0.7107824546    3.4683450379
 H   -2.2683554247   -0.4503493953    2.6209970121
 H   -0.4056980278   -1.7604904820    1.9733868273