17

 O   -0.0149507454    1.4238892846    0.0976977441
 C    1.4178813626    1.4637025958   -0.0603118499
 C    2.1634052020    0.9794436816    1.2656139345
 C    1.3216308624    1.0787182397    2.5114447375
 C    0.3950984378    0.1134739989    2.5156390641
 C    0.5233241782   -0.7291620893    1.2730384573
 C    0.0032131038   -0.0100715809   -0.0539089220
 C    1.4506833687    0.0139444100   -0.6136761637
 C    1.9764903350   -0.4847646192    0.7696395451
 H    1.7589299190    2.3739912851   -0.5562347209
 H    3.1874426998    1.3534962707    1.3276876935
 H    1.4106061202    1.8730845885    3.2432444442
 H   -0.3917808347   -0.0045994724    3.2514007985
 H    0.1917603366   -1.7673497143    1.3412490278
 H   -0.8945043917   -0.3903030326   -0.5442218491
 H    1.7698803691   -0.2967555916   -1.6050220797
 H    2.7536660466   -1.2300388345    0.9369987485