22

 C   -0.0417203177    1.5760675644   -0.0159217442
 C   -0.1573029920    0.0501487109    0.0697754532
 C    0.6682026167   -0.5411818300    1.2063318407
 C    0.7739960472   -2.0626963350    1.3399839029
 N    1.5284651735   -2.5408674454    0.1447935169
 C    2.2623358474   -2.0356533908    1.3361184036
 C    3.2946438605   -2.8533260511    2.0464608589
 C    2.2567938603   -0.5108519552    1.1068000725
 O    2.8438986902   -0.0755289113   -0.0898087876
 H    0.9953236701    1.8705389136   -0.1982434726
 H   -0.6572259372    1.9745617249   -0.8286740980
 H   -0.3723601164    2.0528269752    0.9142809359
 H   -1.2076069823   -0.2381897637    0.2109710559
 H    0.1579737107   -0.4016631086   -0.8764201984
 H    0.3647383299   -0.1009392520    2.1634396437
 H    0.1035986967   -2.7367263709    1.8614689560
 H    1.5519970942   -3.5589883930    0.1807709572
 H    2.9533133412   -3.8838966391    2.1958976549
 H    4.2302805243   -2.8869654012    1.4763394019
 H    3.5207202327   -2.4294918289    3.0307605897
 H    2.7156603494    0.0579651174    1.9188827938
 H    2.5757641905   -0.7290747901   -0.7514480369