17

 O    0.5194760089    0.9017403187    0.8294119254
 C    0.0686659295   -0.2501420575    0.1665429336
 C   -1.4717087035   -0.4819283926   -0.0089806088
 C   -2.3784244012    0.7624597449    0.1089951099
 C   -2.6465121433    1.1642953343   -1.3220232974
 C   -2.0717186074    0.3565585453   -2.2136305014
 C   -1.2649915409   -0.7305220688   -1.5506065697
 C    0.2098613748   -0.2923071293   -1.3617523061
 O    1.0830649240    0.0798183628   -2.0927682505
 H    1.1404718455    1.3456898621    0.2395279498
 H    0.5297215037   -1.1525701482    0.6004837782
 H   -1.8398739362   -1.3271759529    0.5709472440
 H   -3.3082099086    0.5412508605    0.6467424339
 H   -1.8742705370    1.5586068738    0.6692651954
 H   -3.2492770623    2.0301727793   -1.5745213614
 H   -2.1096062186    0.4709679780   -3.2903292655
 H   -1.4129647375   -1.7356257504   -1.9542026092