20

 C    0.2762652314    1.4983142010   -0.0489314593
 N    1.3299502041    0.4732833274    0.0493195100
 C   -0.0868309706    0.0646877829    0.0076515072
 C   -0.6504410565   -0.6582357666    1.2353402912
 C   -1.5236526389   -1.8057966929    0.6664281629
 C   -0.9306139807   -2.0908367701   -0.7257711588
 C   -0.5750773918   -0.6965698789   -1.2143780431
 C   -1.2218458462   -0.0674447570   -2.3742265886
 O    0.1427232926   -0.5174445201   -2.4312590520
 H    0.1499579147    2.1166836272    0.8363962991
 H    0.1646820806    2.0308309387   -0.9905215267
 H    1.7247279148    0.3342451036   -0.8807129556
 H    0.1852742982   -1.0509233491    1.8219662703
 H   -1.2227061888    0.0069197417    1.8879670297
 H   -1.5322971048   -2.6867553528    1.3123378446
 H   -2.5621219175   -1.4723881385    0.5595103095
 H   -0.0102759312   -2.6813112312   -0.6371530561
 H   -1.6084574987   -2.6235519682   -1.3967928836
 H   -1.9210309286   -0.6443144825   -2.9789483282
 H   -1.3589122921    1.0113156454   -2.4086810426