15

 N    0.1069855970   -1.1486751697   -0.3102144424
 C    0.0475705488   -0.0103641672   -0.1190773530
 C    0.0144540932    1.4302894962    0.0669830417
 C   -0.4710648938    2.3020937309   -1.1247823174
 C    0.8750899019    3.0910431637   -1.1102205630
 C    1.3589026602    2.2581420503    0.1077275551
 N    1.3089565039    2.9586010804    1.3891063815
 C    0.2226786800    2.6199221242    1.9436866733
 O   -0.6217842324    1.7448448285    1.3238654677
 H   -0.6646154735    1.7338489894   -2.0356106228
 H   -1.3629510494    2.8762871367   -0.8684788611
 H    1.4794728480    2.9506778152   -2.0081414441
 H    0.7943134220    4.1582362844   -0.8997989315
 H    2.2998078260    1.7190030384   -0.0100203035
 H   -0.1326606020    2.9626324385    2.9084730893