18

 C   -0.2589416300    1.6209428307    0.1274219562
 C   -0.0098720343    0.1261007404    0.0656597199
 C    0.9808369412   -0.4639587733   -0.9821317728
 O    1.7029229165    0.4723381260   -1.7830653723
 C    1.6460126137    0.3569937630   -3.1249490524
 O    2.2022241195    1.1115221355   -3.8630384688
 C    1.7575681324   -1.0455981631    0.1829072846
 C    2.1324051722    0.0110832506    1.1421004014
 N    0.7582519286   -0.5112949762    1.2042402507
 H    0.6619033614    2.2059933961    0.0866057925
 H   -0.8820854836    1.9332483698   -0.7167280370
 H   -0.7904156961    1.8680776609    1.0517551573
 H   -0.9655923799   -0.4021599402    0.0044950035
 H    0.5198562417   -1.2184349558   -1.6268593317
 H    1.0358207043   -0.5071611199   -3.4544469530
 H    2.1461047360   -2.0567919120    0.2330011858
 H    2.7291239873   -0.2948109728    1.9953707735
 H    2.3272386590    1.0193629602    0.7914920226