21

 C    0.5665056337    1.4715457249    0.2394483602
 C    0.0853337289    0.0564538359   -0.0036715455
 C    0.5033533933   -0.6649685968   -1.3045747419
 C    1.0673739022   -1.7460362635   -0.3594463487
 C    2.5333818501   -2.1215645505   -0.4725980305
 C    3.0072434420   -2.9422013218    0.7444749681
 C    4.4193038933   -3.2951821459    0.6770086909
 C    5.5858298042   -3.5739051996    0.5951864391
 O    0.7958810695   -0.9203446292    0.8002989640
 H    1.6374509570    1.5592995898    0.0323064311
 H    0.0261540981    2.1747978256   -0.4039737457
 H    0.3936408394    1.7606221008    1.2810308295
 H   -0.9949426098   -0.0128330524    0.1895789759
 H   -0.2983577989   -0.9698698208   -1.9783978163
 H    1.2727226015   -0.1348848686   -1.8723785749
 H    0.4485132518   -2.6562896121   -0.3290670146
 H    2.6885721687   -2.6962655207   -1.3937052475
 H    3.1373777351   -1.2110898606   -0.5508455789
 H    2.8088353364   -2.3612770536    1.6527066203
 H    2.4048643370   -3.8567506450    0.8271188780
 H    6.6153948465   -3.8261003658    0.5372660174