17

 C   -0.0133522326    1.4577134339   -0.1244035944
 C    1.3345221352    0.7992638298    0.0325967891
 C    2.1474600686    0.8822120943    1.2880595681
 O    1.3837840761    0.4401939639    2.4493331288
 C    0.3080662421   -0.3689004157    2.3141529981
 N   -0.3778297765   -0.6607477368    1.2817747444
 C    0.0723483313   -0.0350246179    0.0926462954
 C    0.5269883147   -0.7370941126   -1.1879834434
 N    1.7859091721    0.0866769716   -1.1679452688
 H   -0.3787566452    2.0180428662    0.7302961044
 H   -0.3084678426    1.8567677983   -1.0921795826
 H    3.0146355209    0.2222775279    1.1857015311
 H    2.4933387557    1.8849030745    1.5575735586
 H    0.0367841811   -0.7735689620    3.2871372790
 H    0.7487226501   -1.7991406199   -1.0494884526
 H   -0.1162845225   -0.6146878616   -2.0677252645
 H    1.9006474615    0.6874416462   -1.9804322807