23

 C    0.1294517577    1.5028234648    0.0530155403
 C    0.0657640840    0.0485200278    0.0046831239
 C    0.0265039784   -1.1548764173   -0.0341940632
 C   -0.0446415315   -2.6119724580   -0.0666182295
 C   -1.4895856686   -3.1733776811   -0.0764387179
 C   -2.2450729330   -2.7218465827   -1.3328346833
 C   -1.4421559547   -4.7024080631    0.0745780504
 C   -2.8034027360   -5.3675676579    0.2420253540
 O   -2.5751488123   -6.7458272370    0.5033280145
 H    0.9925800845    1.8444587651    0.6354083370
 H    0.2173685514    1.9341046596   -0.9504931848
 H   -0.7683309951    1.9269397962    0.5166027134
 H    0.4880607398   -2.9887870389   -0.9514760112
 H    0.4891034067   -3.0202238436    0.8015438379
 H   -2.0017010778   -2.7560071855    0.8013796865
 H   -3.2999825646   -3.0086168463   -1.2982689353
 H   -2.1963239666   -1.6348740883   -1.4408881771
 H   -1.8062365930   -3.1703106593   -2.2327790103
 H   -0.9384235653   -5.1489309968   -0.7929589358
 H   -0.8398881935   -4.9667362674    0.9525582834
 H   -3.3487719967   -4.8903686238    1.0737568683
 H   -3.4123215264   -5.2363461915   -0.6649761167
 H   -3.4285417571   -7.1841447750    0.5671937754