18

 O    0.1565420791    1.4044319133   -0.0027131005
 C    0.0761352780    0.0014500530    0.0108424722
 C    0.1575841607   -0.6339090880    1.4568106495
 C   -1.3530540127   -0.6414209563    1.3969274552
 C   -2.4563052995   -0.1640696272    1.9660725924
 C   -3.5024146924    0.1166661143    0.8882176693
 C   -2.6547506971    0.2245126172   -0.4248036232
 C   -1.3901518207   -0.5911126036   -0.1075077614
 H   -0.4540582960    1.7402520425    0.6655512564
 H    0.8084112560   -0.3528476127   -0.7179920552
 H    0.6024171968   -1.6340983682    1.4259997171
 H    0.6533849296   -0.0417828857    2.2303425941
 H   -2.6089277493    0.0672934237    3.0143560631
 H   -4.2476790606   -0.6882652274    0.8193370632
 H   -4.0639942370    1.0347868026    1.0941930782
 H   -3.1958123181   -0.1254797915   -1.3076893949
 H   -2.3812119332    1.2710454056   -0.6036548539
 H   -1.3586247936   -1.5713315915   -0.5972065917