19

 C   -0.1145930266    1.4987435137   -0.1026659592
 C   -0.0039764723    0.0124544999    0.0585032743
 C    1.2343921121   -0.7946447414   -0.2422644271
 C    0.6516211292   -0.8008783434    1.1653877679
 C    1.4169516978   -0.2563099171    2.3417029151
 N   -0.2621945726   -1.8909821400    1.4436812969
 C   -1.2366661894   -1.7444658712    0.6279990716
 N   -2.2941989282   -2.5959567349    0.4440870489
 O   -1.2342642362   -0.6689802499   -0.2094189483
 H    0.8254584850    1.9790936852    0.1810513731
 H   -0.3282936985    1.7684195152   -1.1426826227
 H   -0.9127995440    1.9039909515    0.5274327133
 H    1.1447542121   -1.6939226844   -0.8431852438
 H    2.1442365338   -0.2231695433   -0.3986996604
 H    2.0277610032    0.6051650736    2.0557179709
 H    0.7362148401    0.0510896303    3.1420583787
 H    2.0842560172   -1.0242795254    2.7461226722
 H   -2.4305243043   -3.2360663073    1.2115955647
 H   -3.1395684986   -2.1568532711    0.1110595738