18

 C   -0.2315207184    1.4225557622    0.0755012796
 O    0.0645491577    0.0375051377   -0.1009423091
 C    0.6719423024   -0.5414175947    0.9797595756
 C    1.9878102281   -0.9556630932    1.0665740625
 C    3.0942447588   -0.8660864370    0.0718438925
 N    2.1040731892   -1.5092744383    2.2999443570
 N    0.9475815818   -1.4930660661    3.0188382028
 C    0.0735026011   -0.9001289839    2.2166992056
 N   -1.2400551766   -0.6297337820    2.6090784123
 H    0.6878674560    2.0093008564    0.2001488092
 H   -0.7512734866    1.7502162498   -0.8279269130
 H   -0.8745202720    1.5837409609    0.9488881887
 H    3.9293910234   -0.2575331110    0.4375844203
 H    3.4927019289   -1.8534208685   -0.1889637188
 H    2.7125493660   -0.4061216520   -0.8423533019
 H    2.9168766366   -1.9364330515    2.7066730079
 H   -1.4905701784   -1.1570791023    3.4367013079
 H   -1.9026331982   -0.8120661066    1.8651447309