18

 C   -0.0290080040    1.2976622590   -0.0303300049
 O    0.0326854957   -0.1284547479    0.0196875594
 C    0.6853179036   -0.6249495902    1.1053764444
 O    1.1843830189    0.0585590717    1.9752936739
 N    0.6995079848   -1.9794357438    1.0787997312
 C    0.1060571309   -2.8268142079    0.0438744296
 C    0.4352872596   -4.2056039741    0.5496806142
 C    1.1109998581   -4.1597424692    1.6940523473
 C    1.3460361377   -2.7442096169    2.1440308071
 H    0.9739992365    1.7313088926   -0.0617404836
 H   -0.5745843990    1.5380694984   -0.9436971058
 H   -0.5536811756    1.6969035502    0.8416795596
 H   -0.9759893377   -2.6574954656   -0.0486105273
 H    0.5403718604   -2.6243351811   -0.9452702434
 H    0.1383082029   -5.0984541221    0.0144071839
 H    1.4660022001   -5.0094086684    2.2629479518
 H    2.4125441844   -2.4926426071    2.2276728442
 H    0.8976271226   -2.5258995077    3.1233242586