16

 O    0.4688866840    1.0122936826    0.6597764758
 C   -0.0015552191   -0.1393448404    0.0141555297
 C   -1.4733762648   -0.1136464985   -0.4376736148
 C   -1.5185886935   -1.1972853743   -1.5215391606
 O   -0.1643660487   -1.4046772693   -1.9716956987
 C    0.7084676921   -0.4935162323   -1.3253629882
 C    0.9498063091    0.7203510671   -2.1183332577
 C    1.1221979701    1.7439949905   -2.7273841664
 H    0.5190894918    1.7148250116   -0.0022019387
 H    0.1662265289   -0.9678402637    0.7094264876
 H   -2.1680895263   -0.2993053439    0.3834579491
 H   -1.6959713968    0.8737845303   -0.8555097136
 H   -1.8877943099   -2.1540010504   -1.1340238856
 H   -2.1436022947   -0.9136876901   -2.3755264627
 H    1.6598100929   -1.0081854701   -1.1551952590
 H    1.2930704648    2.6263013009   -3.2943612260