18

 O   -0.7714292788    0.6557788469    0.5396885260
 C    0.1567114325    0.8648716580   -0.2009480207
 C    1.2543715904    1.8654032649    0.0566410271
 C    1.5020129665    2.4639002768    1.4423207258
 C    2.0825661840    1.0807501080    1.8500994896
 C    3.2699744355    1.2409829203    2.7872366843
 C    3.9499643609    2.4615054129    2.1104604077
 C    2.9677779329    2.6705781929    0.9687349300
 N    2.6326303294    1.2621816949    0.4039785910
 H    0.2593147156    0.3188820220   -1.1666053312
 H    1.3243507683    2.5384503797   -0.8095805548
 H    0.8649750369    3.1376076798    2.0237033551
 H    1.4178791775    0.2300078952    1.9913013776
 H    2.9538399615    1.4342634243    3.8162321939
 H    3.9029319377    0.3496019372    2.7888812706
 H    4.0136194352    3.3394998632    2.7596095071
 H    4.9543018726    2.2382685491    1.7409292397
 H    3.1954750516    3.4187846739    0.2064915211