20

 C   -0.8500178213    0.9374649489    0.1269909573
 C    0.1107142249   -0.2236646477   -0.0670636687
 O    0.4665616352   -0.7247302143    1.2094382109
 C    1.2588526712   -1.8969657649    1.1982616196
 C    2.7207893451   -1.6469391609    0.8218342140
 C    1.1465198565   -2.5737094808    2.5775374858
 C   -0.0019874894   -2.1541276116    3.4676648857
 O    1.9423914093   -3.4263232244    2.8974149660
 H   -0.3781420743    1.7309039526    0.7134595662
 H   -1.1463825321    1.3518425003   -0.8411785359
 H   -1.7494503904    0.6093415493    0.6556746817
 H   -0.3607336289   -1.0228347450   -0.6635941555
 H    1.0024498594    0.1091220529   -0.6190454427
 H    0.8246502022   -2.6243621104    0.4861558288
 H    3.2927962383   -2.5627706442    0.9806018629
 H    2.8195381365   -1.3451219003   -0.2238217654
 H    3.1402497998   -0.8584335120    1.4539728932
 H   -0.9548888936   -2.2640009698    2.9401422383
 H    0.0043927911   -2.7587295151    4.3750890657
 H    0.0865137206   -1.0915861927    3.7130780919