21

 C   -0.1322735923    1.5537465830    0.1786964537
 C    0.0492857482    0.0374129214   -0.0383494154
 C    0.8354766160   -0.3030373686   -1.3293729306
 C    0.1092347979    0.1008249468   -2.6013519391
 C    0.5728489849   -0.5414352206   -3.9291381698
 C   -0.8700624624   -1.0788014386   -4.0068530798
 O   -1.1939096978   -0.5285499046   -2.7126981313
 C    0.7004056660   -0.5727910385    1.1195887266
 C    1.2576893542   -1.0622979972    2.0661185438
 H    0.8385046111    2.0561171119    0.2384976113
 H   -0.7064728650    2.0005869797   -0.6373223382
 H   -0.6677565284    1.7440472592    1.1121432120
 H   -0.9450996662   -0.4139235217   -0.1496623179
 H    1.8180257651    0.1860298249   -1.3043993927
 H    1.0130593349   -1.3837477780   -1.3529726008
 H    0.0084105707    1.1929531401   -2.6623585037
 H    0.8731264401    0.1490001626   -4.7182795988
 H    1.3412166817   -1.3080650371   -3.8091673654
 H   -1.4876686218   -0.6403193259   -4.8010189678
 H   -0.9874183108   -2.1683719992   -4.0303037381
 H    1.7360634040   -1.5011854298    2.9061480921