13

 O   -0.3993170249    0.2431046923    0.6151342150
 C   -0.1233836234    1.2852403779    0.1272519565
 O   -0.9961227347    2.2658051987   -0.3334675642
 C    0.0915889598    3.1216911311   -0.7690376639
 C    0.5927948321    4.0521246212    0.3639804873
 O    1.5026682333    3.0035800838    0.8336515230
 C    1.1245464566    2.1188287139   -0.2384207231
 C    1.2955101269    5.2451169913   -0.0622409014
 C    1.8646294264    6.2321871285   -0.4431612075
 H   -0.0357617403    3.4905260797   -1.7823121745
 H   -0.1745660487    4.2783068468    1.1119878470
 H    1.9638076492    1.6541972891   -0.7543112351
 H    2.3691754877    7.1101771058   -0.7652215291