19

 C   -0.2040715423    1.5428034553    0.0017427836
 C    0.0128804153    0.0504482463    0.0161870002
 C   -1.2158925635   -0.8794342321    0.1625447188
 N   -0.4772037790   -1.7516072626    1.1183697841
 C    0.6641318995   -0.7846823283    1.1935988482
 C    1.7680515257   -1.1958942421    0.1890001491
 N    1.0850792550   -0.4318367291   -0.8933169306
 C    1.0009976190   -0.2691792476    2.4911038462
 C    1.2681518737    0.1614748918    3.5831165900
 H    0.7512080241    2.0699302002    0.0680616402
 H   -0.6901154537    1.8463026947   -0.9336144559
 H   -0.8400403428    1.8590038750    0.8347021764
 H   -2.0813552327   -0.3648623154    0.5993437212
 H   -1.5441106087   -1.3982605011   -0.7465545987
 H   -0.9475320344   -1.8569932124    2.0098336983
 H    2.7613547678   -0.7897159508    0.4074697267
 H    1.8313806648   -2.2788296411    0.0503432878
 H    0.7470107907   -1.0082391182   -1.6567735106
 H    1.5122580817    0.5424867174    4.5438988249