19

 C    0.2644085622    1.3249029976   -0.0812384408
 O    0.1129139739   -0.0742773459    0.0083592002
 C    0.6118558336   -0.6211910337    1.2151123716
 C    0.5029531762   -2.1407686438    1.0855883092
 O    1.1571463252   -2.5640581439   -0.0991918964
 C    1.1350543689   -2.8416173884    2.2711106206
 C    1.6638542119   -4.2177230572    2.1397448572
 N    2.5871424490   -3.0734694430    2.2902754432
 H    1.3215616218    1.6235125525   -0.0138497878
 H   -0.1329058448    1.6355701213   -1.0503540376
 H   -0.2920631139    1.8424199254    0.7144283451
 H    1.6645448425   -0.3313721284    1.3627017268
 H    0.0323967807   -0.2611670984    2.0799098154
 H   -0.5679365146   -2.4017614372    1.0418810673
 H    0.9354333066   -1.9038161465   -0.7676765773
 H    0.7212789441   -2.5332781047    3.2299532896
 H    1.6275269378   -4.8936615327    2.9892915498
 H    1.5940984399   -4.6888821110    1.1647115715
 H    2.9412516491   -2.8453539519    1.3623285824