16

 O   -0.1777196520    1.4164359685    0.0113512788
 C   -0.0380117020    0.0129095298    0.0024849627
 C    0.6731808464   -0.4925351796   -1.2744317087
 C   -0.0025690388   -0.0994139485   -2.5027163909
 C   -0.5691733549    0.2152591849   -3.5142167820
 C    0.6973659833   -0.5061371748    1.2601005739
 C    0.0452080302   -0.1263008113    2.5052027516
 C   -0.5019636755    0.1774160946    3.5306548365
 H    0.7016253149    1.8115486085    0.0050407409
 H   -1.0625376204   -0.3720907926    0.0101952130
 H    1.7049702521   -0.1107411453   -1.2778431332
 H    0.7552253992   -1.5863917881   -1.2308702390
 H   -1.0700478877    0.4996370543   -4.4060713459
 H    0.7784618691   -1.5994540750    1.2032399692
 H    1.7290677141   -0.1242859704    1.2479258936
 H   -0.9856687379    0.4520617651    4.4349500296