20

 C   -0.0233678778    1.4179721443   -0.0105805050
 C    0.0908378695   -0.0759065170   -0.0183487396
 C    0.5897132839   -0.9853187552   -1.1355945300
 O    1.9746938999   -0.9026085762   -1.3711460286
 C    0.0796699014   -1.9473062874   -0.0519564306
 C   -0.0592033788   -3.4391511552   -0.0962098274
 C    0.5853955310   -1.0357462076    1.1164505870
 C   -0.8221472995   -1.0379457683    1.6962819351
 N   -1.1443631413   -1.0096073750    0.2037066464
 H    0.9639281285    1.8702906288   -0.1497558065
 H   -0.6732102597    1.7564652564   -0.8241652467
 H   -0.4376587417    1.7881941572    0.9326233167
 H   -0.0037510974   -0.9626824651   -2.0615582806
 H    2.2148095683   -1.5734435157   -2.0173322721
 H    0.9204199766   -3.9092278395   -0.2383418335
 H   -0.4875939595   -3.8353717426    0.8301372340
 H   -0.7084731460   -3.7406777118   -0.9250463716
 H    1.5624845430   -1.0488316459    1.6076391650
 H   -1.1779313792   -1.9405397386    2.2035068912
 H   -1.1671401011   -0.1492577756    2.2344968968