20

 C    0.1005038962    1.4250561625   -0.3759856207
 C    0.1507105945   -0.0329673701   -0.0399153679
 N   -0.8859681829   -0.6803503853    0.8072681820
 C    0.5470946726   -0.7618527208    1.1978879823
 C    1.1299399733   -1.9272031972    0.3970873743
 C    0.7265559777   -1.1654450787   -0.9212547155
 C   -0.2139321505   -1.8399183991   -1.8781954023
 C   -0.1958234474   -1.5591039820   -3.3206312735
 O    0.3751411408   -2.7614664153   -2.8070706150
 H    1.0619085185    1.7726560143   -0.7696243270
 H   -0.6645980427    1.6338322316   -1.1331983569
 H   -0.1350325439    2.0246622396    0.5104753813
 H   -1.3064760833    0.0598285352    1.3697948519
 H    0.8753381298   -0.3760509330    2.1559016687
 H    2.2115767026   -2.0358650285    0.4958618877
 H    0.6469950924   -2.8930883363    0.5643242267
 H    1.6191807304   -0.8319327472   -1.4586455630
 H   -1.1466960087   -2.1865925397   -1.4362747165
 H   -1.1041089889   -1.6839505946   -3.9092313288
 H    0.5163898295   -0.8371248753   -3.7205691478