17

 O    0.0942855326    1.4617886824   -0.0886713977
 C    0.0009160098    0.0837420848   -0.0134679864
 C    0.5308782016   -0.6121864101   -1.2818264686
 O    1.1643781034   -0.0554466491   -2.1322219795
 C    0.7657934907   -0.4493024960    1.2143381277
 O    1.4436038194    0.3390691855    1.8446343608
 C    0.6480610043   -1.8804254363    1.5624666751
 C    1.8921356331   -2.5687710086    2.1225639697
 C    0.7636594514   -2.2562367438    3.0366756917
 H    0.7643413658    1.7118486458    0.5690671300
 H   -1.0506938551   -0.2401441462    0.0916415677
 H    0.2648900742   -1.6919237256   -1.3549060885
 H   -0.0196358898   -2.4741287690    0.9490678375
 H    2.0569215865   -3.5953417466    1.8174220434
 H    2.7786288458   -1.9489086484    2.1864288039
 H    0.8850722990   -1.4246469110    3.7207737275
 H    0.1262031274   -3.0614246077    3.3822496557