14

 C   -0.3228996918    1.4378427319    0.1436976316
 N    0.0269860061    0.0207573282    0.0077448260
 C    0.5074846275   -0.5259019158   -1.2628131752
 C    0.7512823457    0.2979986040   -2.4879919559
 O    1.0979359489    1.4531719961   -2.4971738100
 C    1.4146722083   -0.3849750854   -0.0494305165
 C    2.4966861042    0.5722671569   -0.0391344325
 N    3.3855527449    1.3065012774    0.0462030084
 H    0.3290864819    2.1207297002   -0.4064094184
 H   -1.3501311291    1.5622127603   -0.2082777843
 H   -0.2935385976    1.6787082708    1.2095622163
 H    0.1398762431   -1.5284306866   -1.4739682717
 H    0.5704489702   -0.2575222901   -3.4336577981
 H    1.6494617376   -1.2979425879    0.4937571604