20

 C   -0.2536273544    1.7634517647   -0.2756707956
 C   -0.0700384375    0.2496562372   -0.0882235006
 C   -1.4198010393   -0.4680892725    0.0147109342
 C   -1.4042814431   -1.9461697226    0.4681498080
 O   -2.1571949899   -1.6394423923    1.6589560000
 C   -2.2373757548   -0.2437765209    1.3074931804
 C    0.6944584551   -0.3194491897   -1.2891761860
 N    1.8604312150   -0.9644434979   -0.9963715072
 O    0.2732613551   -0.2171720061   -2.4261675908
 H    0.7090282934    2.2839423815   -0.2738571411
 H   -0.7431482649    1.9602249421   -1.2329251383
 H   -0.8655784857    2.1847194969    0.5278170175
 H    0.4936539818    0.0625012660    0.8358415263
 H   -1.9783112290   -0.2986432634   -0.9076247715
 H   -1.9337687412   -2.6514751066   -0.1834063005
 H   -0.4133755523   -2.3594190121    0.7015442261
 H   -1.7628764064    0.3969559063    2.0635468044
 H   -3.2743346692    0.0857284870    1.1677392336
 H    2.2395995389   -0.9966208152   -0.0669827553
 H    2.4106126584   -1.3262599025   -1.7589091037