14

 O   -0.3388301753    0.0821334202   -0.0903749181
 C   -0.0675098835    1.1703283452    0.3366710069
 C    1.2460782628    1.8886552630    0.0117053967
 C    2.3450433446    0.9733431936   -0.6281423074
 C    2.3018918046    1.8499515764   -1.8834346630
 O    2.9423899106    1.8908228473   -2.8877062420
 C    1.1390925999    2.7072205963   -1.3484960167
 C    1.6779897121    2.6962573011    1.1400097045
 N    1.9999826297    3.3321777847    2.0503516566
 H   -0.7706264191    1.7516198622    0.9667919120
 H    3.3038749473    0.9253633951   -0.1094781307
 H    1.9622170512   -0.0374044526   -0.7994555794
 H    0.1968393932    2.5514045514   -1.8815045277
 H    1.3392614418    3.7775401362   -1.2713628417