18

 C   -0.1481952687   -1.2715462247   -0.1514121942
 C   -0.0037125118   -0.0898217549    0.0281324802
 C    0.0250901108    1.3436383907    0.1150926118
 C    0.3883407240    2.2357520940    1.2659481776
 C    1.4356281109    1.8802372349    2.3263151192
 C    2.5956885469    2.8070202914    1.7997674396
 C    2.5144275540    1.8066819590    0.6037067728
 C    2.2418651122    0.7232629076    1.6829057196
 N    1.2044365014    2.2539795507    0.0209022587
 H   -0.2467139111   -2.3207626540   -0.2821509829
 H   -0.7732598824    1.7677153400   -0.4949646561
 H   -0.2511506161    3.0957800328    1.4545094190
 H    1.1154879126    1.8683815773    3.3672736974
 H    2.3598241991    3.8514148623    1.5825481496
 H    3.5143976536    2.7223500942    2.3834370228
 H    3.2906820438    1.7116216729   -0.1536059023
 H    3.1484745000    0.5121428098    2.2533143059
 H    1.7449700307   -0.2040805140    1.4193776614