15

 C    0.1668858602    1.7249304642    0.1442386290
 C    0.0132696262    0.2086255816    0.0434718310
 C   -1.3753675045   -0.2554297128    0.4270786368
 O   -2.0016635282   -1.0827347991   -0.1863821703
 C    0.5634646578   -0.5144059491   -1.2028397691
 O    1.9480723236   -0.2068888428   -1.2751323033
 C    1.5504569477   -1.3132321480   -0.4346311822
 C    1.0619900646   -0.6702211272    0.8544759826
 O    1.2563627610   -0.8311838383    2.0188119297
 H    1.1683159993    2.0201163864   -0.1744711001
 H   -0.5666267029    2.2432173116   -0.4820003041
 H    0.0245599051    2.0520820704    1.1788896667
 H   -1.7847131107    0.2258389868    1.3414528589
 H    0.0372919159   -0.7933376202   -2.1053763369
 H    2.0031232150   -2.2794074134   -0.6196022788