19

 C    0.0187282350    1.2722488153    0.3355992772
 N   -0.0988960662   -0.1777221065    0.4146091553
 C   -1.1571295089   -0.7196338906   -0.0217481773
 N   -2.3516364093   -0.3146782832   -0.5954223850
 C   -2.9721863746   -1.6535638550   -0.5187028929
 C   -1.6095544497   -2.1891895224    0.0092747851
 O   -0.9840355610   -3.0633924362   -0.8909592797
 C   -1.5205940649   -2.7326687757    1.4339408459
 O   -0.1461582271   -2.8637769861    1.7595144712
 H    1.0759183599    1.5509643087    0.3205744226
 H   -0.4554479697    1.6943989063   -0.5626716615
 H   -0.4329833706    1.7545370311    1.2138794684
 H   -2.8164384797    0.5748997557   -0.4948557490
 H   -3.8034426574   -1.7298556656    0.1910070414
 H   -3.2629898790   -2.0641868750   -1.4882533657
 H   -0.1854303742   -3.3668980730   -0.4359884439
 H   -2.0530559573   -2.0746963985    2.1374059405
 H   -1.9631219807   -3.7330674988    1.4897278740
 H    0.2415402254   -1.9785576203    1.6412944334