21

 C   -0.2677297298    1.5093416427    0.0046656709
 C    0.0943365298    0.0296890140   -0.1495765320
 O    0.9340399655   -0.1912275608   -1.2736706568
 C    0.7491980018   -0.5514121103    1.1045963319
 O    1.9962184543    0.1092051990    1.2670031212
 C    2.7548713064   -0.2767139560    2.3974379591
 C    3.4516014118   -1.6294806704    2.2591755030
 C    3.7505203073    0.8564177270    2.6361137041
 O    4.7633121752    0.7430441289    3.2733527881
 H    0.6190688882    2.0972224038    0.2584829704
 H   -0.6808150518    1.8880138165   -0.9333431739
 H   -1.0113204549    1.6538266142    0.7960910732
 H   -0.8176192436   -0.5478532873   -0.3434838090
 H    1.8096112908    0.1224360448   -1.0170446118
 H    0.1150020877   -0.3955512119    1.9919876398
 H    0.8974976172   -1.6310157863    0.9679826961
 H    2.1005394220   -0.2902908732    3.2896077903
 H    2.7362954640   -2.4549851824    2.2681241810
 H    4.0187763924   -1.6656654704    1.3246076173
 H    4.1473799028   -1.7571214587    3.0917429299
 H    3.4395820029    1.8186922968    2.1733459174