17

 N   -0.0459136313    1.4157581341    0.4264695762
 C    0.0290784163    0.0432226007    0.4062261390
 O    0.9229711568   -0.5892824662    0.9434857567
 N   -0.9564664209   -0.5826662255   -0.3293907135
 C   -2.3637477296   -0.2012948928   -0.5554817680
 C   -2.7379975650   -1.7096071967   -0.5685498629
 C   -1.2698977649   -2.0123486744   -0.1761036965
 C   -0.4686750677   -2.8940550480   -1.1171274814
 O   -0.9633579577   -3.6689878319   -1.8948801293
 H    0.5664990263    1.8723201642    1.0809380682
 H   -0.8894235765    1.8986177134    0.1692091339
 H   -2.8015088363    0.3596542407    0.2803925240
 H   -2.5348815299    0.3510707591   -1.4853293459
 H   -3.4912995744   -2.0095089327    0.1585339682
 H   -2.9980318450   -2.1082824675   -1.5489801356
 H   -1.1110319181   -2.3683862693    0.8514884067
 H    0.6293062278   -2.7550981070   -1.0337391198