18

 C   -0.4819684107    1.4640600185   -0.0375830267
 C    0.0397030992    0.0344454176   -0.0297688730
 C    1.3567011723   -0.2341888865   -0.8217184821
 N    1.9486520856   -0.7676528188    0.4030188708
 C    3.2556149279   -1.0267278106    0.6674961195
 O    4.1255772690   -1.0087314463   -0.1769174074
 C    0.8064904028   -0.4825292263    1.2550606124
 C    1.0208530231    0.5392545954    2.3521922423
 O    2.0697179647    1.0737984034    2.5984313678
 H    0.2937433140    2.1771863891    0.2604338091
 H   -0.8120091871    1.7353207835   -1.0456109687
 H   -1.3372118135    1.5891908443    0.6342896892
 H   -0.7549661361   -0.6604848063   -0.3078364272
 H    1.2874885345   -0.9602362012   -1.6369737351
 H    1.8636444865    0.6650746829   -1.1887532462
 H    3.4300828013   -1.2791064742    1.7300535854
 H    0.3383628648   -1.3659055430    1.7143469233
 H    0.0999198120    0.7625779984    2.9378181364