20

 C   -0.4319869467    1.2888125832   -0.4277365033
 N    0.0315748851   -0.0504948328   -0.1307865177
 C    0.6717207822   -0.6498660390   -1.0301308463
 O    1.1717077355   -1.8875288031   -0.7985414650
 C    1.7196834306   -2.5890965328   -1.9120793080
 C    2.7374494611   -3.5856969318   -1.3697796271
 C    0.6249044670   -3.2810373400   -2.7077203780
 C   -0.6807802388   -3.6023089492   -2.1225885675
 O   -0.5209110532   -2.4980630825   -3.0256575537
 H   -0.1676167247    1.6423087833   -1.4378797726
 H   -1.5223561193    1.3315086696   -0.3251022753
 H   -0.0165300477    1.9934815089    0.3020394925
 H    0.8988131820   -0.2467864850   -2.0269546841
 H    2.2241477200   -1.8717794676   -2.5772979198
 H    3.1943388906   -4.1514207281   -2.1870598074
 H    3.5261861531   -3.0612473281   -0.8256811897
 H    2.2542194621   -4.2890717925   -0.6859327946
 H    0.9955600438   -3.8951628241   -3.5307857035
 H   -1.2534028339   -4.4399567149   -2.5161509429
 H   -0.8803522787   -3.3248936033   -1.0910902362