21

 C   -0.0257947584    1.3454981966   -0.2186673442
 C    0.1607762285   -0.1171452077    0.1114508528
 O   -0.8811725649   -0.8404605399   -0.4822934436
 C    1.5463279885   -0.7216104315    0.1700394884
 C    0.7155821577   -0.6037847314    1.4425256827
 C    1.1728775515    0.3825902014    2.5048231481
 O    2.2989185157   -0.0767787664    3.2504499458
 C    0.1102859058   -1.8627267466    2.0582513505
 O   -0.1103593662   -2.9400593054    1.1461666367
 H    0.8116518943    1.9603210769    0.1154927530
 H   -0.1116213442    1.4516915384   -1.3046335918
 H   -0.9479850261    1.7310706553    0.2279205856
 H   -0.8060760805   -1.7634256707   -0.1967637021
 H    1.6758539961   -1.6990675651   -0.2850859819
 H    2.4156519215   -0.0777643213    0.0800682610
 H    1.4925540130    1.3169592350    2.0387266806
 H    0.3354443940    0.6301237648    3.1757813986
 H    1.9855476706   -0.6550042313    3.9506689631
 H    0.7469036951   -2.2082886955    2.8852888580
 H   -0.8774912852   -1.6328692392    2.4739479982
 H    0.7481423130   -3.2982836664    0.8980614603