20

 C    0.1113195618    1.5607963394   -0.0438950013
 C    0.0009444330    0.0254677390    0.0166430338
 C   -1.4560060954   -0.4772263515    0.0857239327
 C   -2.1679826842   -0.1029991583    1.3790051596
 O   -3.4725208601   -0.6827679148    1.3258490039
 C   -4.2469478198   -0.5089946132    2.4142207122
 N   -5.4229703391   -0.9655947171    2.4317038903
 C    0.6541003412   -0.5582790615   -1.2238495364
 O    1.6180458737   -1.2773669263   -1.2265836780
 H    1.1572688569    1.8741801474   -0.1118983421
 H   -0.4188707476    1.9587339124   -0.9166547800
 H   -0.3158791478    2.0280255157    0.8471687892
 H    0.5659485141   -0.3554095877    0.8748776358
 H   -2.0317167121   -0.0832885026   -0.7605740644
 H   -1.4747647537   -1.5694013022   -0.0011017108
 H   -1.6171622555   -0.4925994806    2.2466988883
 H   -2.2523138462    0.9854009164    1.4903484948
 H   -3.7490732403    0.0413670874    3.2254064063
 H   -5.8645175028   -0.7542485418    3.3240718564
 H    0.1589106637   -0.2566438300   -2.1784876006