20

 C    0.3479280668    1.5157027461    0.5729287402
 C    1.6001622075    1.4468005163   -0.3219109102
 O    2.7479750405    0.9513725076    0.3957099263
 C    2.4549022673   -0.4291820030    0.0270995815
 C    2.2307152737   -1.3690296722    1.2222850832
 C    0.8233654490   -1.9841091489    1.1660416204
 C   -0.2670869536   -0.9026076897    1.1590216256
 N   -0.0143928755    0.1356726140    0.1552556762
 C    1.1731338093    0.0166087573   -0.7114550600
 H    0.5921371162    1.6390222965    1.6362807405
 H   -0.4102281193    2.2571695243    0.2900670162
 H    1.8399483923    2.2652397386   -1.0027564580
 H    3.2393897130   -0.8014693458   -0.6446253699
 H    2.9891740424   -2.1573141323    1.2466084883
 H    2.3501623548   -0.7811229526    2.1391235159
 H    0.7334078751   -2.5991494591    0.2604931793
 H    0.6603318406   -2.6581968373    2.0132345686
 H   -1.2484000237   -1.3685771177    0.9922948191
 H   -0.3109430294   -0.4294151951    2.1502497939
 H    0.9924972030   -0.3596993470   -1.7209007472