18

 C    0.0070046089    1.5191185589    0.0184535183
 C    0.0035109747    0.0230418769    0.0141123350
 C   -0.0360573766   -0.8279389952   -1.0430728603
 O   -0.0383642727   -2.1062782735   -0.6359413827
 N   -0.0016727296   -2.1285793223    0.7532598889
 C    0.0235999669   -0.8722403403    1.1347241307
 C    0.1004796289   -0.5343692146    2.5918390308
 C    1.5419658643   -0.2504393058    3.0537892378
 O    1.6030771850    0.1431012390    4.4117483098
 H    0.9294520246    1.9245956163    0.4486938190
 H   -0.0846145179    1.9139113453   -0.9967196061
 H   -0.8255905674    1.9206844998    0.6067521288
 H   -0.0706091276   -0.6736109948   -2.1110225859
 H   -0.5141036110    0.3451640267    2.8117236234
 H   -0.3030623655   -1.3740883978    3.1678709492
 H    2.1680024565   -1.1319859725    2.8519173115
 H    1.9632685391    0.5837708871    2.4829098898
 H    1.3465299295   -0.6121310933    4.9506888020