21

 C   -0.1252912902    1.5757471053    0.1365684973
 C   -0.0088873842    0.0843200365   -0.0011437906
 C   -1.2224427237   -0.8633702411   -0.0298410288
 C   -0.4435576761   -1.8470681237    0.9064166731
 O   -0.1685045172   -3.1701614159    0.4601142670
 C    0.7620204190   -0.9276660413    0.8744327897
 C    1.2140159857   -0.6119018690   -0.5357215160
 C    1.2709473101   -1.6154502578   -1.6808754894
 O    2.0200400872   -2.7721843516   -1.3646594185
 H    0.8447503593    2.0294382586    0.3638808851
 H   -0.4932185449    2.0318318002   -0.7907821817
 H   -0.8217597313    1.8510261675    0.9373648538
 H   -2.0996935371   -0.4374259247    0.4645608991
 H   -1.5266678272   -1.2551559403   -1.0051165742
 H   -0.8999216521   -1.8809243194    1.9034175841
 H   -0.9930860947   -3.6645076488    0.4131640581
 H    1.4148162056   -0.7444355550    1.7199723189
 H    2.0888088931    0.0355877332   -0.5008050815
 H    0.2588221485   -1.8814968802   -2.0154952297
 H    1.7718899134   -1.1473230802   -2.5356327193
 H    1.5044265468   -3.2263570423   -0.6836429765