17

 C   -0.3933179878    1.5434064077   -0.0641312067
 C    0.0635027886    0.0926077189   -0.0741302033
 N    1.1534772724   -0.1685793563   -1.0043831678
 C    1.9494938593   -1.2196425139   -0.5746018306
 O    2.8103744645   -1.7899133421   -1.2021843698
 N    1.5536285475   -1.5027277044    0.7360575893
 C    0.6969528436   -0.4357851811    1.2564909749
 C    1.4388579359    0.5711415699    2.0205934752
 C    2.0584067383    1.3630335855    2.6793998156
 H    0.4412151202    2.2119810876    0.1566355938
 H   -0.8125594313    1.8146068713   -1.0382610562
 H   -1.1740172659    1.6952832811    0.6878398630
 H   -0.7984153575   -0.5584566368   -0.2886602470
 H    1.0178111683   -0.0744951838   -1.9986750503
 H    2.2658846204   -1.8938004745    1.3347270440
 H   -0.0913686680   -0.8503256039    1.8938528102
 H    2.6102439815    2.0658117147    3.2540748057