20

 C   -0.0903201040    1.5392766072    0.0805609337
 C    0.0397025920    0.0161029486   -0.0689617577
 C    0.6111792344   -0.3511126340   -1.4458264379
 C    0.8566879345   -0.5615010246    1.0918177403
 C    0.9061608821   -2.1019877443    1.2089223547
 N    2.2658100193   -2.2804148176    1.6782932638
 C    3.0572299520   -1.1966543746    1.3599174619
 O    4.2525278079   -1.1145235099    1.4049668526
 O    2.2389159412   -0.1687687128    0.9796595655
 H    0.8939528400    2.0152625113    0.0338908389
 H   -0.7079436475    1.9573177308   -0.7198965389
 H   -0.5501696658    1.8094062949    1.0370223617
 H   -0.9634943032   -0.4253682469    0.0251710026
 H    1.6210429837    0.0514777188   -1.5629550325
 H    0.6584406439   -1.4325713330   -1.6064271301
 H   -0.0165757538    0.0690843736   -2.2370780608
 H    0.4797783611   -0.1446373707    2.0351024949
 H    0.1681446838   -2.4705017534    1.9271668016
 H    0.7263932658   -2.5960533741    0.2449255046
 H    2.7132593828   -3.1819950293    1.7037710312