16

 O    0.3318490527    1.1197055335   -0.5403011610
 C    0.0529359164   -0.0616380345    0.1809536296
 C   -1.4193429588   -0.3560114924    0.2021678334
 N   -2.0495110463   -0.9137070702    1.2418815056
 N   -3.2969694607   -1.0083052552    0.7212693672
 C   -4.7459384432   -1.2403383180    0.8914873374
 C   -4.8758101156   -0.6875527859   -0.5915209871
 C   -3.3658955360   -0.5027583804   -0.5020341762
 N   -2.1892946759   -0.0669635617   -0.9093247685
 H   -0.2876075713    1.1340072126   -1.2809714629
 H    0.5850405590   -0.9266933100   -0.2506861848
 H    0.4161262893    0.0645008036    1.2049125509
 H   -5.0128786742   -2.2882169052    1.0422554313
 H   -5.2027680540   -0.6135457713    1.6600367062
 H   -5.2274440314   -1.4166832473   -1.3235915019
 H   -5.4572690401    0.2320060623   -0.6790920292