22

 C    0.3783784652    1.5830398455   -0.2624197220
 C    0.0866883182    0.1231698754    0.0104668967
 C    1.2003850739   -0.8915930534    0.1193235238
 C    0.3731183970   -0.5505203637    1.3359848310
 C    0.9966579136    0.1837943657    2.5145441053
 C    1.7888532794   -0.7341756759    3.4125965562
 C    1.0927140971   -1.8419249948    4.1572868564
 N    3.0458839182   -0.5091965023    3.4770074846
 O    3.6985776400   -1.4327414014    4.3162852269
 H    1.3210753150    1.9053901468    0.1882140625
 H    0.4572730450    1.7630027633   -1.3402834502
 H   -0.4157251831    2.2320601785    0.1242343823
 H   -0.8154158931   -0.2333901969   -0.4814131646
 H    1.0797220422   -1.8642901382   -0.3452032879
 H    2.2192194788   -0.5156235587    0.1006306103
 H   -0.3568839514   -1.3012957620    1.6288490838
 H    1.6671234616    0.9735072110    2.1690474960
 H    0.2024650426    0.6626121918    3.1052819948
 H    1.3129281664   -2.8129409811    3.6993082755
 H    1.4542185297   -1.8920552150    5.1875518912
 H    0.0095342300   -1.7008459793    4.1574166634
 H    4.6074207138   -1.1164364351    4.2907321040