16

 C    0.0349119497    1.5160998853    0.0126819288
 C   -0.0703082791    0.0335831491    0.0188158803
 C   -1.1148516855   -0.8258413559   -0.1295722659
 C   -0.5651739269   -2.1480064227   -0.0247887196
 N   -1.3065255184   -3.3309296409   -0.1214683378
 C   -0.7918205298   -4.5906927687   -0.0229495750
 O    0.3773390034   -4.8505991335    0.1615793883
 C    0.7739753618   -1.9983747165    0.1797842084
 O    1.0785603573   -0.6660410732    0.2067837820
 H    0.7015765259    1.8666618910   -0.7831880766
 H   -0.9505044070    1.9594242448   -0.1458853501
 H    0.4326679982    1.8929849755    0.9616226392
 H   -2.1477936276   -0.5584556591   -0.2931272096
 H   -2.2983920667   -3.2427068799   -0.2760229765
 H   -1.5789824531   -5.3609289754   -0.1329222691
 H    1.5799709778   -2.6932096700    0.3147226332