20

 C   -0.0898298626    1.5687401845    0.0578064969
 C   -0.0471331530    0.0461502817   -0.0049391970
 O   -1.3777403652   -0.4867520681    0.0248836803
 C   -1.9207021674   -0.7346148871    1.2306755866
 N   -3.1259603401   -1.0980847134    1.3231922784
 C    0.6449664125   -0.5050568026   -1.2729057533
 C    0.7036079731   -2.0449427503   -1.2601945756
 C    0.0249540760   -0.0096008924   -2.5010200851
 C   -0.4742771293    0.3800815786   -3.5223665069
 H    0.9232624431    1.9824422785    0.0284652896
 H   -0.6550529200    1.9650589330   -0.7888378947
 H   -0.5674561266    1.9014142634    0.9840433164
 H    0.5092327790   -0.3469563996    0.8586547752
 H   -1.2154329250   -0.6014649517    2.0643581836
 H   -3.3621622936   -1.2652274523    2.2990402614
 H    1.6741944820   -0.1211253851   -1.2355191797
 H    1.2411467252   -2.4137855901   -2.1366679318
 H    1.2220199455   -2.3988322892   -0.3627992851
 H   -0.3046806671   -2.4629531693   -1.2692174067
 H   -0.9226231465    0.7242950715   -4.4213441326