16

 O   -0.4124289375    1.4097119548   -0.3702744515
 C    0.0526904614    0.1097480608   -0.0203781103
 C   -1.1804455128   -0.8199210484    0.1480114771
 C   -1.3700284080   -1.5645277119   -1.2047965721
 N   -0.0404682968   -1.4320717048   -1.7744063781
 N    0.5488506417   -1.9459703959   -2.8699545801
 C    1.7249649485   -1.3195517710   -2.8440074487
 N    1.9107401273   -0.4420953628   -1.8133933912
 C    0.7631588750   -0.5484578915   -1.1658581336
 H    0.3432493186    1.9132109961   -0.6935548573
 H    0.6598140325    0.1486837631    0.8921872414
 H   -0.9823285694   -1.5453814264    0.9407474462
 H   -2.0564003725   -0.2336030582    0.4276693467
 H   -1.6438499028   -2.6144105838   -1.0815007051
 H   -2.1085850096   -1.0843808920   -1.8539042463
 H    2.4777964044   -1.5105742183   -3.5944862169