18

 C    0.2588852901    1.5724812545    0.0413937822
 C    0.0205944121    0.0447233156   -0.0188104891
 C    0.5882045239   -0.5082147909   -1.2435004973
 C    1.0935424943   -0.9566960494   -2.2465014444
 C    1.6598514745   -1.4740733184   -3.4660875398
 O    2.6278045266   -2.1977252596   -3.5172686385
 C    0.5588619971   -0.6398895032    1.2405721417
 C    0.9453752119   -2.0686682137    1.2695851878
 N    1.9708012359   -1.0120365254    1.3750282272
 H    1.3284020499    1.7944346667    0.0824969024
 H   -0.1664023703    2.0703603678   -0.8331950096
 H   -0.2122360286    1.9820797883    0.9393866971
 H   -1.0657972225   -0.1240799859   -0.0485969836
 H    1.1289250175   -1.1513498675   -4.3845715732
 H    0.1405435296   -0.2031483148    2.1461146871
 H    0.7917879138   -2.6531823397    2.1719881782
 H    0.8839170145   -2.6303709090    0.3417142072
 H    2.4373568998   -0.9179775056    0.4738257746