16

 N   -0.2448716357   -1.1753728458   -0.3289866254
 C   -0.1288130788   -0.0375011452   -0.1570671909
 C    0.0536497519    1.3995394917    0.0476465755
 C   -0.1505755739    1.8666218586    1.5253730034
 C    1.3730039988    1.9998427313    1.5798963534
 C    2.2212946267    2.9079785140    2.4045858229
 C    2.3042304025    1.3992193447    2.5875835154
 N    1.4727641557    1.8486064963    0.1179903844
 H   -0.5280792699    1.9371457738   -0.7072170011
 H   -0.6870567022    2.8151513312    1.5889798277
 H   -0.6063357976    1.1370539235    2.1944071483
 H    3.0503030066    3.4026022331    1.9090995836
 H    1.7455335428    3.4967236845    3.1825304313
 H    1.8844211665    0.9597451017    3.4870125113
 H    3.1938998585    0.8961542442    2.2206874770
 H    2.1433508280    1.1557176524   -0.2007450569