14

 O   -0.0475488680    1.3275011797    0.1057790236
 C    0.0693258056   -0.0323444409    0.0757104441
 C    0.7933546921   -0.9848965121    1.0567841032
 C    0.1017823259   -1.9453640313    0.0628397010
 C    0.1045809925   -3.3763467716    0.0436229524
 N    0.1135455459   -4.5329843864    0.0340877146
 C   -1.1423490507   -0.9941804014   -0.1170230508
 O   -1.0826523188   -0.9978058575   -1.5644647923
 C    0.3100642401   -0.9854132581   -1.1655277797
 H    0.8298711928    1.7252801632    0.0781245646
 H    1.8860466152   -0.9848186762    1.0363830949
 H    0.4190133220   -1.0074985207    2.0825113783
 H   -2.1082950186   -1.0327905435    0.3835622628
 H    1.0873144138   -1.0127893533   -1.9279649668