17

 N   -0.2258662223    1.1701323106   -0.0879709741
 C   -0.0445464282   -0.0662174200    0.0135719714
 N    1.1599243495   -0.8852182151   -0.0780745877
 C    1.1707304797   -1.6996468652    1.1711887443
 C    0.2552276616   -2.1151437149    0.0993708047
 C   -1.0088296180   -1.2525561801    0.1114754883
 C   -2.1737235844   -1.3541673322    1.1141886212
 C   -3.0563970701   -1.4439928852   -0.1451856502
 O   -1.8911074299   -1.4211345810   -1.0045381618
 H    0.6641701492    1.6560917696   -0.2305100896
 H    2.0974952710   -2.2500917560    1.2973464840
 H    0.7778806010   -1.2579298820    2.0842124140
 H    0.3909535876   -2.9957013464   -0.5161643179
 H   -2.1548705456   -2.2494607643    1.7381399149
 H   -2.3194815469   -0.4708559440    1.7364035158
 H   -3.6340136574   -2.3656019806   -0.2747536558
 H   -3.7047845166   -0.5799136632   -0.3241435516