20

 C    0.0645728796    1.3512954567   -0.2830445687
 C    0.0658510477   -0.1318101086    0.1153375932
 C    0.6964054780   -0.3452213318    1.4988938203
 C   -1.3477555643   -0.6874281733    0.0791540537
 C   -2.0501742612   -1.2272969953   -1.1314361748
 N   -1.1641327906   -1.9875589185   -2.0187021716
 C   -0.7626809170   -2.8508817722   -0.9791438466
 O    0.0363490792   -3.7429790340   -0.9501597394
 C   -1.7075851810   -2.1788852482    0.0084219758
 H    1.0817403688    1.7554810169   -0.2899644635
 H   -0.3652516114    1.4976944369   -1.2793785647
 H   -0.5242934114    1.9475194891    0.4241798350
 H    0.6728788031   -0.6793622814   -0.6157548417
 H    0.1258432543    0.1767849820    2.2763707684
 H    0.7264628550   -1.4076739457    1.7574846689
 H    1.7208157055    0.0395007432    1.5243299044
 H   -2.0286032176   -0.1611047864    0.7506478239
 H   -3.0310349139   -0.9235885245   -1.4735323008
 H   -0.5101957670   -1.5664949816   -2.6691317571
 H   -2.3544553359   -2.6612492834    0.7272003853