19

 C   -0.0152874420    1.7631683786    0.0005637393
 C    1.4786080735    1.5251627613    0.0804969843
 C    1.0890264641    0.2888894865    1.0276758699
 C   -0.0639538261    0.1850188970   -0.0636452235
 C   -1.3798016609   -0.1736968643   -0.7490403145
 O   -1.1002850483    0.4964378653   -2.0361251669
 C    0.3034633853    0.3909734837   -2.2760394974
 C    1.6404992851    0.9141562646   -1.3505334487
 C    0.9005492956   -0.3474499266   -1.2015196746
 H   -0.4673757199    2.0728089964    0.9480847728
 H   -0.4051912166    2.3536059521   -0.8240983002
 H    2.1868411444    2.2877181882    0.4075958164
 H    1.7726022044   -0.5596148723    1.1036290333
 H    0.7782302615    0.6237936656    2.0192614424
 H   -1.5593821379   -1.2405184068   -0.9245046371
 H   -2.2718144139    0.2989566198   -0.3344877755
 H    0.5270943445    0.2964342240   -3.3328853527
 H    2.5581344975    0.9982664354   -1.9261439477
 H    1.2486103898   -1.3758074386   -1.1335770493