20

 C    0.3162110821    1.2985823858    0.1844076575
 C   -0.2715713612   -0.0352512842   -0.3141460518
 C   -1.7602265388   -0.0971102643   -0.1531852396
 C   -2.6208560523   -0.4392413643   -1.1482241453
 C   -2.4094574606   -1.8795291505   -1.6448308475
 N   -3.4499086191   -2.2868129472   -0.5963255005
 C   -3.4948464747   -1.4145704539    0.6944805189
 C   -2.3870826152   -0.4673381749    1.1874253200
 C   -3.9726255093   -0.8932137384   -0.5868915591
 H    1.4034065115    1.3153688376    0.0609119172
 H   -0.1054351782    2.1406057029   -0.3726909686
 H    0.0956836747    1.4560509238    1.2453603329
 H   -0.0132864259   -0.1703540155   -1.3704695005
 H    0.2027036889   -0.8559739897    0.2454453775
 H   -2.8413382879   -2.1524181446   -2.6126107238
 H   -1.4100839180   -2.3128344524   -1.5400692895
 H   -4.1578297849   -1.9030818069    1.4027513493
 H   -1.6202043640   -0.9341257031    1.8171423850
 H   -2.8495843184    0.3267679393    1.7912020332
 H   -4.9745547986   -0.6325431494   -0.9096773951