19

 C   -0.0596347241    1.4442068878   -0.0545605576
 N    0.0183054341   -0.0050625399   -0.0525878054
 C   -1.0441011064   -0.6892287303   -0.0283206939
 O   -2.3283650622   -0.1526385516   -0.0054484618
 C   -3.2926453747   -1.2029735841    0.0413080183
 C   -4.2680891874   -1.0583367175   -1.1263965559
 C   -2.4648152005   -2.4714811026    0.0239248094
 N   -3.0716024779   -3.6986479997    0.1336998604
 C   -1.1629160008   -2.1394771316   -0.0215727143
 H    0.6679778881    1.8430550617    0.6616091672
 H    0.2299844528    1.8291069782   -1.0415376868
 H   -1.0497279688    1.8466647915    0.1901689090
 H   -3.8442018842   -1.1262157379    0.9903991997
 H   -3.7407083489   -1.1589152767   -2.0790483070
 H   -5.0597476377   -1.8143648951   -1.0771778907
 H   -4.7438350619   -0.0751233570   -1.0915754650
 H   -4.0092511395   -3.7739593198   -0.2303351823
 H   -2.5010814009   -4.5013232500   -0.0856057402
 H   -0.3044367592   -2.7933278254   -0.0415798731