14

 N    0.1181986590    1.3861086182    0.1443844903
 C   -0.0472419217   -0.0042921206    0.0502168609
 C   -1.1521214053   -0.8196347674    0.0475367617
 C   -0.6538026692   -2.1527920627    0.0125562344
 C    0.7222662054   -2.1273556266   -0.0151362054
 N    1.0759592767   -0.8110605728    0.0157856103
 N   -1.4389083307   -3.3482958537   -0.0081548317
 O   -2.6605943542   -3.2230405758    0.0328604530
 O   -0.8442995099   -4.4237984507   -0.0657677744
 H    0.4172943712    1.8080036498   -0.7298945029
 H   -0.7422673625    1.8346534569    0.4322391977
 H   -2.1880599580   -0.5268059551    0.0511509187
 H    1.4361569494   -2.9307866000   -0.0525865350
 H    2.0164536497   -0.4589943294    0.0843289325