16

 C   -0.0391196905    1.3085268279    0.5461505086
 O   -0.0565539844   -0.0943075755    0.4124815864
 C   -1.1383940971   -0.5371911311   -0.3826489117
 C   -1.1176626592   -1.9895085076   -0.4942305801
 C   -1.1058739788   -3.1870172307   -0.6121608325
 C   -1.1325788996   -4.6383214995   -0.7074751293
 C   -2.1542114521   -5.2684476852    0.2428063235
 O   -2.8227972759   -6.2246159219   -0.0392821713
 H    0.8188593150    1.5619306852    1.1723802976
 H    0.0689369561    1.8116701839   -0.4280097485
 H   -0.9559618320    1.6856307428    1.0268140410
 H   -2.0979105415   -0.2104915813    0.0557607299
 H   -1.0874000979   -0.0874212061   -1.3900118968
 H   -1.3458801406   -4.9878706703   -1.7229033380
 H   -0.1489087154   -5.0475776269   -0.4297037874
 H   -2.2195963860   -4.7722632036    1.2352529186