13

 C    0.2648876603    1.3329805691    0.3817829885
 C   -0.0001961148   -0.1176774489   -0.0628485057
 O   -1.3677606776   -0.4249615396    0.0135822301
 C    0.5022598938   -0.3535633144   -1.4749396993
 O   -0.2527286007   -0.6192035426   -2.3858009482
 C    2.0024988037   -0.2846696549   -1.7736611131
 O    2.8440380846   -0.1036416596   -0.9342040440
 H    1.3356688043    1.5420040442    0.4283911221
 H   -0.2174274143    2.0376651029   -0.3024112744
 H   -0.1693094488    1.4709036082    1.3745412988
 H    0.5703690883   -0.7885387282    0.5987947226
 H   -1.6602207112   -0.6023803447   -0.8928153444
 H    2.2300129426   -0.4433732815   -2.8482858530