17

 O    0.5730546249    1.3026983883   -0.6282730263
 C    0.1544307210    0.0708975154   -0.1431411109
 C    0.3126020723   -1.0667545091   -1.1621870217
 O   -1.0395287637   -1.5315305916   -0.9267038321
 C   -1.3127310099   -0.4682396728   -0.0046195955
 C   -1.0162157004   -0.8923409938    1.4755255702
 C    0.4421187414   -0.3150989636    1.3287686800
 C   -1.8323829449   -0.2522662436    2.4849942115
 C   -2.5122775809    0.3185829485    3.2970529879
 H    0.4431897224    1.9675224794    0.0563107428
 H    0.4387494559   -0.6982520782   -2.1865092391
 H    1.0656341958   -1.8337224235   -0.9464251972
 H   -2.2409393829    0.0676566184   -0.2121002145
 H   -1.0491796711   -1.9804810526    1.5736096749
 H    1.2632065809   -1.0150737019    1.5010821220
 H    0.5904425260    0.5626509842    1.9634633581
 H   -3.1172156767    0.8013619865    4.0240125998