14

 C   -0.0312710788    1.5163197157    0.1276873519
 C    0.1524197825    0.0061583573    0.0012596056
 C    0.5932719685   -0.4267633148   -1.3839879593
 O    0.7892072321    0.3358754821   -2.3037651053
 C    0.7780631807   -1.8621050905   -1.5590209535
 C    0.9442941209   -3.0521028185   -1.7050084168
 C    1.1119881680   -4.4731432629   -1.8981266066
 O    2.1116495886   -5.0812572006   -1.5989479610
 H    0.9014844496    2.0429791753   -0.0880312406
 H   -0.7829086619    1.8797140438   -0.5773494628
 H   -0.3504825826    1.7757182439    1.1403574310
 H    0.8949564560   -0.3741658789    0.7161345303
 H   -0.7728068639   -0.5369780710    0.2383826478
 H    0.2321519302   -4.9723951308   -2.3505292807