15

 O    0.0101914913   -0.0261968074    0.2994126664
 C   -0.0162424106    1.0966079904   -0.0959928721
 O   -1.0511192909    1.9359533873    0.1532442595
 C   -1.2926559206    2.9600536786   -0.8255217275
 C   -0.0661612486    3.8241856383   -1.0232635869
 C   -0.0936642938    4.9824040031   -1.9210567037
 O   -0.0938839501    5.1488736950   -0.4971117428
 C    1.2010650549    3.0470003068   -0.7099783358
 O    0.9867793061    1.6331776306   -0.8374287660
 H   -1.5899393836    2.4849877404   -1.7678279965
 H   -2.1234563983    3.5558539213   -0.4451483973
 H    0.8185268549    5.2888845584   -2.4310186972
 H   -1.0200055979    5.2615255988   -2.4226315276
 H    2.0217432218    3.2833762525   -1.3883261763
 H    1.5132331654    3.2812596459    0.3142359437