15

 C   -0.2404785408    1.4109613445    0.1276546528
 C    0.0629261237   -0.0917165740   -0.0467294754
 C    0.8332440025   -0.3881802688   -1.3339007313
 O    0.0027736652    0.0122568033   -2.4109070310
 C    0.8099547718   -0.6289330968    1.1529795301
 O    1.9217732984   -1.0954374249    1.1349610385
 C    0.0707403458   -0.5483925003    2.4369471704
 N   -0.5131219841   -0.4936101994    3.4335536472
 H    0.6870510868    1.9865309567    0.2123751750
 H   -0.7851685160    1.7617753248   -0.7499516308
 H   -0.8467271643    1.5979622275    1.0176224198
 H   -0.8985568476   -0.6238550081   -0.0884351655
 H    1.7862680793    0.1608702843   -1.3253277956
 H    1.0743363878   -1.4592324252   -1.3822842424
 H    0.4833445114   -0.1292992136   -3.2314043820