19

 O   -0.0321632955    1.4342350594    0.0024593174
 C    0.0198581064    0.0367201058    0.0061224237
 C    0.4637976035   -0.6665135348   -1.3113326314
 C   -0.8307971066   -1.5437212928   -1.2945831200
 C   -0.6574977674   -2.9858234370   -0.8377721987
 O   -0.2941966344   -2.9276642129    0.5405948160
 C   -0.7159151443   -1.6931278001    1.1105547699
 C    0.4533993800   -0.6842677801    1.3068361084
 C   -1.3030321883   -0.7978455717   -0.0191195256
 H    0.8714428180    1.7694160744    0.0263176461
 H    0.4621594573    0.0461999564   -2.1392694857
 H    1.4186279762   -1.2013478619   -1.2940646716
 H   -1.4528451853   -1.4535247437   -2.1859339986
 H   -1.5972824861   -3.5471995363   -0.9643472376
 H    0.1337613087   -3.5222333912   -1.3738617212
 H   -1.3353128132   -1.8898297985    1.9894806717
 H    1.4562135193   -1.1159257490    1.3669476468
 H    0.2731337568   -0.0307478946    2.1654373133
 H   -2.3037128350   -0.3814193516    0.0716378071