15

 C   -0.0012281816    1.3796912304    0.0760785022
 O    0.0186898937   -0.0372568755    0.0313790843
 C    0.6121749795   -0.5662337139   -1.0591231560
 C    1.2062841202    0.0006729821   -2.1445044291
 O    1.6524487164   -0.9733421924   -2.9676064979
 N    1.3480274520   -2.2091778325   -2.4168500985
 C    0.7307036863   -1.9730872946   -1.2843372371
 C    0.2474541140   -3.0784804019   -0.4051859926
 H    1.0184507483    1.7877327748    0.0761253951
 H   -0.5509605300    1.7926898471   -0.7803499016
 H   -0.5055766698    1.6591770717    1.0018659300
 H    1.3838351569    1.0133739789   -2.4640420684
 H    0.7108358780   -3.0179423898    0.5848146738
 H   -0.8357284059   -3.0138541560   -0.2601349322
 H    0.4895570118   -4.0437789884   -0.8530509520