23

 C   -0.0219280594    1.6102474175   -0.0535004972
 C    0.0386874524    0.0816164994    0.0136783756
 C    0.7331025956   -0.5356679423   -1.1952701854
 O    2.1010961358   -0.1129612487   -1.1726316905
 C    2.7986567484   -0.5523693670   -2.3064306229
 O    2.8312373447   -1.9498462994   -2.4180684648
 C    1.5138156128   -2.4786323741   -2.5117129460
 C    0.6738229460   -2.0770690816   -1.2870851569
 C    1.1661956892   -2.7854641848   -0.0185740470
 H    0.9838364927    2.0300589630   -0.1351526339
 H   -0.5981357772    1.9460384875   -0.9231395873
 H   -0.4956514476    2.0256281959    0.8408731547
 H    0.5680494871   -0.2282981416    0.9209470858
 H   -0.9738843060   -0.3362639147    0.0774298231
 H    0.2649979286   -0.1311647611   -2.1124899538
 H    2.3406531310   -0.1171297201   -3.2168338965
 H    3.8314409612   -0.2130983156   -2.2028213343
 H    1.0321913413   -2.1142508645   -3.4353667730
 H    1.6208364826   -3.5643617697   -2.5883424813
 H   -0.3679910569   -2.3637381638   -1.4844986849
 H    2.1855509096   -2.4758706072    0.2238643006
 H    0.5266893569   -2.5676231973    0.8409551791
 H    1.1675607013   -3.8709272001   -0.1624875733