19

 C   -0.3633740268    1.4995057658   -0.0755369561
 C    0.1119552683    0.0502810017    0.1063817100
 C    0.8482186970   -0.4725804645   -1.0902113897
 N    0.1415990332   -0.8770862509   -2.3571478671
 C    1.0244693284   -1.8458529488   -1.6782384187
 C    2.4520350264   -1.5223228262   -2.1594367783
 C    2.2443438631   -0.1457163281   -1.5253606387
 N    2.9669512291    0.8513311798   -1.2338261487
 O    4.2692536825    0.7018075285   -1.7495373504
 H    0.4884265602    2.1606837873   -0.2564352367
 H   -1.0438756002    1.5872458514   -0.9282716841
 H   -0.8887324779    1.8508480024    0.8174572240
 H    0.7726090685   -0.0118065506    0.9794140195
 H   -0.7433954888   -0.6068010452    0.3121799397
 H   -0.8157031917   -1.0965649145   -2.0750920102
 H    0.6515785616   -2.7941924402   -1.3124675696
 H    3.2415408604   -2.0823215089   -1.6507817368
 H    2.6080885370   -1.5537674183   -3.2399132012
 H    4.6975985296    1.5123304994   -1.4543902268