17

 O   -0.6119243915    0.8118336049   -0.7494077064
 C    0.0578497192    1.0756110358    0.2165699480
 C    1.3189560175    1.9255667275    0.1502850315
 C    1.4919116888    2.6227602799   -1.2031912790
 C    2.7224164464    3.5347841863   -1.2193277974
 C    2.7807430801    4.4182586959   -0.0064208439
 C    2.1461361284    4.1383998402    1.1400869377
 C    1.3881990441    2.8907242080    1.3469232342
 O    0.8880886690    2.6102647889    2.4188599251
 H   -0.2014251825    0.7143374267    1.2297720961
 H    2.1538975166    1.2224635889    0.3194910912
 H    1.5416000462    1.8776135618   -2.0007403136
 H    0.5965750737    3.2228478316   -1.4005234206
 H    3.6473600321    2.9387427580   -1.2659271389
 H    2.7288473385    4.1506842648   -2.1257292348
 H    3.3818886617    5.3223926908   -0.0760855242
 H    2.2016457818    4.7930608598    2.0041729349