23

 C   -0.0836119045    1.5636262244   -0.0663927303
 C    0.0861930395    0.0476786983    0.0069230815
 C    0.9568187772   -0.5571537327   -1.1051745869
 O    1.3106606748   -1.8581418329   -0.6518735253
 C    1.4775438162   -1.8048619470    0.7555270996
 C    2.8394975408   -1.2445605703    1.2491743665
 C    2.1457678314    0.0824924493    1.6632433850
 C    0.7490005048   -0.5197910580    1.2815164430
 C   -0.2084594938   -0.6929223425    2.4511429971
 H    0.8782086670    2.0848078216   -0.0266682873
 H   -0.5776289899    1.8565636295   -0.9989775216
 H   -0.6985475051    1.9349343354    0.7598246047
 H   -0.9058667690   -0.4181192516   -0.0674742214
 H    0.4365049891   -0.6646109005   -2.0613470008
 H    1.8538593909    0.0622955369   -1.2763378977
 H    1.1785803914   -2.7760183293    1.1598498733
 H    3.2659610739   -1.8061144978    2.0841833367
 H    3.5940861391   -1.1685901083    0.4625902661
 H    2.2406094977    0.3470279492    2.7193567198
 H    2.4489412697    0.9511391025    1.0737782728
 H   -0.5959770825    0.2737495888    2.7945329861
 H   -1.0648620842   -1.3173926650    2.1722853400
 H    0.2874080957   -1.1662866499    3.3058027190