14

 O   -0.0062342409    0.0364599338    0.2560257769
 C    0.0262649936    1.2040756149    0.0071880217
 O   -1.1010563489    1.9310129479   -0.2619859144
 C   -0.7903817701    3.2512962167   -0.7732719348
 C   -1.6138572595    4.2613930501   -0.1264873790
 C   -2.2879401875    5.1224677908    0.3681735012
 C    0.7135326979    3.4232014465   -0.5600290812
 N    1.0790639590    3.2592576821    0.8459363897
 C    1.2178071821    2.1141834482   -0.0964808280
 H   -1.0043085893    3.2349250483   -1.8497213821
 H   -2.8844310527    5.8760055289    0.8209113207
 H    1.2693946269    4.0839090159   -1.2141024398
 H    2.0025770343    3.6572469926    1.0043614292
 H    2.1883604350    1.6970616433   -0.3296873801