21

 C   -0.2408632814    1.5416993410   -0.2087155296
 C   -0.1345544602    0.0183641384   -0.0950283786
 C    0.8706352425   -0.5727683127   -1.0923104851
 C    0.9051015368   -2.1044228819   -1.1104305899
 C    1.3847774161   -2.7479361511    0.1847236055
 O   -0.3801819372   -2.6622849580   -1.5435276624
 C    0.1459816756   -3.2149467418   -2.7635255804
 C    1.5353893047   -2.6897807372   -2.3890449238
 O    2.6288964859   -2.7165676422   -2.8656011169
 H    0.7240226024    2.0239455640   -0.0159709315
 H   -0.5656504542    1.8424731887   -1.2108961291
 H   -0.9627403547    1.9424777842    0.5094545032
 H    0.1526319822   -0.2485723590    0.9286581486
 H   -1.1136365233   -0.4395196250   -0.2747368005
 H    0.6180939444   -0.2210347879   -2.1008559902
 H    1.8839976605   -0.2082652100   -0.8814817604
 H    0.7066582925   -2.5064617684    1.0074699379
 H    1.4226379280   -3.8362257044    0.0865093181
 H    2.3862455135   -2.3874728464    0.4384702192
 H    0.0560116477   -4.3074834681   -2.8178742009
 H   -0.2942685318   -2.7730423421   -3.6668005230