17

 N   -0.1115100310    1.4314114007    0.0656989215
 C   -0.1033721908   -0.0088485982    0.0230703064
 C    0.9450197529   -0.6164589987   -0.7727954350
 N    1.7991713699   -1.0214532837   -1.4411128443
 C   -0.5077124832   -0.8239166829    1.2550752269
 C   -1.5684106404   -0.0514848366    2.0501313347
 C   -2.4976895391   -0.0574078187    0.7934073230
 C   -1.4038457006   -0.8181915491    0.0334271779
 O   -1.6204847411   -1.8569415523   -0.8420789028
 H    0.7449842847    1.7809042955    0.4853005475
 H   -0.1667217386    1.8207489915   -0.8704306799
 H    0.1516874362   -1.5972739932    1.6284681169
 H   -1.9721878378   -0.6446017901    2.8724862728
 H   -1.2676046471    0.9303710003    2.4173023652
 H   -3.3790210790   -0.6866598574    0.9314938125
 H   -2.7915817130    0.9139067087    0.3910137759
 H   -1.6787187021   -1.5150889958   -1.7416426093