19

 C   -0.0554367425    1.5660952290    0.0005707040
 C    1.4901561451    1.5549414453   -0.0182923692
 C    2.1131181578    0.8828454179    1.2678391474
 C    1.0086117638    0.4761038856    2.2521285462
 C    0.3555121414   -0.6135709404    1.3768179210
 O    1.4877349504   -1.4580060388    1.1080285265
 C    2.3041712296   -0.4823233092    0.4766897964
 C    1.4508188675    0.1274920100   -0.6460392007
 C    0.0103798685    0.0114791626   -0.0170974284
 H   -0.5962074870    2.0663414693    0.8095980436
 H   -0.4361158672    1.9449672029   -0.9526875356
 H    2.0412097048    2.3952313792   -0.4408313987
 H    2.9865362627    1.3660868325    1.7032650015
 H    1.4160546749    0.0166903490    3.1565794149
 H    0.3496207271    1.2970456527    2.5395929680
 H   -0.4369838427   -1.2029374094    1.8373529334
 H    3.3003911141   -0.8752900755    0.2824530616
 H    1.5840110041   -0.1071718657   -1.7012781090
 H   -0.7583803624   -0.5451744069   -0.5532657129