18

 O    0.0794945662    0.0261258685    0.0302755843
 C    0.0161966471    1.2276208728    0.0013745401
 N   -1.0333132848    2.1109238561   -0.0309145463
 C   -0.2156868001    3.3253817911    0.0377149811
 C    1.0384806410    2.3971377383    0.0237775400
 C    1.9750034910    2.4362475703    1.2269975227
 C    3.0030464029    1.2840939194    1.1868540105
 C    3.8957656566    1.2912739660    2.3383953344
 C    4.6187227324    1.3227633438    3.2982715087
 H   -2.0311257015    1.9645914620    0.0080231001
 H   -0.3234740098    3.9901505403   -0.8247504662
 H   -0.3440027442    3.8987386768    0.9620404713
 H    1.6013615848    2.4603687972   -0.9128640341
 H    2.5029038360    3.3959862738    1.2600439655
 H    1.3934198072    2.3641056704    2.1533840138
 H    2.4665739493    0.3301097828    1.1278319744
 H    3.5949834363    1.3577946469    0.2648039909
 H    5.2634744196    1.3341585636    4.1415642289