21

 C   -0.1764575331    1.5577141458    0.1446575829
 C    0.0307979756    0.0590419494   -0.0056892717
 C   -1.2192573262   -0.8463232838    0.2075700210
 C   -0.4412245481   -1.7139815615    1.2363666601
 O   -0.2003716818   -3.0525903952    0.8740416927
 C    0.7804130401   -0.7347375202    1.1303359100
 C    1.9892466060   -1.3433032230    0.4346220129
 O    1.5583926817   -1.5210289589   -0.9204679471
 C    0.8508107998   -0.3255245222   -1.2524066153
 H    0.7787442392    2.0942091338    0.1732634703
 H   -0.7589686600    1.9627883281   -0.6917836115
 H   -0.7205938840    1.7919358375    1.0653825412
 H   -2.0750933871   -0.3147987398    0.6335341015
 H   -1.5620407908   -1.4010671064   -0.6719521637
 H   -0.8949992897   -1.7516532505    2.2293873629
 H    0.2006294839   -3.0364357899   -0.0061885286
 H    1.0240479589   -0.1854734015    2.0418617145
 H    2.8592972768   -0.6700524656    0.4765615029
 H    2.2742333163   -2.3235934122    0.8226147413
 H    0.2413328629   -0.5333929040   -2.1365277045
 H    1.5659197798    0.4757066098   -1.5001497318