15

 C   -0.0319707825    1.3937983561   -0.1777662111
 C    0.0625537681   -0.0951037745    0.1737436435
 C    0.8046692938   -0.3314976984    1.4938784411
 N   -1.2671971379   -0.7012416770    0.2135887741
 C   -1.6680579382   -1.7007622736   -0.6156115707
 O   -0.9911052544   -2.2138152210   -1.4821638606
 H    0.9659695768    1.8374982782   -0.2482828705
 H   -0.5409757312    1.5363392052   -1.1347629611
 H   -0.5868520616    1.9458561941    0.5905926574
 H    0.5811797173   -0.6231881491   -0.6308130660
 H    0.8829936366   -1.4002363368    1.7104620839
 H    1.8151687500    0.0863049694    1.4484222979
 H    0.2839961647    0.1500317858    2.3305769255
 H   -1.9281793691   -0.3604207570    0.8951926323
 H   -2.7135521427   -2.0072725915   -0.4088348258