20

 N   -0.0594665933   -1.1175691480   -0.0055424244
 C   -0.0268617530    0.0362432008    0.0331849468
 C    0.0188692941    1.4990222506    0.1137550599
 N    1.3672952075    1.9969254120   -0.1248062996
 C    1.4597559514    3.4483392580    0.0057722701
 C    2.8824564797    3.9192124546   -0.2891794117
 N    2.9637738731    5.3690794055   -0.1881231600
 C    3.3280093975    5.9124579237    1.1179981986
 C    4.2971898309    5.9311278996   -0.0115292608
 H   -0.6494411399    1.9081503615   -0.6543678320
 H   -0.4096739127    1.7979541487    1.0887751815
 H    2.0084053702    1.5484036574    0.5225293348
 H    0.7796904020    3.9063789990   -0.7217747423
 H    1.1486895217    3.8127844108    1.0024502645
 H    3.5906281526    3.4132109361    0.3962005117
 H    3.1538026563    3.6226816720   -1.3077904088
 H    2.8085830354    6.8179104794    1.4175690730
 H    3.5237786906    5.2094792653    1.9269303691
 H    5.1379605835    5.2413117022    0.0453647514
 H    4.4981408224    6.8503070209   -0.5539857617