19

 O    0.3193295949    0.8756512047   -0.4554348346
 C    0.0137150907   -0.4199623738   -0.0031611968
 C   -0.0652708194   -0.6773062941    1.5267134688
 C   -1.4123825149   -1.4530873033    1.2967617934
 C   -1.4618245664   -0.8048504481   -0.0935210166
 C   -2.5310451251    0.1292197478   -0.5781517637
 C   -2.2626360562   -1.1717808911   -1.3026441725
 C    1.0579111713   -1.4161871682    2.1921478980
 O    2.0911460242   -1.7208684053    1.6472543974
 H    1.2749270878    0.9454526910   -0.5430058433
 H    0.6637528600   -1.1699499846   -0.4724292672
 H   -0.2626351713    0.2549220101    2.0677928834
 H   -1.2682292354   -2.5378499455    1.2609334156
 H   -2.2296677451   -1.2264307693    1.9844566413
 H   -3.4420770985    0.2104361104    0.0065067269
 H   -2.2050443266    1.0507812215   -1.0467450216
 H   -1.7719737154   -1.1245815653   -2.2699152313
 H   -2.9922670900   -1.9699900121   -1.2093449580
 H    0.8732897753   -1.6954776147    3.2557715807