19

 C    0.0747301461    1.5755963445   -0.0490497130
 C    0.0555354742    0.0584928557    0.0518707843
 O    0.7341002841   -0.4836568058   -1.0808813333
 C    1.1485039825   -1.8104617524   -0.7683145077
 C    1.4632272355   -1.7960910052    0.7186077621
 C    2.2582966117   -0.5948776533    1.2119167087
 C    0.7705748358   -0.5419689699    1.2596856985
 C    1.4792550291   -3.0492166667    1.4910842769
 O    1.2911460603   -4.1460204126    1.0201592713
 H    1.1006931917    1.9527778298   -0.0189138173
 H   -0.3846782231    1.8953966572   -0.9882349071
 H   -0.4864796646    2.0207215135    0.7781177404
 H   -0.9900415475   -0.2946479745    0.0673621110
 H    0.3563798612   -2.5465269701   -0.9664611662
 H    2.0068647471   -2.0460112367   -1.4039384828
 H    2.7879860005   -0.7103126071    2.1517446747
 H    2.7824441158   -0.0213483889    0.4547284170
 H    0.2589131673   -0.5615180659    2.2152550318
 H    1.6830419523   -2.9159683013    2.5795827809