19

 C    0.0565958955    1.5749395164   -0.2166327295
 C    0.0538407796    0.0609490237    0.0092450210
 O    0.8641772059   -0.3021916300    1.1134760018
 C   -1.3680032221   -0.5035043866    0.1834010821
 C   -1.3916687849   -2.0480174244    0.3034244555
 N   -2.4723799235   -2.2632122244    1.2524645293
 C   -2.7171766344   -1.1408489065    2.0188946266
 O   -3.4494839342   -1.0507195791    2.9764593063
 N   -1.9460433752   -0.1056065039    1.4677764249
 H    1.0832917333    1.9309886208   -0.3301242164
 H   -0.5078024206    1.8454966596   -1.1156993359
 H   -0.3850601368    2.1006907412    0.6378273655
 H    0.5035919899   -0.4290392858   -0.8641447189
 H    0.3438517997   -0.0961718387    1.9026389816
 H   -1.9958251393   -0.1792512421   -0.6589168298
 H   -1.5938238387   -2.5251574951   -0.6594914856
 H   -0.4243812895   -2.4012053399    0.6819614246
 H   -2.6355121417   -3.1613757572    1.6780039323
 H   -2.3461058631    0.8150605419    1.5705923147