15

 C   -0.0157794513    1.4916277974    0.0890497279
 C    0.0136089746    0.0065692112   -0.0106727939
 C    0.0120177936   -0.7981960033   -1.1233444331
 O    0.0452432923   -2.0780233400   -0.7167955332
 N    0.0692096215   -2.0421462421    0.7296108671
 N    0.0489879925   -0.8331158695    1.0739091515
 N   -0.0172328165   -0.4440182569   -2.4407222897
 C   -0.0130419708   -1.3663984041   -3.3405934674
 N   -0.0411760493   -1.0668045687   -4.6535247412
 H    0.8675932258    1.8764356670    0.6095978140
 H   -0.0413724684    1.9235862446   -0.9137882872
 H   -0.8967839341    1.8395612610    0.6387478702
 H    0.0128988793   -2.4355552632   -3.1166181710
 H   -0.0375084406   -1.7853811764   -5.3534355594
 H   -0.0657682487   -0.1017983970   -4.9404939444