19

 C    0.3011592295    1.4037236730   -0.5320106241
 O    1.3901039701    1.8696481769    0.2629914185
 C    1.8357739460    0.8322721204    1.1240640047
 O    3.2370437474    0.6899160501    1.1189879468
 C    3.7022645308   -0.3740328036    0.2929167688
 C    3.2227197140   -1.7329531187    0.8266579966
 C    1.6793194624   -1.7255019583    1.0990370599
 C    1.1329931113   -0.4141037542    0.6390831662
 C    0.2560615797   -0.0817642183   -0.3015023674
 H   -0.6286353497    1.9092956215   -0.2260604335
 H    0.4767430146    1.6587214518   -1.5870438007
 H    1.5886385696    1.1059473394    2.1618541070
 H    3.3743944612   -0.2278633058   -0.7454930027
 H    4.7932391524   -0.3115574142    0.3096547578
 H    3.4793123047   -2.5109044653    0.0997147490
 H    3.7615576960   -1.9629927108    1.7501400619
 H    1.1800684611   -2.5568177673    0.5948828469
 H    1.5012972558   -1.8517228170    2.1737711123
 H   -0.3774398968   -0.7529704795   -0.8687362880