23

 C   -0.4500973117    1.5316101658   -1.2623618271
 O   -0.6363523387    0.1522309013   -1.0584509654
 C   -0.3737438875   -0.2466398938    0.2664317755
 C   -0.6098272600   -1.7466266244    0.3514766090
 O   -0.3476560870   -2.1473965790    1.6769384967
 C   -0.5322469977   -3.5284049568    1.8889347040
 C   -0.2169499760   -3.8186537643    3.3481368984
 O   -0.4016128889   -5.1989193964    3.5582400996
 C   -0.1380482693   -5.5914094104    4.8831715907
 H   -0.6767999997    1.7416156489   -2.3104851117
 H   -1.1189667132    2.1330085867   -0.6262571332
 H    0.5869838603    1.8394379955   -1.0540370837
 H    0.6654199451   -0.0173250820    0.5541977198
 H   -1.0342625822    0.2743777027    0.9788174235
 H   -1.6485372933   -1.9756725027    0.0644312413
 H    0.0510523984   -2.2671503409   -0.3599309829
 H   -1.5680363813   -3.8304569928    1.6659719667
 H    0.1311452023   -4.1228262054    1.2405907977
 H    0.8191193263   -3.5156596901    3.5717281581
 H   -0.8803326550   -3.2234825738    3.9969436824
 H   -0.3068647311   -6.6692169970    4.9455481866
 H    0.9027031854   -5.3768785800    5.1738750327
 H   -0.8039580451   -5.0848846611    5.5998942313