21

 C   -0.0564049698    1.5851446280    0.0179291637
 C   -0.0565833235    0.0850975922    0.0394015984
 C    1.1485303199   -0.7459525198   -0.3642545241
 C    0.5835437366   -0.8943781912    1.0229618990
 O    1.3109541903   -0.6131677590    2.1678549582
 C   -0.6621428547   -1.7568024869    0.9974223281
 C   -0.7677361975   -3.2473956385    1.1415764950
 C   -1.3177257741   -2.3277721835    2.2136663968
 C   -1.3141931798   -0.8036186557   -0.0287583978
 H    0.9099616454    1.9809563941    0.3462008221
 H   -0.2516706941    1.9734402379   -0.9890953509
 H   -0.8256997071    1.9903864461    0.6850789085
 H    1.0661704316   -1.5468091956   -1.0968309179
 H    2.0768168546   -0.1826434101   -0.4098681255
 H    2.1162108824   -1.1408281989    2.1548421392
 H   -1.4771830583   -3.7750280355    0.5118842835
 H    0.1338425904   -3.8110116805    1.3630545788
 H   -0.7734664259   -2.2532254541    3.1495597559
 H   -2.3954168035   -2.2393490040    2.3102048808
 H   -2.2069461788   -0.3076374009    0.3644552054
 H   -1.5448986741   -1.2262435341   -1.0130092071