19

 C    0.0031900873    1.5644786173   -0.0359846925
 C    0.0831300263    0.0395929454   -0.0098840515
 C    0.8496525672   -0.5773144951   -1.2092851009
 C    1.1816971416   -2.0062706080   -0.7362433272
 O    2.1706665899   -2.6860847191   -1.4526721769
 C    1.5908393224   -1.7201002490    0.6962273373
 O    2.5640299932   -2.1986191468    1.2315055682
 C    0.7731003558   -0.5499862706    1.2546750964
 O    1.6490222915    0.3686707904    1.8767622821
 H    1.0001853047    2.0061637180    0.0243357408
 H   -0.4729852943    1.9031019232   -0.9616881324
 H   -0.5813010872    1.9471931619    0.8059232486
 H   -0.9370661934   -0.3642665333   -0.0263073086
 H    0.2720190225   -0.5614773559   -2.1360438542
 H    1.7889713359   -0.0396732044   -1.3861415851
 H    0.2451508864   -2.5931621319   -0.7162196406
 H    2.8440698491   -2.9419298014   -0.8047996540
 H    0.0262856816   -0.9196486252    1.9753309791
 H    2.3563978693   -0.1559456956    2.2754033114