14

 C   -0.0074543731    1.4453828381    0.0087553510
 C    0.0378736728   -0.0603414538    0.0017666179
 O    1.0385975232   -0.7257796561   -0.0111708061
 C   -1.3573868422   -0.7340804475    0.0116315585
 O   -2.3954172313   -0.1233097964    0.0243723691
 O   -1.2608850110   -2.0724290714    0.0036797971
 C   -2.5254357619   -2.7485739961    0.0119951449
 C   -2.2746307953   -4.1870723263    0.0010123128
 N   -2.1230489316   -5.3311257689   -0.0072503163
 H    1.0084188718    1.8397861940    0.0005980947
 H   -0.5661872817    1.8088495552   -0.8597602848
 H   -0.5491386627    1.8011780033    0.8911364493
 H   -3.0977293963   -2.4690365293    0.9023829123
 H   -3.1149807407   -2.4585277648   -0.8636482004