15

 O   -0.1332355773    1.3642839559   -0.1335028973
 C    0.0087048076   -0.0052260798   -0.0185827831
 C   -0.2672463955   -0.7198477565    1.2653628676
 C   -1.2942117270   -0.8241754893    0.1589954946
 O   -2.4407831581   -0.0420998862    0.3454626258
 C   -1.4047652455   -2.0920065519   -0.6050800524
 O   -0.5038462562   -2.9064623657   -0.6608018405
 C   -2.6485815186   -2.2649017712   -1.3445389525
 C   -3.6761257424   -2.3850196272   -1.9614768523
 H   -1.0299534618    1.5745933685    0.1660676015
 H    0.7645621550   -0.4060634611   -0.6850385963
 H    0.2879839720   -1.6272632303    1.4747266998
 H   -0.5682394026   -0.1240148523    2.1203992850
 H   -2.9339276758   -0.0311768913   -0.4855560280
 H   -4.5754187438   -2.5212302616   -2.5127350820