19

 C    0.0141731862    1.4831795086   -0.0338724362
 N   -0.0206397532    0.0267496844    0.0643667747
 C    0.7484075417   -0.4738166280    1.2001066350
 C   -1.3234567749   -0.5196881483   -0.0272777032
 C   -1.7949030335   -1.3196855593   -1.0297674940
 C   -1.1544460755   -1.8446974460   -2.2617050736
 O   -3.0733692043   -1.6478645234   -0.7858086034
 N   -3.4890626252   -1.0584251991    0.4147727581
 C   -2.4480533795   -0.3975844509    0.8490144365
 H    1.0539217794    1.8151722783   -0.1229999750
 H   -0.5284247101    1.8043091874   -0.9263548147
 H   -0.4289972028    1.9925317994    0.8408746666
 H    0.3667594248   -0.1246533424    2.1765599482
 H    0.7351857722   -1.5664671509    1.1997511324
 H    1.7875021473   -0.1404154327    1.1086902453
 H   -1.1564317033   -2.9395582698   -2.2735598984
 H   -1.6816025449   -1.5037555655   -3.1588554117
 H   -0.1229237614   -1.4885837470   -2.2968482102
 H   -2.5291053631    0.1491738052    1.7784515337