19

 O   -0.8802071064    0.9794624730    0.6597671894
 C   -0.0058475160    1.0252384326   -0.1661670808
 C    1.2249042557    1.8974423838   -0.0811579921
 C    1.3412161382    2.8441761111   -1.2965370053
 C    2.6043686577    3.6557564780   -1.2753132503
 C    2.7772786132    4.9524067130   -0.5012931038
 C    3.0194093234    4.9287750375   -1.9790571567
 O    4.3321032981    4.4423591183   -2.2667777997
 C    3.9946430113    3.1580136760   -1.6784192540
 H   -0.0613428741    0.4034277550   -1.0918225875
 H    1.1993095412    2.4580642978    0.8569487682
 H    2.1013757354    1.2336015989   -0.0607589026
 H    1.2946281308    2.2555784293   -2.2228420982
 H    0.4750733858    3.5164220546   -1.3119730320
 H    1.8449044054    5.4129122165   -0.1868400775
 H    3.6165703951    5.0997931814    0.1733257217
 H    2.5355710417    5.5601767647   -2.7158663319
 H    4.6910565497    2.8666140735   -0.8830067973
 H    3.9678408539    2.3789309950   -2.4506990397