20

 O    0.1478274958    1.3660273518    0.7789012651
 C    0.1876633002    0.0955911108    0.1370475830
 C   -1.1975682347   -0.5006544262    0.0273843033
 C   -1.5320572583   -1.9267434109   -0.2282126284
 C   -0.4551909897   -2.9906134558   -0.0891582784
 O    0.5692799331   -2.7563874161   -1.0496737809
 C    0.0251775389   -2.8904073414    1.3858757440
 C   -0.9618861200   -1.9229971275    2.0853058292
 N   -1.8560851127   -1.3153473115    1.0746694714
 H   -0.2839853277    1.2499210486    1.6313601088
 H    0.5750926415    0.2814329830   -0.8691108363
 H    0.8984792592   -0.5759870497    0.6291085565
 H   -1.8935389835    0.2259892208   -0.3909561714
 H   -2.3709666387   -2.1589342300   -0.8786671006
 H   -0.9122458218   -3.9733786339   -0.2726654381
 H    1.1866651576   -3.4940068543   -1.0148270996
 H    0.0314792600   -3.8697557386    1.8725538058
 H    1.0527579997   -2.5179436182    1.3974509630
 H   -1.6039945308   -2.4618527187    2.7886442741
 H   -0.4463249779   -1.1452308924    2.6597822597