20

 C   -0.0975954679    1.5539975708    0.0425290911
 C   -0.0208531885    0.0252333093   -0.0054039038
 O   -1.3319859299   -0.5385035565   -0.0593815021
 C    0.6953733898   -0.4780264309   -1.2633093388
 C    0.8012667788   -2.0064503339   -1.2288104952
 C    1.3672217702   -2.5345944604    0.0661475259
 N    2.0953457730   -3.5692310013    0.1034400688
 O    0.9654219915   -1.9101855715    1.2197996120
 C    0.7437919308   -0.4994119532    1.2163528527
 H    0.8956539972    2.0125179357    0.0107388059
 H   -0.6762092822    1.9177801760   -0.8107739413
 H   -0.5957274801    1.8931789779    0.9587435265
 H   -1.7886925016   -0.3261598941    0.7615060869
 H    0.1433937798   -0.1563092388   -2.1515934636
 H    1.6908499634   -0.0217540100   -1.3111740346
 H   -0.2067420597   -2.4231226487   -1.3310364411
 H    1.4079099377   -2.3962640559   -2.0471073944
 H    2.3379594134   -3.7849278864    1.0733328802
 H    1.7107587720    0.0184486410    1.2924560120
 H    0.1841583224   -0.2922842787    2.1354807529