18

 O   -0.8738263827    1.2866210298   -1.2957111129
 C   -0.5576700248    0.3806317430   -0.2540098933
 C   -1.7717351940   -0.4240891726    0.1990586865
 O   -2.2115607146   -1.2504683243   -0.8801645986
 C   -3.5021773350   -1.0847996847   -1.3448010313
 C   -4.0064972238    0.2639615482   -1.7538987372
 C   -3.6431308956   -0.7602449301   -2.8283904721
 C   -2.4329362534   -0.5418097601   -3.5662249108
 N   -1.4420659032   -0.3489809015   -4.1333440526
 H   -0.7990815831    0.8203080621   -2.1375560604
 H    0.2424533877   -0.3097132214   -0.5523296280
 H   -0.1896280506    0.9700088181    0.5948742534
 H   -1.5045287209   -1.0687734373    1.0470717277
 H   -2.5722564218    0.2527195712    0.5171077216
 H   -4.2252490360   -1.7991178600   -0.9520535655
 H   -5.0590505323    0.4882989737   -1.6260882856
 H   -3.3223945052    1.0971566708   -1.6414183505
 H   -4.4435386906   -1.2358472749   -3.3833740405