18

 N    0.3355235080    1.3479731787   -0.3354713453
 C    0.0318295194   -0.0526887519   -0.0731657120
 C    0.4570319687   -1.0280903394   -1.1965074667
 N   -0.0788398921   -0.6758597168   -2.5000461035
 C    0.6150581937    0.0783142076   -3.3942653475
 O    1.7048335487    0.5725583816   -3.1880675166
 C    0.7171646086   -0.4888899710    1.2439284065
 C    0.1806238521    0.2046613216    2.4111993878
 N   -0.2624291032    0.7259915694    3.3419893725
 H    1.2346877041    1.4324646802   -0.8035712545
 H   -0.3473951168    1.7435358979   -0.9715734065
 H   -1.0524583732   -0.1337139581    0.0692332076
 H    1.5482465635   -1.0185070340   -1.2882686848
 H    0.1462815996   -2.0505110340   -0.9537961111
 H   -0.9754049066   -1.0406832396   -2.7789320744
 H    0.0714819075    0.1927984170   -4.3519439882
 H    0.6033564302   -1.5680603423    1.4008036649
 H    1.7927264676   -0.2870241469    1.1748579517