21

 C    0.3274035672    1.3766660962   -0.0029666471
 C    1.6243117126    0.6077140071   -0.0188241614
 C    0.3083861926   -0.1339611608   -0.0324478341
 C   -0.1271311199   -0.8916186725    1.1925537441
 C   -1.6032557473   -1.4352966004    1.2392907910
 C   -1.0942620214   -2.6523103792    0.4016174170
 C    0.1526431528   -2.4217177540    1.2865196501
 O   -0.3186769016   -2.7477057857    2.6057294502
 C   -1.5965493684   -2.0638748728    2.6369168902
 H    0.0415512261    1.8660734222    0.9225308489
 H    0.0333516447    1.9140022154   -0.8977538881
 H    2.2206789146    0.6173423769   -0.9244242276
 H    2.2080207705    0.5824363480    0.8956755469
 H    0.0343193631   -0.5717634641   -0.9870009475
 H    0.1887959793   -0.3459100718    2.0895214044
 H   -2.4640462285   -0.8318286292    0.9524883501
 H   -1.6094937906   -3.6088596903    0.5184232495
 H   -0.9457347130   -2.4250619466   -0.6533169526
 H    1.1266352430   -2.8795931298    1.1195093158
 H   -1.6093038599   -1.3271180188    3.4489149148
 H   -2.4052857458   -2.7867742198    2.7985795454