18

 C   -0.0157910667    1.4884930663    0.0897690216
 C   -0.0016166057    0.0019831229   -0.0495045591
 C   -0.0342561282   -0.7978396252   -1.1766054858
 C    0.0030855430   -2.1485214162   -0.7276494735
 C    0.0564915801   -2.1270514169    0.6490994614
 C    0.0984483263   -3.5063165785    1.2262273774
 C    0.0605729133   -4.3402665020   -0.0521887839
 C    0.0067895469   -3.5508627701   -1.1444630943
 N    0.0536025269   -0.8266650600    1.0642003505
 H    0.8884130647    1.8715911105    0.5807468255
 H   -0.0723812238    1.9506167816   -0.8984909633
 H   -0.8766838018    1.8458936940    0.6697697940
 H   -0.0793697663   -0.4298695446   -2.1908859159
 H    1.0049696221   -3.7118487836    1.8121690262
 H   -0.7537518480   -3.7367312803    1.8804556439
 H    0.0765422041   -5.4217417700   -0.0391897554
 H   -0.0282076164   -3.8991041163   -2.1694067264
 H    0.0857784597   -0.4996631115    2.0144839467