22

 O   -0.1706122230    1.4030235175    0.4863600514
 C   -0.1061539260    0.2594881164   -0.3612120066
 C   -1.3859300936   -0.5158377908   -0.1891797219
 C   -1.4523202028   -2.0026614694   -0.3028002458
 C   -0.2560763316   -2.9290994513   -0.5216617020
 C    0.7550706956   -2.9710554409    0.6431427577
 C    0.0410085350   -2.8296702780    1.9894516560
 C   -0.7068006371   -1.4956673284    2.0656732540
 N   -1.6961999583   -1.3385474469    0.9849795776
 H    0.6051088353    1.9456858901    0.3152516870
 H   -0.0257690909    0.5569099329   -1.4193703833
 H    0.7754524115   -0.3510820181   -0.1309036056
 H   -2.2486209741    0.0553961122   -0.5329323257
 H   -2.3670857449   -2.3985427321   -0.7441872990
 H   -0.6643499032   -3.9389457724   -0.6461448970
 H    0.2477364411   -2.6934128735   -1.4669509926
 H    1.3154895066   -3.9107881412    0.5956281388
 H    1.4984053471   -2.1702613228    0.5481279888
 H   -0.6728084683   -3.6541356850    2.1185496366
 H    0.7553750946   -2.8946701170    2.8173734229
 H   -1.2545373522   -1.4304079008    3.0128791839
 H    0.0088719093   -0.6647823705    2.0651640349