22

 N   -0.0136978394    1.3183810876   -0.2527215967
 C    0.0592900754    0.0297657648    0.1981712704
 O    1.0864388795   -0.4410497994    0.6464143469
 C   -1.2468435245   -0.7581912101    0.1030653895
 C   -1.0131119721   -2.2660362203   -0.0125380028
 C   -2.3081768334   -3.0805645681    0.0568599011
 C   -2.0702227068   -4.5881428390   -0.0690304012
 C   -3.3541453290   -5.4029499093    0.0101908005
 O   -3.0141352338   -6.7748395302   -0.1260888989
 H    0.7873625660    1.9135472634   -0.1182624563
 H   -0.8795601524    1.7347555375   -0.5461510823
 H   -1.8212860040   -0.5401384714    1.0147932419
 H   -1.8521609268   -0.3889231250   -0.7342194816
 H   -0.4925413550   -2.4797200037   -0.9544082498
 H   -0.3270179496   -2.5693725655    0.7844018844
 H   -2.8201784790   -2.8674340819    1.0061584419
 H   -2.9942114137   -2.7507479250   -0.7365229852
 H   -1.5747808979   -4.8136301534   -1.0213887473
 H   -1.3917798881   -4.9296053468    0.7221712345
 H   -3.8574831654   -5.2110149820    0.9725080980
 H   -4.0471485791   -5.0835921831   -0.7862748841
 H   -3.8224137208   -7.2922747988   -0.0685377329