15

 O   -0.1576277998    1.3365296051    0.2164989769
 N    0.0007834176   -0.0593696866    0.2428154573
 C   -1.0993859732   -0.6514532985    0.0059493989
 C   -1.1882588493   -2.1647105642   -0.0219172101
 C   -2.6450925019   -2.4570280500    0.3817577470
 C   -3.4382776285   -1.2092002899   -0.0283691052
 O   -4.6287358076   -1.1521746317   -0.1843806737
 C   -2.4587172465   -0.0413387871   -0.2081588823
 H    0.7245281537    1.6469003547    0.4474080535
 H   -1.0055814576   -2.5214858843   -1.0439967170
 H   -0.4390724322   -2.6276925681    0.6221226362
 H   -3.0770260489   -3.3569115297   -0.0596841990
 H   -2.7370492841   -2.5518265375    1.4718162465
 H   -2.6670453788    0.7682007281    0.4990290257
 H   -2.5743251631    0.3941386596   -1.2082414146