13

 O    0.0772582941    1.2494581628   -0.1084104710
 C    0.0651662665   -0.0877996870   -0.0519590756
 N    0.0133059802   -0.8045341589   -1.1731068851
 N    0.0207629127   -2.0685709217   -0.6412983979
 C   -0.0098629077   -3.3838532991   -1.0647831061
 C    0.0268653713   -4.1396591212    0.0689151578
 N    0.0794516710   -3.2835780217    1.1726819241
 C    0.0747831088   -2.0038621667    0.7103095749
 N    0.1052484712   -0.7498964502    1.1441214287
 H    0.1166247649    1.5590345893    0.8044334354
 H   -0.0537776424   -3.6671416017   -2.1008265623
 H    0.0201936677   -5.2084634898    0.1884520178
 H    0.1148314318   -3.5576521040    2.1375830094