17

 C   -0.0579107789    1.3870271969    0.0870132083
 N   -0.0223202317   -0.0608649413    0.0443669319
 C    0.5542368462   -0.6179071372   -0.9651125567
 C    1.1947809034    0.0327890628   -2.1035892549
 C    1.7711512217   -0.6667780344   -3.1109959660
 N    1.7812045838   -2.0283541144   -3.1101370450
 C    1.1958397601   -2.7294761418   -2.0685050767
 C    0.6035993264   -2.0864539530   -1.0323182363
 O    0.0213799810   -2.7401845198    0.0037231523
 H    0.9470214528    1.8407709340    0.1055489456
 H   -0.5923982275    1.8290604881   -0.7703334733
 H   -0.5770076981    1.7074661608    0.9951351894
 H    1.2136009400    1.1126802141   -2.1507598028
 H    2.2490323368   -0.1929514409   -3.9602307481
 H    2.2111686039   -2.5331666470   -3.8641983174
 H    1.2438510455   -3.8097004329   -2.1385667466
 H    0.1058213544   -3.6903591740   -0.1323793839