21

 O   -0.1008626173    1.4322606813   -0.0043875983
 C   -0.0628232554    0.0344227472    0.0217171620
 C   -0.5498891254   -0.7060299483    1.2412766133
 C   -1.3775415954   -0.6932362865   -0.0285172739
 C   -2.6940641753    0.0954041816   -0.0953300507
 C   -3.3981140608   -0.4728728667   -1.3379064901
 C   -3.0121933361   -1.9609174199   -1.3127823382
 O   -3.1533665989   -2.6430201290   -2.5473832294
 C   -1.5301419691   -1.9435188740   -0.9049120858
 H    0.5510829388    1.7601017906    0.6233907246
 H    0.7634108911   -0.4052332400   -0.5396236747
 H   -0.0469424996   -1.6241950544    1.5302967948
 H   -0.9076595946   -0.1005433863    2.0692591521
 H   -3.2972486786   -0.0968919520    0.8005923881
 H   -2.5206956099    1.1717585025   -0.1482169902
 H   -4.4804835141   -0.3069492019   -1.3362312072
 H   -2.9895649713   -0.0283502182   -2.2533109062
 H   -3.5996316083   -2.4671510647   -0.5284698537
 H   -4.0883823296   -2.6566234200   -2.7741455841
 H   -0.9331023793   -1.8622984274   -1.8210632436
 H   -1.2286926409   -2.8644910440   -0.3980801388