23

 C    0.9026892987    1.3079314473   -0.0996116587
 O    0.9927513164   -0.0776474708   -0.3205734066
 C   -0.0986255030   -0.5902204454   -1.0651039900
 C    0.0744798801   -2.0927755748   -1.1588841352
 C   -0.6818235932   -2.9457108383   -2.2226043103
 C    0.2987389269   -2.4070676917   -3.3029233487
 C    1.1893089418   -2.7336993117   -2.0602406793
 C    2.6777160436   -2.5575990810   -1.9208554097
 C    0.3687754101   -4.0586580867   -1.9479849163
 H    0.8890024477    1.8754842885   -1.0443128768
 H   -0.0031152888    1.5738765539    0.4690418311
 H    1.7812998845    1.6071035201    0.4776074397
 H   -1.0489564301   -0.3564445061   -0.5529148889
 H   -0.1430008151   -0.1032095538   -2.0510228687
 H    0.0450232389   -2.5115450128   -0.1460567665
 H   -1.7614487389   -3.0726090058   -2.3156737238
 H    0.4477708536   -3.0470539414   -4.1778101767
 H    0.2082922328   -1.3625039713   -3.6059134359
 H    2.9514577926   -1.5002618012   -1.9860254995
 H    3.0247230124   -2.9283310561   -0.9502207626
 H    3.2155276070   -3.1043198811   -2.7036208883
 H    0.3380853352   -4.5343169748   -0.9629560237
 H    0.5187660869   -4.7931759251   -2.7445162748