22

 C   -0.0914136313    1.5613820384   -0.0011883182
 C   -0.0531522083    0.0383157297   -0.0102852393
 C    1.0917752023   -0.5783104993   -0.8589694168
 N    1.8923559672   -0.7203423904    0.3759659777
 C    0.6732788720   -0.6011451045    1.2041034842
 C    2.7260263902   -1.8806084676    0.5322358029
 C    4.0548464152   -1.8498282204   -0.2551039548
 O    4.8310868556   -1.8962068523    0.9590965001
 C    3.6429029532   -1.8723136928    1.7755707598
 H    0.9020931355    1.9725321388    0.2048917338
 H   -0.4265156460    1.9534576651   -0.9676229780
 H   -0.7782592057    1.9342643249    0.7664147262
 H   -1.0446182518   -0.3705771244   -0.2159309761
 H    0.8064073694   -1.5456345632   -1.3049416323
 H    1.5473020423    0.0481090042   -1.6344161479
 H    0.7879713037    0.0066779636    2.1088799659
 H    0.2408756539   -1.5764913784    1.4829738724
 H    2.1631637663   -2.8237284270    0.4076094476
 H    4.2559853861   -2.7114100495   -0.9028996996
 H    4.2170761813   -0.9212082690   -0.8158158847
 H    3.5698282514   -0.9565372210    2.3747911331
 H    3.5794546674   -2.7483371050    2.4320589539