22

 C   -0.0598236950    1.5688650780   -0.0004237022
 C    0.0520163803    0.0490189757   -0.0036023820
 C    0.7482026098   -0.5566466520   -1.2450797023
 C    1.3435508132   -1.8835210191   -0.7276567757
 C    2.5845622977   -2.3533534066   -1.4735691915
 O    2.2127430450   -2.6104552029   -2.8210454629
 C    1.5733964742   -1.6095158634    0.7553457295
 C    2.2264665873   -0.3269404316    1.1315807603
 N    0.7631639921   -0.4612157485    1.1960606330
 H    0.9281727237    2.0384816965   -0.0592779471
 H   -0.6463322690    1.9136134930   -0.8579290900
 H   -0.5481536346    1.9189224851    0.9134413009
 H   -0.9581458240   -0.3744211464    0.0695417508
 H    0.0590541059   -0.7052989268   -2.0782734547
 H    1.5426248108    0.1044052151   -1.6108876270
 H    0.5893898646   -2.6761978356   -0.8148326129
 H    3.3644627669   -1.5767902279   -1.4158503511
 H    2.9879151566   -3.2598299285   -0.9935474736
 H    2.9954869617   -2.8967296153   -3.3005563600
 H    1.6212495286   -2.4575337458    1.4336828400
 H    2.7106701457   -0.2307968273    2.0989918403
 H    2.6733284684    0.2805508644    0.3488801680