18

 O   -0.7977533512    0.9071319996    0.7946473632
 C    0.1618057072    0.8126122841    0.0751485457
 C    1.2691679832    1.8648934125   -0.0339220320
 C    1.3970062776    2.6700031720    1.2636394509
 C    2.3211532213    3.8765144272    1.1245172704
 C    3.7842013898    3.4859763579    0.9724670328
 O    4.1482986121    2.8549033242   -0.2634311819
 C    3.5980943521    1.6824736835   -0.6662900289
 N    2.4377390080    1.1979248818   -0.5723388634
 H    0.3220140927   -0.0587376904   -0.5955321731
 H    0.9081187570    2.5571040882   -0.8182295141
 H    0.3891582291    2.9788662756    1.5544448163
 H    1.7631917374    2.0102416210    2.0608950941
 H    2.0165846409    4.5038651198    0.2771128234
 H    2.2506994393    4.5017711567    2.0230997060
 H    4.4261084602    4.3693268971    1.0120862985
 H    4.0739775888    2.8174407535    1.7950404983
 H    4.3519462646    1.1156557557   -1.2151848263