23

 C   -0.0618037980    1.3970562872    0.0145028266
 O    0.0873313893    0.0018778507   -0.0684018355
 C    0.6316200050   -0.5641793375    1.1046562505
 C    0.7515911004   -2.0704220736    0.9118378640
 C    1.3204117644   -2.7784556785    2.1382136628
 C    0.4559007025   -2.8965526471    3.4469022906
 C    0.6496012464   -4.4176027477    3.4171355333
 C    0.0987723466   -4.9788525017    2.1384522587
 C    1.4466552591   -4.3103569126    2.1149025498
 H    0.9036670067    1.9049549280    0.1721693873
 H   -0.4884623308    1.7394657650   -0.9317306344
 H   -0.7372636540    1.6903206379    0.8346592931
 H    1.6223099357   -0.1238816569    1.3178821244
 H   -0.0114245143   -0.3355437506    1.9729542135
 H   -0.2386452537   -2.4677301877    0.6614466206
 H    1.3942337548   -2.2616239971    0.0434721659
 H    2.2902899860   -2.3359384730    2.3920121689
 H    0.9225225280   -2.4067762579    4.3042563103
 H   -0.5830456868   -2.5543596955    3.3756119087
 H    0.8416721684   -5.0420409353    4.2810846350
 H    0.1268914570   -6.0606564730    2.0537307872
 H   -0.7668730273   -4.5231941226    1.6633981261
 H    2.3360248446   -4.8518338805    1.8135589529