18

 O   -0.1256834550    1.3228251686   -0.0917784670
 C    0.0260654552   -0.0712161326   -0.0405478141
 C    1.2029386637   -0.6169749768   -0.8114628681
 C    1.4281404273   -2.1066713366   -0.4907333917
 C    0.2159235133   -2.7525124027    0.1380486631
 C   -1.1807052284   -2.2670923206    0.0344703399
 C   -1.3187348317   -0.7390397393   -0.0357679732
 C   -0.5039532611   -0.6875490010    1.2388853011
 N   -0.4383136802   -2.1988684437    1.3506261631
 H    0.6086080598    1.7160360932    0.3936979165
 H    1.0186246262   -0.4618789897   -1.8805201145
 H    2.0992799528   -0.0356227326   -0.5631302996
 H    1.7025856776   -2.6602390942   -1.3947742322
 H    2.2650089776   -2.2260426963    0.2078904492
 H    0.3015743382   -3.8329474680    0.2422037210
 H   -2.0275005127   -2.9360219342   -0.0866373326
 H   -2.2210277962   -0.2059374154   -0.3010205987
 H   -0.6470835964   -0.1135001380    2.1459990979