22

 C    0.0061110321    1.5493026525    0.0486894042
 C   -0.0516751668    0.0187288378    0.0334534194
 C   -1.4761959630   -0.5639466260   -0.0251651597
 C   -2.2188173264   -0.1939018036   -1.3164648554
 C   -1.4052221421   -2.0785415129    0.1520342343
 O   -2.7465723213   -2.5838570573    0.2654993380
 C   -2.8547388248   -3.9336372968    0.3140119059
 N   -4.1746723011   -4.2918310154    0.3721240513
 O   -1.9238274565   -4.7035325068    0.2789413788
 H    1.0382173748    1.8982236172    0.1514377696
 H   -0.3964238423    1.9833184252   -0.8713437119
 H   -0.5676521772    1.9578103559    0.8882381088
 H    0.5264917918   -0.3607782649   -0.8203306681
 H    0.4488701609   -0.3637344364    0.9324026033
 H   -2.0430231406   -0.1645892663    0.8281710063
 H   -3.1976872304   -0.6781410551   -1.3502470358
 H   -2.3737731672    0.8851703215   -1.3986389158
 H   -1.6513254742   -0.5193288230   -2.1970144100
 H   -0.9107558680   -2.5604084992   -0.6985823498
 H   -0.8468800875   -2.3487491013    1.0547905320
 H   -4.8513037223   -3.5945066768    0.6323852287
 H   -4.3595219280   -5.2449713682    0.6335126160