23

 C   -0.1584692906    1.5688399157    0.1186274515
 C   -0.0417194108    0.0410941340    0.0156593021
 C   -1.4323979283   -0.6073786167    0.0505974068
 C    0.7235216027   -0.4085000042   -1.2429454019
 C    2.1999325337    0.0011836121   -1.2681916843
 C    2.9383392075   -0.5189859591   -2.5178917120
 N    2.3769529441    0.0653123351   -3.7391416645
 C    4.3942847312   -0.2838155948   -2.3866854972
 N    5.5292489633   -0.0722282961   -2.3179377847
 H    0.8185937390    2.0575763483    0.1776205365
 H   -0.6859188427    1.9780610441   -0.7516204395
 H   -0.7217713470    1.8570078132    1.0121576445
 H    0.5167263523   -0.3154496529    0.8939080801
 H   -2.0338313782   -0.2905973461   -0.8099793972
 H   -1.3650616832   -1.7000950031    0.0242191585
 H   -1.9778339988   -0.3261087913    0.9573288524
 H    0.6667010878   -1.5034076153   -1.3146176244
 H    0.2244495148   -0.0196711098   -2.1378408549
 H    2.3069274433    1.0920111225   -1.2390383215
 H    2.7133647387   -0.3831816312   -0.3792800107
 H    2.7932442169   -1.6048292351   -2.5791988854
 H    2.5644782770    1.0644744683   -3.7559680832
 H    2.8339272274   -0.3261067575   -4.5572825711