18

 C   -0.0389243318    1.5144667012   -0.0002728223
 C    0.0158226930   -0.0063521559    0.0017267483
 C    1.3621829032   -0.6819454368   -0.2205332953
 C    0.7401621252   -0.7025545929    1.1459144667
 C   -1.1485683236   -0.6587255988   -0.5381517025
 C   -2.1318403369   -1.1834748550   -0.9934831521
 C   -3.3220687316   -1.8269395558   -1.5447360861
 C   -3.2317045986   -3.2937229556   -1.5434129522
 N   -3.1718852669   -4.4467735052   -1.5474418083
 H    0.8799024117    1.9298896734    0.4243152635
 H   -0.1494016105    1.9015472327   -1.0180196639
 H   -0.8833239884    1.8772350364    0.5940609982
 H    1.3741644266   -1.6030532705   -0.7906072343
 H    2.2120215591   -0.0303285615   -0.3931413458
 H    1.1607694461   -0.0652359887    1.9163298708
 H    0.3286211649   -1.6377019047    1.5060548655
 H   -4.2178131399   -1.5423127759   -0.9769624036
 H   -3.4994011514   -1.4994687264   -2.5777152265