20

 O    0.0781754615    1.4781581244    0.3867338221
 C    0.1360211265    0.1487885862   -0.1070335274
 C   -1.2107690464   -0.5311218810    0.0346407553
 C   -1.4610306094   -2.0260600418   -0.2498267069
 C   -0.4851651428   -3.0003867357    0.4668000348
 C   -1.1853209321   -2.7227061791    1.8224582863
 C   -0.8360627880   -1.3361470427    2.3867351456
 N   -1.7760082526   -0.6326621737    1.4391254012
 C   -2.3357825884   -2.0045716466    1.0465580591
 H   -0.4803805145    1.4596469830    1.1729365988
 H    0.4100136002    0.2085176007   -1.1671624354
 H    0.9299516837   -0.4245338302    0.3954594354
 H   -1.9408417599    0.0646825877   -0.5278215118
 H   -1.8126808090   -2.3022446690   -1.2448008116
 H   -0.6754950930   -4.0259819007    0.1375057111
 H    0.5908221083   -2.8120639060    0.3994632142
 H   -1.3139367560   -3.5541385153    2.5163005261
 H   -1.2067371467   -1.1917645873    3.4067433904
 H    0.2104228145   -1.0158013535    2.3547696864
 H   -3.4071364659   -2.1867369193    1.1216014864