14

 O   -0.1557433568   -0.0029858289    0.0018203148
 C   -0.0547924333    1.1977726507    0.0100923967
 N    1.1347589088    1.8947713151    0.0030858507
 C    1.2498192769    3.3629024984    0.0129846965
 C    2.7936849588    3.5556081296   -0.0029378358
 N    3.3910101886    2.2149986696   -0.0195664345
 C    2.4356916225    1.3688600845   -0.0152618182
 C    2.6860522286   -0.0452026447   -0.0285848574
 N    2.9785791042   -1.1624925239   -0.0400822208
 H   -0.9209473343    1.8861398497    0.0248622742
 H    0.7623744985    3.7935035703   -0.8659938106
 H    0.7824138329    3.7799561593    0.9092151994
 H    3.1356807358    4.1094288338   -0.8825905638
 H    3.1554232489    4.0964210164    0.8769049589