18

 N    0.3147248201    1.3097391521   -0.0409983755
 C   -0.0090651632   -0.1032019913    0.0283605432
 C   -1.4986819839   -0.4319090489   -0.0355924301
 O   -2.3829004378    0.3805167418   -0.1345576795
 O   -1.7019399742   -1.7632575104    0.0339260644
 C   -3.0724944300   -2.1946975418   -0.0164778078
 C   -3.0562280533   -3.7214442601    0.0781866985
 C   -4.4026790109   -4.2762338194    0.0366953617
 C   -5.5239914609   -4.7059861059    0.0001559220
 H   -0.0751307422    1.6970707000   -0.8960311449
 H   -0.1708288543    1.7975683937    0.7069169006
 H    0.4896885766   -0.6422263253   -0.7857344209
 H    0.3908160790   -0.5341834091    0.9538321809
 H   -3.6300773564   -1.7486595523    0.8115642406
 H   -3.5312411729   -1.8568442400   -0.9497092718
 H   -2.4542918399   -4.1245464211   -0.7449847345
 H   -2.5525799785   -4.0169948227    1.0063124965
 H   -6.5102693171   -5.0982002492   -0.0311035533