19

 C   -0.1451262819    1.3740932003    0.1265819662
 C    1.2713364592    0.8838465323   -0.0384471039
 C    0.1442985249   -0.1127878492    0.0751754572
 C    0.0582386836   -0.7970022168   -1.2734912360
 C   -0.4081420371   -2.1998050263   -1.3870494505
 N   -1.2313320457   -1.1013847494   -1.9252403627
 C    1.1900843973   -0.2489693966   -2.1212134735
 C    1.1615755868    1.1770608518   -2.5324338921
 N    1.9274389865    0.7685791035   -1.3465143054
 H   -0.3966161165    1.7883630367    1.0975738762
 H   -0.6733986888    1.8429120336   -0.6945387697
 H    1.9701209116    1.0512161156    0.7729520921
 H   -0.0127309379   -0.7104043721    0.9668090791
 H    0.0238677442   -2.8551812575   -2.1393675967
 H   -0.7311292421   -2.7062947771   -0.4806221961
 H   -1.9903024567   -0.8934215586   -1.2798655401
 H    1.7866544843   -0.9619110759   -2.6853511131
 H    1.7755079719    1.5066905384   -3.3663289271
 H    0.2370631064    1.7323005974   -2.4181568539