18

 C    0.0414484042    1.4704308097   -0.0032191334
 C    0.0401262507   -0.0316556857   -0.0591185041
 C    0.5319332875   -0.9564527543   -1.1952289990
 O    1.8841615576   -0.9332359416   -1.5827998785
 C    0.0445756441   -1.9439629485   -0.1210906793
 C    0.5533659058   -1.0340256416    1.0554326850
 C   -0.8165872598   -1.0611363305    1.7585489811
 C   -1.1547498514   -1.0088328737    0.2559793078
 H    1.0544448119    1.8623722146   -0.1463467951
 H   -0.5909258314    1.8929182314   -0.7920069146
 H   -0.3300225689    1.8394144144    0.9591735644
 H   -0.0476318110   -0.9252113257   -2.1243021488
 H    2.4265073165   -1.0062090827   -0.7897895391
 H    0.0289569307   -3.0349227371   -0.1277078544
 H    1.5459119783   -1.0491255969    1.5119149872
 H   -1.0773444876   -1.9823541281    2.2892944560
 H   -1.0849780934   -0.1867363595    2.3602029459
 H   -2.1298774139   -0.9975238644   -0.2340473510