19

 C    0.3145049317    1.4360619972    0.1450869841
 C    1.1893219705    0.2026338626    0.0247626266
 C   -0.3138985593    0.0960937545   -0.0448813340
 O   -1.0280251462   -0.4138540294    1.0409521125
 C   -1.2322024286   -1.7979184121    0.9926741603
 C   -0.0961075386   -2.7995402176    1.4493642352
 C   -1.0945757807   -3.3415170513    2.4779292587
 O   -1.4122500546   -2.2500487248    3.3430267867
 C   -2.1220688828   -2.3492480808    2.1058874477
 H    0.2173521463    1.8749772208    1.1314359829
 H    0.2839942812    2.1442793030   -0.6750343800
 H    1.7650677596    0.0522363578   -0.8820746593
 H    1.6662615910   -0.1463649902    0.9328821905
 H   -0.7613315358   -0.1314757459   -1.0137687508
 H   -1.6183122101   -2.1017771109    0.0078167509
 H    0.1928855471   -3.5026303285    0.6654796225
 H    0.7886194765   -2.3415126167    1.8937396293
 H   -1.2094096856   -4.3449220342    2.8695022902
 H   -3.2042672114   -2.3805037532    2.1556693461