18

 C   -0.3677498078    1.2953148702   -0.2138839479
 C    0.0067616775   -0.1333673564    0.0710664603
 O   -1.1219962751   -0.9494413357    0.4306292572
 C   -0.4597776271   -1.4461255011    1.6246867263
 C    0.8398110588   -0.7230198427    1.2416258111
 N    1.6436836923   -1.5329079147    0.2943009717
 C    1.0161744852   -0.8586020383   -0.8902818862
 C    0.4862357181   -1.7313907162   -1.9208137103
 C    0.0433905411   -2.4306420043   -2.7923420091
 H    0.5191367457    1.9097974494   -0.3969581714
 H   -1.0063620297    1.3401000158   -1.1033544100
 H   -0.9254822090    1.7220234824    0.6245741189
 H   -0.9562214495   -1.0754853178    2.5306651058
 H   -0.3943201249   -2.5379446865    1.6437949696
 H    1.3808359683   -0.1476489164    1.9940338849
 H    2.6405377074   -1.3633382254    0.3547726456
 H    1.6815326829   -0.1140378018   -1.3498340694
 H   -0.3560255644   -3.0585996904   -3.5496799771