13

 C    0.0360185503   -1.1987108070   -0.0754204860
 C    0.0514116366    0.0042260577   -0.0170093601
 C    0.0357699086    1.4151320247    0.0814621002
 N    0.2075481981    2.3337717214   -1.0825507892
 C    1.1544932449    2.4083646613    0.0396732173
 C    0.4733104445    3.2141510640    1.2020742875
 O   -0.8435973198    3.5880282961    0.7952422845
 C   -0.6301767297    2.2593974998    1.2458205343
 H    0.0290029960   -2.2590152845   -0.1315719103
 H    0.6556699589    1.7804028265   -1.8140885388
 H    2.2143698283    2.2240060666   -0.0729157638
 H    0.9616364557    3.7946439363    1.9740064763
 H   -1.2352173426    1.8672589070    2.0535081180