21

 O    0.1964853113    1.3855263379   -0.2102193117
 C    0.0542743860   -0.0188759120   -0.0185588496
 C    0.7743866645   -0.5039834819    1.2495688071
 C    0.0484278959   -0.0554466574    2.5260205518
 C   -1.4213203224   -0.4992810484    2.5248938743
 C   -2.1637493210   -0.0007328071    1.2651643276
 C   -1.4236132671   -0.4473305781   -0.0155690856
 C   -3.5788564325   -0.5364697582    1.2491513720
 O   -4.5790942517    0.1325084725    1.2548138580
 H   -0.1908491999    1.8397030863    0.5445417696
 H    0.5396469218   -0.4578898595   -0.8967580161
 H    0.8258382909   -1.6006145526    1.2281079979
 H    1.8035554274   -0.1318665112    1.2378238495
 H    0.5580682383   -0.4533623358    3.4096818241
 H    0.0985536609    1.0384833131    2.6204001697
 H   -1.4680236737   -1.5972080740    2.5549117305
 H   -1.9309749658   -0.1383260533    3.4248905333
 H   -2.2459637064    1.0927352322    1.2896194879
 H   -1.9151072617   -0.0319391414   -0.9008940858
 H   -1.4739513742   -1.5419309776   -0.0963181300
 H   -3.6357491504   -1.6523531133    1.2308384254