14

 N   -0.0878388039    1.0585336240    0.2958504970
 C   -0.1623688668   -0.2793363646    0.0420528480
 O    0.7116257604   -1.0706994578    0.3127769682
 C   -1.4525359325   -0.6962755221   -0.6872496623
 O   -1.5113297324   -2.1099601544   -0.8100671132
 C   -1.8394274688   -2.7718811546    0.3188196563
 O   -2.1804028243   -2.2679725773    1.3513584830
 C   -1.7327809103   -4.2804295017    0.0571543046
 O   -2.0506727206   -5.0875030555    0.8826194311
 H    0.6886208018    1.3789057473    0.8529748403
 H   -0.9024904591    1.6476513434    0.2526631251
 H   -2.3308928680   -0.3243380053   -0.1505885769
 H   -1.4498597501   -0.3035130715   -1.7066402330
 H   -1.3411616854   -4.5462721799   -0.9442681482