16

 C    0.0237463649    1.5573380985   -0.3768719497
 C   -0.0122820875    0.0874084286   -0.0407709427
 C    1.2072954335   -0.7607204388   -0.1439564132
 C    0.6273807500   -0.4637066321    1.2376212921
 C    1.3131477841    0.4130351487    2.1422589630
 N    1.8606955405    1.1340916127    2.8627196405
 O   -1.1936237159   -0.5743056506   -0.4559012788
 C   -2.3138137789   -0.3777852118    0.2859283780
 O   -3.3663985855   -0.8426870943   -0.0231854173
 H    0.9727014925    2.0027051047   -0.0709072020
 H   -0.0962714094    1.6893478957   -1.4560389415
 H   -0.7805983108    2.1010851666    0.1282543183
 H    1.0826739063   -1.7748574389   -0.5031082905
 H    2.1392439688   -0.2778130539   -0.4113388011
 H    0.1021785558   -1.2843066816    1.7143070162
 H   -2.1315661782    0.2326425865    1.1887636788