17

 O   -0.0293278933    0.0750070497    0.3906178416
 C   -0.0245727840    1.2346154005    0.0485759366
 C   -1.1916358454    2.1617065473   -0.0730585961
 C   -0.7383119196    3.3804841607   -0.4246869853
 C   -0.8672703769    4.6175517912    0.4198636821
 C    0.4091070424    4.3055117252    1.2986503369
 C    1.3889116656    3.5483327241    0.3574404797
 C    1.1938389319    2.0939494669   -0.2175233426
 C    0.6920736119    3.3159736413   -0.9315263836
 H   -2.1225469660    1.9532792392    0.4422999776
 H   -0.7326540313    5.5520295794   -0.1329761395
 H   -1.7852159928    4.6701894484    1.0072989239
 H    0.8891628093    5.2270263157    1.6417310345
 H    0.1234318862    3.7239758333    2.1793339541
 H    2.4315435161    3.8486546970    0.3903455295
 H    2.1121927048    1.5925137424   -0.5029163573
 H    0.9896065510    3.6295243676   -1.9248648720