20

 C    0.2945465441    1.5253884614    0.1672976187
 C   -0.0156822473    0.0181926771    0.0241667634
 C    0.5195219146   -0.7583910901    1.2484390324
 C   -1.4780064114   -0.1550520289   -0.0374952233
 N   -2.6258288496   -0.2873019074   -0.0780135111
 C    0.6330126096   -0.5275515808   -1.2636362789
 C    0.2861318945   -1.9484536602   -1.7633830009
 O    0.0016333005   -1.4524839160   -3.0860168148
 C    0.1024508658   -0.0840934111   -2.6459838606
 H    1.3774016945    1.6717563618    0.2276859398
 H   -0.0845372828    2.0911620723   -0.6878656021
 H   -0.1601279476    1.9335532107    1.0736401722
 H    0.0686483519   -0.3889680672    2.1731140026
 H    0.3014083084   -1.8265021235    1.1667460042
 H    1.6041481837   -0.6300131514    1.3173622596
 H    1.7124240775   -0.3778404444   -1.1720325479
 H    1.0976909297   -2.6844036484   -1.7639933094
 H   -0.6027835067   -2.3904139495   -1.2934566466
 H   -0.8785888780    0.4090070722   -2.6187232670
 H    0.7837548585    0.5020575434   -3.2724842002