18

 O   -0.1023327769    1.4742834585   -0.0429853296
 C   -0.0268716261    0.0767298182   -0.0019463963
 C   -0.4418388181   -0.6481419559    1.2546918727
 C   -1.3295949852   -0.6704515092    0.0223473317
 C   -2.6260577493    0.0729581481    0.0165345667
 C   -3.5135471138    0.0510805307   -1.2160123858
 C   -3.9287911309   -0.6742430637    0.0402599010
 O   -3.8533931497   -2.0718201881    0.0808242354
 H    0.5990352215    1.8232993374    0.5164683372
 H    0.7861658976   -0.3494859784   -0.5903441503
 H    0.0811916826   -1.5529888076    1.5445961860
 H   -0.7715304513   -0.0270568983    2.0816974223
 H   -1.3515481965   -1.6062693886   -0.5250762192
 H   -2.6042753440    1.0085679393    0.5643206278
 H   -4.0365109159    0.9560292525   -1.5057143189
 H   -3.1836584700   -0.5697094050   -2.0431617358
 H   -4.7419478860   -0.2482383307    0.6286443076
 H   -4.5541364281   -2.4205993393   -0.4795562324