16

 C   -0.0033409098    1.4289326701   -0.0118126035
 O   -0.0247184043    0.0212010014    0.0494584245
 C    0.6174799787   -0.5667591430   -1.0650524863
 C    0.5749312926   -2.0168627288   -0.9659109077
 C    0.5591594354   -3.2257630346   -0.9176630215
 C    0.5371463968   -4.5837985905   -0.8558925514
 C    0.5179579017   -5.7926975622   -0.8015722481
 C    0.4940084988   -7.2425039023   -0.7349115237
 H    1.0253857433    1.8233273633   -0.0209701251
 H   -0.5238520197    1.8083496445   -0.9056916961
 H   -0.5157830680    1.7974852028    0.8792910470
 H    0.1319563178   -0.2447823713   -2.0039059877
 H    1.6679923440   -0.2298937091   -1.1266593427
 H    0.9827535845   -7.6854869525   -1.6100972357
 H    1.0149108357   -7.6076369443    0.1574242603
 H   -0.5337064675   -7.6213779836   -0.7005129423