19

 C   -0.1005462554    1.2998905860   -0.3142495153
 N    0.2596883338   -0.0975153199   -0.1163448332
 C    1.6735305710   -0.4240842417    0.0577718336
 C    0.7099820642   -0.5080442139    1.1855471261
 C    0.7732716119    0.2706829231    2.5084753959
 C    0.6436693070   -1.0851094377    3.2594141608
 C    0.2396497829   -1.7909033441    1.9163699542
 C   -1.1861751191   -2.0547251789    1.7899459822
 N   -2.3230564232   -2.2485868050    1.7062822229
 H    0.5378095457    2.0064115915    0.2405115156
 H   -0.0272030856    1.5366030098   -1.3795386761
 H   -1.1383132454    1.4506477819   -0.0025428274
 H    2.0204955947   -1.3188662206   -0.4537415892
 H    2.3929109270    0.3949151440    0.0895436678
 H    1.6723177401    0.8587836391    2.7030456515
 H   -0.1025705990    0.9096657485    2.6566489683
 H    1.6001663681   -1.4610524935    3.6260883429
 H   -0.0931955458   -1.1352931120    4.0605176940
 H    0.7962756670   -2.6995902167    1.6736808754