17

 C    0.2368578651    1.7224528711    0.0505737470
 C    0.0691542654    0.2087481044    0.0240097918
 C    0.6418863813   -0.6102207754   -1.1842271871
 O    1.6213391054    0.1137331404   -1.8941390455
 C    1.2883353641   -1.5859235446   -0.1838591115
 C    1.3812273120   -3.0520643378   -0.2030850613
 O    2.5246534520   -2.2275097349   -0.4411288524
 C    0.9688915133   -0.6297709631    0.9626458589
 O    1.3169867087   -0.5358885938    2.1020410882
 H    1.2535172030    1.9995276738   -0.2335998908
 H   -0.4551602805    2.2069304503   -0.6441022551
 H    0.0377372213    2.1006506599    1.0572497831
 H   -0.9768944714   -0.0724736802    0.2019389344
 H   -0.1091802024   -1.0359854819   -1.8607853038
 H    2.3577424979   -0.4888654912   -2.0563853022
 H    1.3929328392   -3.5969986108    0.7388920306
 H    1.0017969656   -3.5929205163   -1.0685343844