18

 C    0.0458383362    1.4726894687   -0.0660565990
 N   -0.0440129904    0.0166354918    0.0235596760
 C    0.7869338690   -0.5253835420    1.0968507919
 C   -1.3695971999   -0.4893527111   -0.0010082694
 C   -2.4449715389   -0.3829245989    0.8665324718
 N   -3.4507863047   -1.0854510630    0.3006305683
 N   -3.1214469093   -1.6569913557   -0.8901107262
 C   -1.8639642681   -1.2910148098   -1.0624035999
 O   -1.1548807603   -1.6590314756   -2.1456336276
 H    1.0874893876    1.7654571089   -0.2368321668
 H   -0.5568377657    1.8257570680   -0.9059916212
 H   -0.3035887548    1.9836715661    0.8484174064
 H    0.4919457139   -0.1611820469    2.0967525338
 H    0.7196108441   -1.6157200489    1.0970034965
 H    1.8315074767   -0.2405012813    0.9306474349
 H   -2.5658940321    0.1227652689    1.8116712579
 H   -4.3803637019   -1.2240526838    0.6543750066
 H   -0.2808711514   -1.2598077755   -2.0170373741