17

 O   -0.1809149383    1.4306448704   -0.0861743221
 C   -0.0844067967    0.0376104634   -0.0122025104
 C   -0.5153680541   -0.6783702464    1.2483638581
 C   -1.3715413750   -0.7221979681    0.0097083760
 C   -2.7447052595   -0.0834533091   -0.2280905145
 C   -2.9526480988   -1.0907926863   -1.3994179200
 C   -1.7245870805   -1.9078869147   -0.8964720268
 H    0.4912579952    1.8074178287    0.4908321500
 H    0.7426537969   -0.3946081423   -0.5786235501
 H    0.0231813752   -1.5725026456    1.5487616870
 H   -0.8652865342   -0.0581824066    2.0687534350
 H   -3.4401077425   -0.2492427593    0.6007587809
 H   -2.7384537562    0.9793368464   -0.4774347405
 H   -3.9093710766   -1.6162764967   -1.4326480579
 H   -2.7743242846   -0.6326259834   -2.3752582178
 H   -0.9796859019   -2.2006101325   -1.6424599851
 H   -2.0162022282   -2.7983690577   -0.3298997817