17

 N   -0.3776281854   -1.1548134438    0.3162200275
 C   -0.2315750652   -0.0133661373    0.1970226736
 C   -0.0490358124    1.4058949980    0.0095507307
 C    0.5365848749    2.2172190572    1.1272097001
 N    1.3000160105    1.9880350903   -0.0864342326
 C    2.4421815028    1.0917605474    0.0023848370
 C    2.9962520805    0.6102304390   -1.3540010564
 O    4.2691756905    1.2422991923   -1.1061394278
 C    3.7999382912    1.8138392483    0.1300923293
 H   -0.7817633236    1.8593246504   -0.6514744918
 H    0.1770965218    3.2294926428    1.2852196720
 H    0.8193846885    1.6743424505    2.0270792854
 H    2.2941928745    0.2857317008    0.7324766516
 H    3.0895201367   -0.4737012717   -1.4797608676
 H    2.4797568745    1.0407902535   -2.2202962982
 H    3.7248550724    2.9071470901    0.0832470734
 H    4.4244810680    1.5230389523    0.9826096538