18

 C   -0.1423385839    1.5442246908    0.3284922516
 C    0.0179874294    0.0300086710    0.1813945373
 C    0.6690974731   -0.3967628496   -1.1324498265
 C    0.7977259302   -1.9143388280   -1.2871940269
 O   -0.4552166343   -2.5632449610   -1.2537716829
 O   -0.1603457539    0.0577981144   -2.2304635689
 C    0.3865759733    0.8264166395   -3.1913986843
 O   -0.2219656219    1.1911177304   -4.1515042243
 H    0.8241910418    2.0580460072    0.2695317433
 H   -0.7891612895    1.9510189808   -0.4536566771
 H   -0.5901796936    1.7933798565    1.2945799499
 H    0.6396933255   -0.3636190502    0.9948824997
 H   -0.9508062285   -0.4724671143    0.2602298922
 H    1.6646031021    0.0606865116   -1.2289927377
 H    1.3423282091   -2.1328713503   -2.2195522548
 H    1.3861806961   -2.3164595526   -0.4557326406
 H   -0.9889667678   -2.1757385568   -1.9575717275
 H    1.4449473229    1.0798889906   -2.9863650424