21

 C    0.2256968732    1.4092250618    0.3442020778
 C   -0.2001927746    0.0268155693   -0.1671042695
 C    0.6029574844   -0.4498554473   -1.3720968543
 C    0.3913382811    0.3493329353   -2.6445898497
 C    1.9802740956   -1.0243854152   -1.1208242782
 C    0.8326107228   -1.9524583284   -1.5039212921
 O    0.2671267892   -2.7409442643   -0.4861805180
 C    0.8430895984   -2.5876079768   -2.7973650329
 C    0.8608316115   -3.1649724226   -3.8532321129
 H    1.2863151098    1.4191912023    0.6179603520
 H    0.0685911323    2.1918882653   -0.4043826725
 H   -0.3513261941    1.6842231833    1.2325295359
 H   -0.1079338170   -0.7059929696    0.6372655132
 H   -1.2631681040    0.0487130467   -0.4403783339
 H    0.7354988002    1.3806355666   -2.5159551909
 H    0.9345014580   -0.0825844431   -3.4879473696
 H   -0.6707064466    0.3797899953   -2.9128320162
 H    2.7643665857   -0.8504664419   -1.8497717672
 H    2.3136948470   -1.1062956357   -0.0913030544
 H    0.7982541493   -3.5417261404   -0.4124325177
 H    0.8656330577   -3.6659560507   -4.7894754888