18

 C    0.0557797837    1.3977425666    0.0305311287
 O   -0.1032137145    0.0025690275   -0.0846084561
 C    0.6477016158   -0.5942433222   -1.1338780305
 C    2.1412107340   -0.7113556829   -0.8077269855
 C    0.0283877840   -1.9392190097   -1.3745206455
 C   -1.0780447843   -2.5002906977   -0.7840485055
 N   -1.1791352593   -3.7120243359   -1.3802526848
 N   -0.2044413584   -3.9031443016   -2.2868011751
 N    0.5288772917   -2.8266461614   -2.2818220425
 H    1.0727206682    1.6840072009    0.3335248616
 H   -0.1809137444    1.9120644500   -0.9140220597
 H   -0.6422452658    1.7367411168    0.8000542541
 H    0.5349086456    0.0134592674   -2.0483098377
 H    2.6447844802   -1.2660503756   -1.6031994518
 H    2.6093890598    0.2731351979   -0.7218864043
 H    2.2761358809   -1.2511444974    0.1340534165
 H   -1.7569195898   -2.1474172827   -0.0289014645
 H   -1.8585111475   -4.4399547498   -1.2274497576