21

 C    0.1689297517    1.4426857570   -0.1892042356
 C   -0.1191673236   -0.0250048814    0.1362625525
 C    0.8363639154   -0.5821913607    1.1806409168
 O    0.4862583886   -1.9403156819    1.4316578053
 C    1.2933159851   -2.5620698489    2.3801914814
 C    0.9427991038   -4.0395648858    2.7082279358
 C    2.4535412463   -4.4204053128    2.6617266622
 C    2.6977949475   -3.0719196070    1.9588459684
 O    3.5492966544   -2.6478048935    1.2322596711
 H    1.1854580198    1.5731025759   -0.5760290300
 H   -0.5250550014    1.8201123646   -0.9455685729
 H    0.0685832200    2.0765836352    0.6988625767
 H   -1.1454117242   -0.1403923098    0.5037604854
 H   -0.0396593753   -0.6374919024   -0.7690187308
 H    1.8758696411   -0.5201064020    0.8314643380
 H    0.7654696390   -0.0028798762    2.1177872456
 H    1.3807182262   -1.9583866678    3.3018024930
 H    0.4129378701   -4.2151256572    3.6442326486
 H    0.3839138357   -4.4825475186    1.8815288495
 H    2.9253378189   -4.4553569360    3.6488613573
 H    2.7455405309   -5.3116918908    2.1028839715