21

 C    0.2728286672    1.3410791522   -0.4893124831
 C    0.0301560137   -0.0961982079   -0.0370255736
 C   -1.4631626580   -0.3871748754    0.0746369873
 O    0.6476061845   -1.0512325477   -0.9598430323
 C    1.3954154904   -1.6686240208    0.1003662928
 C    2.8153611473   -1.0669328239    0.2661939896
 C    2.2810488845   -0.2211254734    1.4672238648
 O    2.6199453289    1.1325624380    1.6192169967
 C    0.8273588735   -0.6859359693    1.1642665165
 H    1.3082976854    1.4888011033   -0.8092212083
 H   -0.3574063707    1.5740562150   -1.3539036931
 H    0.0341763371    2.0520189716    0.3077203309
 H   -1.9441144901   -0.2545501346   -0.8996994497
 H   -1.6348998228   -1.4157195556    0.4038908139
 H   -1.9387410298    0.2905269993    0.7924737813
 H    1.2842902605   -2.7548395890    0.1224285523
 H    3.6214536086   -1.7616367038    0.5142773151
 H    3.1056943550   -0.4847326879   -0.6124092426
 H    2.5886985853   -0.6914537524    2.4064506242
 H    2.4301280472    1.5912195947    0.7963462771
 H    0.2170544522   -0.9742564926    2.0204585403