17

 O    0.0001720604    1.4330053457    0.0713422806
 C    0.0588411925    0.0291303236    0.0384256111
 C    0.1198095791   -0.6439817079    1.4768587558
 C   -1.3826325371   -0.6619280635    1.3847382363
 C   -2.5064154528   -0.2459352738    1.9716761344
 C   -3.4614654831    0.1769280683    0.9003958282
 O   -4.6136292109    0.5091909344    1.0377675811
 C   -2.6612300310    0.2276435620   -0.4348085913
 C   -1.3906081390   -0.5560163074   -0.1163439151
 H    0.8598850087    1.7711387084    0.3405711638
 H    0.8061638683   -0.3314403966   -0.6798404629
 H    0.5780043500   -1.6366914649    1.4222305859
 H    0.5775261597   -0.0723758933    2.2881718526
 H   -2.7133727293   -0.0968073235    3.0232601999
 H   -3.2556236701   -0.1480440505   -1.2698697563
 H   -2.4251232579    1.2795852762   -0.6292545956
 H   -1.3375824876   -1.5251607673   -0.6221458886