24

 C   -0.0907225516    1.5373829189    0.1641615908
 C    0.0274450876    0.0144745297    0.0460910581
 C    0.7189933434   -0.5036882569   -1.2436857646
 C    0.7976269183   -2.0459511617   -1.1867538404
 C   -0.0240919185   -0.0563633918   -2.5273659702
 C   -1.5072062316   -0.4322712654   -2.6143427579
 C    2.1590726919    0.0627648071   -1.3280918736
 N    2.9752689542   -0.2191888797   -0.2657894466
 O    2.5580448532    0.7331174700   -2.2616024731
 H    0.8898477884    2.0206800852    0.1102412000
 H   -0.7121902739    1.9599030789   -0.6305318899
 H   -0.5461543821    1.8127236658    1.1204516867
 H    0.5698650127   -0.3683430061    0.9194654045
 H   -0.9695856726   -0.4375823723    0.1039976745
 H   -0.2049321183   -2.4827110807   -1.1646018849
 H    1.3213825277   -2.4475085452   -2.0600930762
 H    1.3189823418   -2.4019327417   -0.2921014131
 H    0.0864224786    1.0256040358   -2.6345029001
 H    0.5094411712   -0.4783633211   -3.3851747678
 H   -1.6716976281   -1.5126143962   -2.5484925311
 H   -2.1043182708    0.0427719969   -1.8293504140
 H   -1.9168123778   -0.1026113025   -3.5742933735
 H    2.7220079846   -0.8680749000    0.4570817546
 H    3.9388658417    0.0637179329   -0.3383902223