18

 C   -0.0999777525    1.4352474176    0.3260384248
 C   -0.0242887973    0.1176382754   -0.4145963164
 O    0.9646275342   -0.2334079055   -1.0167166318
 C   -1.2596613864   -0.7804289865   -0.3480135154
 C   -1.5543177998   -1.5074393167   -1.6722533961
 O   -2.2061895999   -2.7341967805   -1.3098690443
 C   -1.9479805453   -3.0499484024   -0.0060655137
 N   -2.3800324340   -4.0729853749    0.5914646258
 C   -1.0636258668   -1.9823319135    0.6029908983
 H    0.8611499430    1.9482537327    0.2832738468
 H   -0.8764480106    2.0680638092   -0.1204676120
 H   -0.3923073810    1.2708358605    1.3696150396
 H   -2.1332330431   -0.2029027206   -0.0302343147
 H   -2.2261367144   -0.9547593395   -2.3325600783
 H   -0.6197814452   -1.7252683281   -2.1989674928
 H   -2.9348340094   -4.6514324043   -0.0418975681
 H   -0.0220904588   -2.3218257177    0.5686360886
 H   -1.3293025826   -1.7931324650    1.6427200598