11

 O   -0.0853832987    1.4413314874    0.0158315262
 C    0.0172455018    0.0404847874    0.0105330526
 C    0.6902784922   -0.5168579137   -1.2721908992
 C   -0.0237715841   -0.1035594568   -2.4763387874
 N   -0.5916677693    0.2135564741   -3.4303719661
 C    0.7418050143   -0.4655684185    1.1947532083
 N    1.3396989494   -0.8410602028    2.1090319282
 H    0.7978499332    1.8250079913    0.0749876489
 H   -1.0120438566   -0.3295865122    0.0547539653
 H    1.7270464750   -0.1657194270   -1.3236482148
 H    0.7247749727   -1.6105688992   -1.2242784220