19

 O   -0.6379710707    0.7794858453    0.8211039530
 C    0.1209953940    0.9714601556   -0.0931257626
 C    1.3088163346    1.9041701167   -0.0568675942
 C    1.2795424948    2.9120297894   -1.2163575649
 C    2.5450750065    3.7495126258   -1.2761555925
 O    3.6856929152    2.9214830206   -1.4639539329
 C    4.5593543955    3.5714906689   -2.3846524144
 C    3.8520760623    4.9052388139   -2.6839237227
 O    2.4955658459    4.6209937675   -2.3786420465
 H   -0.0136349715    0.4449866125   -1.0681962589
 H    1.3338566684    2.4008240617    0.9175500965
 H    2.2161060679    1.2927947512   -0.1553671654
 H    1.1816005892    2.3931978317   -2.1764467373
 H    0.4246011616    3.5893261059   -1.1159418359
 H    2.6787357524    4.3302875882   -0.3430828777
 H    5.5484984609    3.7117191898   -1.9347215517
 H    4.6648277366    2.9502854436   -3.2820177945
 H    4.2362840286    5.7124763496   -2.0424592979
 H    3.9164625176    5.2181944122   -3.7277452396