16

 C   -0.0572406119    1.5515534316   -0.0007365049
 C   -0.0207025752    0.0592504520   -0.0239019113
 C    0.4608927628   -1.0061706939   -1.0107731556
 C    1.2987985079   -1.5992331665    0.1045373833
 N    0.5385000803   -0.7414973182    1.1264617799
 C   -0.5483895137   -1.6009297306    1.5558849764
 O   -0.6660625783   -2.1473541733    2.6051584800
 O   -1.4267225194   -1.7772723541    0.5095625613
 C   -0.9909554586   -0.9307818144   -0.5379055533
 H    0.9447348863    1.9688727843    0.1376738176
 H   -0.4641168584    1.9370776244   -0.9406661235
 H   -0.6899922206    1.9113975480    0.8176632507
 H    0.7218315946   -0.9118040999   -2.0580902527
 H    1.2517776140   -2.6771321292    0.2898232973
 H    2.3406820749   -1.2755893501    0.0836902570
 H   -1.7733618348   -0.6857852802   -1.2431705722