17

 O   -0.0270287304    0.1602393796   -0.4776767569
 C    0.0456337432    1.3461274733   -0.1994562516
 C    1.3337501223    2.0038884078    0.1387001181
 C    2.3517842407    1.1804307167    0.9222509365
 C    2.5934406986    1.4565763337   -0.5189767653
 C   -1.1863457419    2.1972109941   -0.1910650271
 C   -2.0603866228    2.1038987241   -1.4073691933
 N   -2.4806503105    1.5033749707   -0.1507866784
 H    1.2938580251    3.0681781530    0.3400698078
 H    2.9381467649    1.7061221835    1.6667921774
 H    2.0308573524    0.1817718943    1.1946514792
 H    2.4361643772    0.6426100117   -1.2168995480
 H    3.3535381391    2.1772677913   -0.7972133873
 H   -1.1371393260    3.1360582122    0.3523502656
 H   -2.6168728871    2.9833075649   -1.7186143328
 H   -1.7163022370    1.4537954859   -2.2070181393
 H   -2.2683160076    0.5047837132   -0.1858634946