17

 O   -0.1188970101    1.4286592575    0.0771307853
 C   -0.0713163362    0.0337212518    0.0425108607
 C   -0.6163524098   -0.7813306688    1.2055931624
 C   -1.3805137697   -0.6768080005   -0.0795464235
 C   -2.7193012205    0.0013802338   -0.3588605736
 C   -2.8140890779   -0.9748249375   -1.5744319967
 N   -1.6996859944   -1.7744842651   -0.9989397781
 C   -4.0633912972   -1.7119187208   -1.7618171903
 N   -5.0608743003   -2.2757879804   -1.9124122955
 H    0.5117455355    1.7368850355    0.7368782393
 H    0.7788882990   -0.3901115942   -0.4968649513
 H   -0.1281506470   -1.7219069384    1.4407419068
 H   -1.0073815147   -0.2362503586    2.0594209420
 H   -3.4813812913   -0.1874858739    0.3983263868
 H   -2.6803217318    1.0623879399   -0.6004773666
 H   -2.5658381401   -0.4692038516   -2.5154665258
 H   -0.9729265836   -2.0190373587   -1.6649940718