14

 O   -0.1070208692    1.3846124322    0.0431580412
 C   -0.0689905478    0.0044692123   -0.0098387405
 C   -1.3712978067   -0.7434654441    0.0502174078
 N   -2.5431627869   -0.0311011539   -0.3616419077
 C   -2.3256948961    0.4627032332   -1.6242653455
 N   -1.2750910028    0.0473241996   -2.2390270909
 C   -0.5414738921   -0.7342853506   -1.2717286550
 C    0.2163547175   -1.8606436464   -1.7385177199
 N    0.8448682821   -2.7709818500   -2.0758124704
 H    0.4068523633    1.7363708378   -0.6933097198
 H    0.7651571560   -0.4793887484    0.4951674654
 H   -1.5038327169   -1.6053228437    0.6926910343
 H   -3.1319128683    0.4427844671    0.3044194062
 H   -3.0502275520    1.1352378649   -2.0698513052