21

 C   -0.1215526152    1.5779000595   -0.0175795295
 C    0.0760318690    0.0593260612    0.0106482039
 C    0.8626674600   -0.5096813531   -1.2081648573
 O    1.8702355387    0.3849709100   -1.6627743831
 C    1.4821359780   -1.8206616322   -0.6715201405
 C    1.6310532345   -1.5329120377    0.8045018991
 C    0.8681016950   -0.5045923546    1.1839485761
 C    0.7075940590    0.0184339629    2.5747849262
 O    1.4975709041   -0.7445162102    3.4693501287
 H    0.8345510415    2.1071298510   -0.0278606374
 H   -0.6693392126    1.8775612311   -0.9162496913
 H   -0.6955393426    1.9187194378    0.8503775701
 H   -0.9211519587   -0.4101654873    0.0155331913
 H    0.2137696778   -0.6651131585   -2.0742379475
 H    2.5119234987    0.4741793238   -0.9481142989
 H    0.8144017612   -2.6782206019   -0.8393100330
 H    2.4215284262   -2.0453401250   -1.1881067848
 H    2.2414067952   -2.1218929334    1.4768713096
 H    0.9898971244    1.0851340141    2.6040364669
 H   -0.3622598776   -0.0187456524    2.8515491891
 H    1.4054868335   -0.3641763452    4.3472511621