19

 C   -0.0535120473   -1.1664082663    0.2784090378
 C    0.0551257756    0.0306299789    0.2504071670
 C    0.1377334230    1.4659718919    0.1987795778
 O    0.9842219016    2.1218831826    1.1596096960
 C    1.3678017794    2.1806761582   -0.2132922192
 C    2.6423263513    1.4745286003   -0.6095596743
 C    3.8797012098    2.2689768814   -0.2392842818
 C    4.3975097856    2.2384544239    1.1761877631
 C    5.1727145769    1.5595423739    0.0737931661
 H   -0.1440541842   -2.2242321302    0.3096711636
 H   -0.8155853350    1.9694650741    0.0382808185
 H    1.2184182807    3.1643156908   -0.6653988268
 H    2.6655354180    0.4930730413   -0.1253388553
 H    2.6193085632    1.2955660877   -1.6932790353
 H    3.9742961976    3.2194993265   -0.7593379840
 H    4.7976217262    3.1530421074    1.5993168137
 H    3.8671067318    1.6154023934    1.8875169434
 H    5.1734109226    0.4745431586    0.0466457555
 H    6.1014033332    2.0103740355   -0.2582730759