18

 C   -0.0991018150    1.6359299567   -0.0031557556
 C    0.0178018328    0.1232183610   -0.0864851535
 C   -1.3537896721   -0.5734496478   -0.0740222861
 O   -2.0574505106   -0.3209170059    1.1196588415
 C    0.9087268006   -0.3885258365   -1.2285425306
 O    1.6385100232   -1.4654220522   -0.6359274496
 C    1.5805278379   -1.3519616799    0.7230061395
 N    2.1951674758   -2.0487169079    1.5685047924
 O    0.7376687724   -0.3526019107    1.0799776279
 H    0.8815137544    2.0883548884    0.1633289278
 H   -0.5146241163    2.0302863705   -0.9361637190
 H   -0.7676766359    1.9144385595    0.8136496157
 H   -1.9679771057   -0.1890250816   -0.8957036046
 H   -1.2060480889   -1.6527057411   -0.2412962455
 H   -1.4855721163   -0.6062852952    1.8429508225
 H    0.3385612629   -0.7770096730   -2.0766239925
 H    1.6073408568    0.3780653391   -1.5824392210
 H    2.8044544638   -2.7136925736    1.0981762608