15

 N    0.1191571050    1.0027216555    0.7944884989
 C   -0.1009002968   -0.0306905582    0.0982011285
 N   -1.3529437938   -0.4069298875   -0.3788253845
 C   -2.5687913814    0.2238295205   -0.1838577453
 O   -2.7872302130    1.2106402266    0.4591264437
 O   -3.5020025289   -0.4923662900   -0.8832195566
 C   -4.8609852743   -0.0434710551   -0.7370831935
 C   -5.5936043571   -0.8618740254    0.2198172783
 C   -6.2090715062   -1.5340894041    1.0017454867
 H    1.1106890510    1.0590711965    1.0203876951
 H    0.6534315438   -0.7604123035   -0.2217301273
 H   -1.3972414060   -1.2451582191   -0.9357293608
 H   -4.8538321892    1.0042320602   -0.4241504774
 H   -5.3074989111   -0.1192857538   -1.7326172041
 H   -6.7527713421   -2.1209066724    1.7004526683