22

 C    1.1563997321    1.5189497400   -0.2571778939
 O    1.2189746346    0.1146827703   -0.3446784531
 C    0.0180714026   -0.4680700620   -0.8045197038
 C    0.1600360018   -1.9797828077   -0.8044665092
 C   -1.1127232704   -2.7185444459   -1.1730086791
 O   -2.2328222358   -2.3578525187   -0.3864734104
 C   -2.2543692254   -2.9573074457    0.8957456439
 C    1.4696123222   -2.5830380921   -1.1509764018
 N    0.9841507653   -2.6046573666    0.2453661987
 H    0.9704739972    1.9789178583   -1.2398722493
 H    0.3633185021    1.8480578771    0.4316723186
 H    2.1212968733    1.8663188967    0.1195900353
 H   -0.8249582654   -0.1808690741   -0.1571799580
 H   -0.2196870399   -0.1147493094   -1.8228843710
 H   -1.3882856450   -2.4760553460   -2.2069988457
 H   -0.9231706135   -3.8006006397   -1.1119498452
 H   -2.2355041671   -4.0552883160    0.8217760004
 H   -1.4076446013   -2.6461492209    1.5187168793
 H   -3.1889852328   -2.6500735095    1.3722607773
 H    1.5096145619   -3.5535352930   -1.6391505780
 H    2.2816340018   -1.9059332386   -1.3945878431
 H    1.4599327519   -1.8585369565    0.7500924583