18

 C    0.2693802369    1.5653330568    0.0811481962
 C   -0.2382062537    0.1449058823   -0.1513107037
 N    0.5324961446   -0.4834166477   -1.2258798213
 C    1.7276413881   -1.2068455063   -0.8628421416
 C    0.5073047505   -1.9645791251   -1.3462358349
 C   -0.2156234814   -2.7592876247   -0.3801702366
 C   -0.8379290308   -3.4266264964    0.4025993296
 C    0.4731595769   -2.4696879289   -2.6992935374
 C    0.4592388576   -2.9049976034   -3.8187853700
 H    1.3136531523    1.5610168295    0.4106440596
 H    0.2068364923    2.1539433543   -0.8381009925
 H   -0.3259008619    2.0599630876    0.8545166800
 H   -0.1950321912   -0.4342517067    0.7834692469
 H   -1.2859910450    0.1635057038   -0.4696908701
 H    2.5760579916   -1.1103436476   -1.5341211905
 H    1.9691053437   -1.3234677449    0.1930697569
 H   -1.3823784212   -4.0227254876    1.0926415313
 H    0.4387013008   -3.2825798051   -4.8110102218