17

 O   -0.1912602708    1.3904490991    0.1415898480
 N    0.0130059107   -0.0002700679    0.1273480361
 C   -1.0838994599   -0.6270578031    0.0028121068
 C   -2.5008383994   -0.0567869528   -0.1291928637
 C   -3.3120189761   -1.2634809799   -0.5826019263
 C   -2.6001410408   -2.3755059304   -0.4323601472
 C   -2.1705904237   -3.6291598677   -1.1605211575
 N   -0.7807305739   -3.0368961627   -1.1381531355
 C   -1.1858109193   -2.1399240675    0.0048164322
 H    0.7088773766    1.7274308850    0.2037017535
 H   -2.8305341830    0.3960345230    0.8162564485
 H   -2.5294836735    0.7519675444   -0.8691012759
 H   -4.2635023574   -1.1631864252   -1.0918092424
 H   -2.2625178721   -4.5512054106   -0.5696719825
 H   -2.5808720474   -3.7976179908   -2.1602342890
 H   -0.0647630568   -3.7079217376   -0.8727624785
 H   -0.9004673933   -2.5582780353    0.9806465934