19

 C   -0.2036051866    1.5091071609    0.1823829660
 C    0.1014624899    0.0142647517    0.0197347024
 C    0.7618195372   -0.3170043351   -1.2818052854
 O    1.5307005875   -1.5338468251   -1.3758497613
 C    2.1497767533   -0.2901093989   -1.7399644991
 C    1.6876932409    0.1039192804   -3.1890642327
 O    2.2980731425    1.1140190941   -3.9054304843
 C    0.7504123900   -0.9176145711   -3.7683747855
 C    0.2525744332    0.0624094479   -2.7183780434
 H    0.7122004253    2.1062146764    0.1316198845
 H   -0.8795020490    1.8686131076   -0.5996802911
 H   -0.6811362895    1.7017025183    1.1472915531
 H    0.7589727637   -0.3316304904    0.8246728144
 H   -0.8279593160   -0.5650727046    0.1032665268
 H    3.0780843374   -0.0123369791   -1.2522658899
 H    2.9818795225    0.7194277771   -4.4590084922
 H    0.4154284934   -0.6732860163   -4.7719799888
 H    0.8468360925   -1.9721773376   -3.5427051529
 H   -0.5405541682    0.7707742936   -2.9157091803