20

 C   -0.0765793846    1.5614775552    0.1178112179
 C   -0.0051263072    0.0307272716    0.0146726495
 C    0.7685697375   -0.5327766416    1.2272679071
 C   -1.4355563917   -0.5517395403   -0.0215311864
 C    0.7373783895   -0.3235784410   -1.2943999747
 O    1.1569233119    0.5001060909   -2.0652777905
 N    0.8839096231   -1.7058958342   -1.5148701923
 C    1.4964866626   -2.3441971597   -2.5901701771
 O    2.0169007658   -1.8242522117   -3.5367342634
 H    0.9229650303    2.0015741850    0.1340622918
 H   -0.6073988981    1.9883929468   -0.7358874356
 H   -0.6003383359    1.8474734138    1.0352851337
 H    0.2767878034   -0.2224971927    2.1548087535
 H    0.8104704809   -1.6272768412    1.2349333965
 H    1.7964472356   -0.1580657905    1.2496969277
 H   -1.9900147543   -0.1841578463   -0.8903679862
 H   -1.4482827226   -1.6463825642   -0.0542962741
 H   -1.9801370258   -0.2486931246    0.8785028426
 H    0.5025709784   -2.3231552105   -0.8144876325
 H    1.4397495514   -3.4447936346   -2.4547811776