17

 C    0.0215253044    1.5499119062    0.0338939487
 C   -0.0221190708    0.0514053403   -0.0035021219
 C   -0.0483958191   -0.6419498093   -1.1452867009
 N   -0.0700177910   -2.0443460843   -1.1794913015
 C   -0.3126550464   -2.8498524250   -0.0892134528
 O   -0.2723692649   -4.0612430220   -0.1620329687
 C   -0.6935924536   -2.0781571226    1.1676118588
 C    0.0127587271   -0.7189456168    1.2975689541
 H    0.9088636138    1.9076479895    0.5734628538
 H    0.0458849653    1.9795974642   -0.9717725970
 H   -0.8485830708    1.9672791173    0.5576611451
 H   -0.0439116478   -0.1672107122   -2.1201646789
 H    0.1051971003   -2.5288057062   -2.0465419982
 H   -1.7793299359   -1.9192804579    1.1102983589
 H   -0.5085471433   -2.7273326838    2.0251841523
 H    1.0590002125   -0.8665140888    1.6068954613
 H   -0.4556298897   -0.1389827085    2.1005845671