22

 C    0.1730693058    0.9928366413    0.4673816196
 O    0.0510377661   -0.3028934622   -0.0663455625
 C    0.5649703251   -0.4416696647   -1.3885148322
 C    2.1046990936   -0.5859192986   -1.4040097471
 C    2.3321871632   -2.0941796836   -1.2458083494
 C    1.2600556342   -2.7052982514   -2.1663856131
 C    0.9787415836   -4.1885958029   -1.9333990369
 C    0.0325594741   -1.7849070664   -1.9467944751
 H    1.2203592950    1.3101748627    0.5838953397
 H   -0.3400704126    1.7399408875   -0.1596336722
 H   -0.2952894580    0.9815160728    1.4551475231
 H    0.2333023504    0.4201905421   -1.9864575296
 H    2.4908526666   -0.2493922145   -2.3744959803
 H    2.5883062297    0.0216017101   -0.6342695295
 H    3.3477850528   -2.4129876286   -1.4991476007
 H    2.1398037670   -2.3894223605   -0.2065212073
 H    1.6048106210   -2.5782290520   -3.2024498976
 H    0.6436822363   -4.3647520767   -0.9045855841
 H    0.1963129742   -4.5581867422   -2.6052066110
 H    1.8743233525   -4.7963877804   -2.1024236195
 H   -0.6392701012   -2.2066275275   -1.1924735292
 H   -0.5510804694   -1.6491523841   -2.8614340351