16

 O   -0.0433274983    0.9629005276    1.5534137947
 C   -0.0380214846    1.4682788224    0.4465355125
 C   -1.3991335753    1.7917815243   -0.1831835142
 O   -1.4348393808    2.1752461147   -1.5334243324
 C   -0.7795605902    3.3964213489   -1.8141142625
 C    0.6517223825    3.1639125948   -2.2856604838
 C    1.5453008488    2.4209526417   -1.3397009508
 C    1.2543971291    1.7315972710   -0.2274956386
 H   -2.0054987956    0.8856459159   -0.0956349617
 H   -1.8673914456    2.5541133994    0.4619183222
 H   -1.3486905784    3.8952829691   -2.6063799860
 H   -0.7905340298    4.0538797175   -0.9315403707
 H    0.6289365202    2.6109650201   -3.2363422975
 H    1.1151136701    4.1315665216   -2.5244175935
 H    2.5983511585    2.4555611846   -1.6173355240
 H    2.0746650794    1.2867989665    0.3306599863