14

 O   -0.0784468021    1.3058528065   -0.0848587716
 N    0.0377944410   -0.0869983257    0.0192506428
 C   -1.0963355793   -0.6448938273   -0.0206838512
 C   -2.5626868852   -0.2054043516   -0.0290187968
 C   -2.9091057492   -1.7085321831    0.1493947808
 O   -2.3439221546   -2.3894533524   -0.9798117030
 C   -1.4621432606   -2.0890345512    0.1154597904
 C   -4.0094010769   -2.2757582143    0.8456856399
 C   -4.9577748134   -2.7121500109    1.4418579734
 H    0.8399299437    1.5937069424   -0.0338226851
 H   -2.8085014161    0.4134749261    0.8377327532
 H   -2.9489007177    0.2529141103   -0.9410933270
 H   -0.9294704040   -2.9098317606    0.5780111925
 H   -5.7921307057   -3.1093999681    1.9658245818