22

 C   -0.3079914762    1.0235376593   -1.7094218825
 C   -0.0888106458   -0.1411921914   -0.7669650667
 C    1.2857989624   -0.6322912905   -0.3471723226
 C    2.5790903356   -0.0041097035   -0.8228489329
 C    0.3670438365    0.0201396361    0.6719658533
 C    0.6811896873    1.3849853386    1.2555099658
 C   -0.2642515259   -0.9331101102    1.6900195870
 C   -1.5746503066   -0.4767568047    2.1610157838
 N   -2.6066334443   -0.1004985052    2.5205973164
 H    0.4396201565    1.8114188773   -1.5960111741
 H   -0.2696901943    0.6858564294   -2.7508318470
 H   -1.2914077371    1.4762127357   -1.5441875134
 H   -0.8207842518   -0.9330975660   -0.9140412654
 H    1.3654475178   -1.7136754993   -0.2500615910
 H    2.5069446596    1.0775669569   -0.9538758909
 H    3.3912093958   -0.1943816310   -0.1123921862
 H    2.8792436181   -0.4292220623   -1.7868622417
 H    1.1032828233    2.0701874816    0.5196237324
 H   -0.2245933839    1.8510337692    1.6582715883
 H    1.4028193702    1.2987785817    2.0767065059
 H   -0.3889675723   -1.9297761349    1.2530068079
 H    0.3917047551   -1.0516187070    2.5621572636