25

 C    0.9024187453   -0.5346812049   -1.1158721085
 C    0.0507919103    0.0007178264    0.0433125135
 C    0.0249438979    1.5347876219    0.0463004541
 C   -1.3654658857   -0.5751252234   -0.0068685533
 C   -1.4791215563   -2.1140347220    0.1239634615
 C   -2.7539598711   -2.3222222915    0.9782609456
 C   -3.2700346813   -0.8865717301    1.2239770264
 C   -3.8993387596   -0.6390784645    2.5834239328
 O   -2.1214145252   -0.0600220867    1.0841797275
 H    1.9158761825   -0.1237256064   -1.0712147727
 H    0.9849397033   -1.6257489010   -1.0981141797
 H    0.4731575848   -0.2468840558   -2.0832427784
 H    0.4943328501   -0.3384613153    0.9901841293
 H   -0.4032259655    1.9190263000   -0.8876728875
 H   -0.5784733788    1.9129594871    0.8738549405
 H    1.0378900823    1.9405639284    0.1377101814
 H   -1.8431852588   -0.2576693518   -0.9530304853
 H   -1.5419517181   -2.5989020913   -0.8531520154
 H   -0.5989550222   -2.5181695508    0.6333078604
 H   -3.5042073763   -2.9426499101    0.4812144752
 H   -2.5109369935   -2.8022746926    1.9310907613
 H   -3.9949773209   -0.6265185073    0.4318599039
 H   -3.1880166541   -0.8793000330    3.3800060931
 H   -4.1943012470    0.4086883309    2.6894689149
 H   -4.7900077623   -1.2620363061    2.7120213295