19

 O    0.0249163457   -0.0402684593    0.5964978479
 C   -0.0058205432    1.1032182284    0.1747904164
 C   -1.3610608825    1.7023072130   -0.2304817841
 C   -1.5123912902    3.2056058805   -0.5057085864
 C   -0.7000108934    3.6411587645   -1.7062262876
 N    0.0545373868    4.9030183224   -1.6084993358
 C    0.7792363819    3.6184135196   -1.6130187934
 C    1.4026970268    3.2087310468   -0.2941322833
 N    1.1654085570    1.8045849228    0.0257568202
 H   -1.6657701385    1.1336185852   -1.1190035266
 H   -2.0488810271    1.3885480265    0.5601424714
 H   -2.5734106900    3.4239058979   -0.6726037882
 H   -1.2161485305    3.7966544154    0.3653648169
 H   -1.1288241063    3.3881132845   -2.6744196767
 H    0.1222024407    5.3453734501   -2.5209919946
 H    1.3370868894    3.3435484732   -2.5050935870
 H    2.4876565852    3.3429687259   -0.3310878139
 H    1.0328650569    3.8778464373    0.4907850286
 H    1.9533722613    1.2678503650    0.3580530861