18

 C   -0.1029393721    1.4214720329   -0.1319338902
 C    1.2795988123    0.9087637518    0.1623564175
 C    0.1186617973   -0.0544445818    0.1121344004
 C   -0.3895472730   -0.6737337042    1.3570204159
 C   -0.5035816502   -0.0912271622    2.7952481148
 C   -0.7953204791   -1.6082477842    2.8368212528
 C   -1.7044381761   -1.4699292729    1.5980024978
 O    0.3574916957   -1.8341844214    1.9415960123
 H   -0.6083556965    1.9886875835    0.6423165371
 H   -0.3393869200    1.7369307900   -1.1416832303
 H    2.0009232916    0.8681747500   -0.6456331510
 H    1.7086070488    1.1281446551    1.1334489408
 H    0.0641076115   -0.7050887094   -0.7558258284
 H    0.4403289366    0.2075438401    3.2534149780
 H   -1.3234948362    0.6003568615    3.0078122380
 H   -0.8955972544   -2.2653059771    3.7001697048
 H   -2.6359593361   -0.9054388166    1.6938500506
 H   -1.8106475301   -2.3750552352    0.9983444693