21

 C    0.6536064766    1.4325673467   -0.4086134516
 C    0.2100504932    0.0136208430   -0.1999474751
 C   -1.1349287057   -0.3757747721    0.4018377751
 C    0.1290721281   -0.8494268081    1.0405238235
 O    0.6187822321   -2.0120862992    0.3721208676
 C    0.8675095377   -1.2234470619   -0.8332822099
 C    0.3811861872   -1.8726870426   -2.1016759527
 C   -0.9169661171   -1.5227483511   -2.7822241753
 C    0.3933882302   -1.0977992574   -3.3966902251
 H    1.7467718446    1.5098642620   -0.4227874622
 H    0.2775534317    1.8409159857   -1.3546282496
 H    0.2846659543    2.0811184664    0.3926391460
 H   -1.6387784208    0.4437080794    0.9067509928
 H   -1.7891033689   -1.1003201912   -0.0718917953
 H    0.4288878506   -0.6859735219    2.0696877342
 H    1.9532811086   -1.0599461180   -0.9067528228
 H    0.6918446254   -2.9122925190   -2.1705048328
 H   -1.4740875168   -2.3229160901   -3.2571002903
 H   -1.5345118363   -0.7485887005   -2.3430377215
 H    0.6475913671   -0.0433314175   -3.3529129707
 H    0.7397729283   -1.5979842527   -4.2942267043