15

 O   -0.2042396916    0.2023839104    0.6249117254
 C   -0.0040928266    1.2047923429   -0.0130711146
 C    1.3291850701    1.8539613238   -0.1184251251
 C    2.4604075945    1.5516312289    0.9344491887
 C    2.8538070735    2.9354631234    0.4706558007
 N    3.7547000262    3.0888727831   -0.4152007509
 C    2.9968102849    3.3504799825   -1.6646982428
 C    1.5866785123    2.9074915965   -1.2492947581
 N    1.4367643974    3.3434524144    0.1218889865
 H   -0.8167627221    1.7246213674   -0.5662204788
 H    1.9808327167    1.4428710372    1.9092135103
 H    3.2002135770    0.7757405850    0.7503900680
 H    2.9736397599    4.4000901005   -1.9907050388
 H    3.4597476112    2.7578115820   -2.4588395303
 H    0.7442637265    3.0820196922   -1.9157974203