24

 C    0.2879048537    0.8938032981    1.0010142326
 C    0.3387170131   -0.2421962250   -0.0317881499
 C    1.4397817876   -1.2500109009    0.3141412192
 O    2.6881773224   -0.5723761690    0.2866044216
 C   -1.0034797605   -0.9522392102   -0.1074827754
 C   -2.1605104465   -0.4503730922   -0.9157855337
 C   -2.0994809989    0.7979388563   -1.7718226927
 N   -1.4909045663   -1.7051205259   -1.2697019557
 C   -0.7090732557   -1.8015202061   -2.4926591198
 H    1.2761211916    1.3427016382    1.1214524573
 H   -0.4173726576    1.6727586051    0.6975001485
 H   -0.0341456742    0.5147565444    1.9785557733
 H    0.6029706793    0.1870163936   -1.0034036877
 H    1.2404529678   -1.6789637407    1.3106458522
 H    1.4249116261   -2.0802260020   -0.4082377057
 H    3.3726059387   -1.1897548817    0.5593668536
 H   -1.2497455597   -1.4498299993    0.8338178297
 H   -3.1549174760   -0.6187216046   -0.5000387813
 H   -1.0932496935    1.0401808055   -2.1175659313
 H   -2.7403310719    0.6925347972   -2.6545765813
 H   -2.4692695275    1.6568477610   -1.2017181787
 H   -0.1011927447   -0.9234478780   -2.7526787089
 H   -0.0362722920   -2.6620098160   -2.4140019458
 H   -1.3914355353   -1.9925355077   -3.3277043500