13

 O    0.0674236981    1.3018093971    0.1480347915
 C    0.0510799790   -0.0848070205   -0.0732323225
 C   -1.4070163478   -0.5303748044   -0.2040557386
 C   -1.3799196647   -0.4063271616   -1.6633049765
 C    0.1911199091   -0.5062792977   -1.5795846964
 C   -0.0863823108   -1.9958272016   -1.4735111155
 O    0.4657632332   -3.0122994411   -1.7474833602
 N   -1.4704105336   -1.7916971741   -1.0340098147
 H    0.9841237794    1.5919194004    0.1924138164
 H    0.6945539041   -0.6201505721    0.6387482723
 H   -2.2138371033   -0.3813435705    0.5014624497
 H   -2.0743885908   -0.0845370802   -2.4237042860
 H    0.9522789280   -0.0782093838   -2.2258822994