18

 C    0.2296879834    1.5700600338   -0.1185297099
 C    0.0247368497    0.0581011320    0.0170640501
 N    0.3784383791   -0.5926285830   -1.2441882705
 C    0.9721615993   -1.7065113070   -1.2459632153
 O    1.4290193057   -2.4514589799   -0.2070587943
 C    1.3951975114   -1.8457308770    1.0646752572
 C    2.2280652703   -0.6066215062    1.3066800941
 C    0.7139494578   -0.5331622326    1.2430274987
 O    0.0186245376   -0.3937290916    2.4516490145
 H    1.2875068296    1.8077106905   -0.2680088683
 H   -0.3281863397    1.9456337658   -0.9796810564
 H   -0.1200768871    2.0968676053    0.7760771323
 H   -1.0466056651   -0.1274733062    0.1752084650
 H    1.1941219287   -2.2171561723   -2.1808187747
 H    1.3141694115   -2.5926058883    1.8442717936
 H    2.6964756213   -0.5072725203    2.2792061359
 H    2.7986916788   -0.2179285973    0.4693687097
 H    0.1382649478    0.5110622544    2.7611507083