21

 C   -0.0562403249    1.4667526089   -0.3280355835
 C   -0.1293426300   -0.0375158871   -0.1310184360
 C   -0.3334006086   -0.6244185323    1.2422632071
 C   -1.4371324464   -0.7011393949    0.2146955777
 C    1.3272705651    2.0252621459   -0.1337734100
 C    1.9135196535    2.4454135411    1.2032532390
 C    1.8537059960    3.4282154991    0.0743639965
 O    2.9577041804    3.2404065954   -0.8149191454
 C    2.4802932566    1.9054573296   -1.1331273491
 H   -0.4120744855    1.7196544499   -1.3368948570
 H   -0.7469238333    1.9546792217    0.3717790727
 H    0.5240712964   -0.6033207634   -0.7913068536
 H    0.1940539151   -1.5353068939    1.5028233583
 H   -0.4629341260    0.0627303459    2.0720255004
 H   -2.3053067049   -0.0649711619    0.3557942825
 H   -1.6635294080   -1.6641133701   -0.2295150466
 H    1.1774798196    2.5890546956    1.9890821617
 H    2.8801086447    2.0777313763    1.5382973166
 H    1.3796804205    4.4033233476    0.0993101684
 H    3.2408492809    1.1356345007   -0.9543186003
 H    2.1445491390    1.8580679159   -2.1767501194