19

 C    0.0918716563    1.4816573393    0.0612820088
 N   -0.0073963385    0.0306904518   -0.0017841803
 C    0.7556534201   -0.5908240358    1.0718882836
 C   -1.3841894161   -0.4460572697   -0.0169795589
 C   -2.0872330603   -0.1344163918   -1.3398939920
 C   -3.4169305636   -0.8326120585   -1.4753476118
 O   -3.9008035821   -1.5856895152   -0.6686630556
 C   -4.1428955811   -0.5309557623   -2.7328415822
 N   -4.6994361153   -0.2853045856   -3.7161591090
 H    1.1452721714    1.7757931742    0.0426450017
 H   -0.3919980456    1.9426915920   -0.8042865038
 H   -0.3649609895    1.9068679577    0.9758724490
 H    0.3791435817   -0.3347817958    2.0806186510
 H    0.7281888067   -1.6795597500    0.9667421452
 H    1.8000101933   -0.2695112544    1.0125489431
 H   -1.3718461681   -1.5318553387    0.1146117497
 H   -1.9819073213   -0.0411991554    0.8219494147
 H   -2.2666198677    0.9390215450   -1.4830456623
 H   -1.4554345503   -0.4365158468   -2.1868354510