19

 C    0.0465433571    1.4881600730    0.0114275431
 C   -0.0500332758   -0.0006457774   -0.0584535348
 C   -0.1366522283   -0.8023920945   -1.1272092965
 C   -0.0479846675   -2.2466736042   -0.6855962549
 C    1.4250232006   -2.4940993902   -0.1543767004
 C    0.9464524165   -2.0723695131    1.2267309892
 C   -0.5037029465   -2.2341212747    0.8111217867
 C   -0.0319402223   -0.8626607943    1.1708160121
 O   -0.4308095978   -0.3416331874    2.4013692398
 H    1.0122415472    1.8089964294    0.4255313245
 H   -0.0602689394    1.9428939931   -0.9767344661
 H   -0.7274033571    1.8991637530    0.6696944785
 H   -0.0930007923   -0.4894963664   -2.1640093190
 H   -0.4498762461   -2.9958026689   -1.3657540698
 H    1.6658463144   -3.5607217876   -0.1633336913
 H    2.2287517224   -1.9303474571   -0.6405148584
 H    1.4040463620   -2.3146363308    2.1795269549
 H   -1.3300242130   -2.7489991598    1.2851876472
 H    0.3266729658    0.0953086577    2.8042738351