21

 C   -0.3693516112    1.5172420368    0.0896592892
 C    0.0364434501    0.0463116599   -0.0217156892
 C    0.7617966986   -0.3829015610   -1.3503048932
 N    2.2026489377   -0.6027829963   -1.1300310963
 C    2.7155324709    0.6111936456   -0.4054593092
 C    2.3601704954   -0.0628599054    0.9119201877
 C    2.4449164690   -1.4111315274    0.1557631526
 C    1.1861629040   -1.8360968762    0.8881431576
 N    0.8671999825   -0.3820363001    1.1265433119
 H    0.4845017194    2.1982202092    0.1065927165
 H   -1.0074236131    1.8015297035   -0.7538850214
 H   -0.9319347281    1.6732617214    1.0147470753
 H   -0.8899490477   -0.5358511900    0.0603319113
 H    0.3279182000   -1.3056523894   -1.7475805494
 H    0.6540764441    0.3782650001   -2.1309782566
 H    3.8036504725    0.6867547888   -0.5188112490
 H    2.2663258485    1.5604371107   -0.7038934455
 H    2.8573195606    0.1842237790    1.8527865119
 H    3.3265409742   -2.0506200268    0.0710519823
 H    0.4115156676   -2.4073315059    0.3666714905
 H    1.4201685350   -2.3384527364    1.8336110428