19

 C   -0.0498417057    1.6343733638    0.3209293135
 C   -0.0092766647    0.1599513644   -0.1056875456
 O    0.8700487179   -0.6024920869    0.7183755244
 C   -1.3541039823   -0.4240741497   -0.1539392569
 C   -2.4578887350   -0.9097068722   -0.1594902146
 C   -3.7844281148   -1.4634658166   -0.1621079274
 O   -4.1324343767   -2.3629675651   -1.2316553412
 C   -4.0461356904   -2.9024477854    0.0840658368
 C   -2.9546640457   -3.9027195622    0.3532206465
 H    0.9681600679    2.0311812243    0.3490130330
 H   -0.6470969119    2.2264326889   -0.3784121016
 H   -0.4946021602    1.7334108874    1.3165398822
 H    0.4343049613    0.0960273570   -1.1067756679
 H    0.4563999827   -0.6808694461    1.5853344436
 H   -4.5780689548   -0.7596961286    0.0892027182
 H   -5.0178631679   -3.1388810694    0.5234525716
 H   -1.9994003151   -3.5536257244   -0.0438727657
 H   -2.8496682268   -4.0691357537    1.4306486941
 H   -3.1998246277   -4.8624197055   -0.1130642832