21

 C    0.0004880020    1.0180857740   -0.8848976357
 N   -0.0209335335   -0.1284880804    0.0032830779
 C    1.2333860935   -0.5308175599    0.6056042962
 C   -1.1990800525   -0.8317629940    0.1503146773
 O   -2.2661021077   -0.4367985942   -0.3016109744
 N   -1.0979396422   -2.0015248616    0.8913799492
 C   -2.2568936676   -2.8785479400    0.9540788861
 C   -2.3043965111   -3.8654613847   -0.2061968454
 O   -1.1104311039   -4.6415998571   -0.1444504259
 H    0.3593174939    1.9112416873   -0.3579039014
 H    0.6581939458    0.8441881592   -1.7479312855
 H   -1.0152215327    1.1925615342   -1.2356970842
 H    1.0651234031   -0.9718976134    1.5911135953
 H    1.8008352753   -1.2462104217   -0.0105062694
 H    1.8620334598    0.3540256536    0.7436489843
 H   -0.2247957615   -2.5034639792    0.8367827098
 H   -2.2225896776   -3.4342870861    1.8976884381
 H   -3.1502803207   -2.2534057590    0.9428727175
 H   -3.1992944993   -4.5006005192   -0.1158598496
 H   -2.3723885527   -3.3075975363   -1.1504027814
 H   -1.0423263306   -5.1588769215   -0.9514900687