8

 O   -0.1468473955    1.3046236601    0.0106154740
 N    1.2395184035    1.7868736704    0.0000777491
 N    2.0219462811    0.8122008524   -0.0132454642
 N    1.2793357004   -0.3119431367   -0.0120535992
 N    1.4374760487   -1.6638572485   -0.0206185864
 N    0.2185064836   -2.1018949842   -0.0118165397
 N   -0.7458774653   -1.1110809525    0.0029139782
 C   -0.0331343165   -0.0156819910    0.0022061082