22

 C   -0.1039670099    1.5609368196   -0.2088377478
 C   -0.0612665937    0.0723315871    0.0321529416
 N    1.2193091499   -0.6224706359   -0.1306304790
 C    0.6029868524   -0.5772455551    1.2115998762
 C    1.3274153552    0.1447889192    2.2855910870
 C    0.9722198656    0.1684642850    3.5743098819
 C    1.9567417522    0.9177153940    4.4379803325
 C    2.8444818814    1.6447813940    3.3956621284
 C    2.6467286414    0.8653351925    2.0737330448
 H    0.7959463482    2.0537658643    0.1619784829
 H   -0.1888954636    1.7750996165   -1.2798752044
 H   -0.9701637912    2.0053665973    0.2932518054
 H   -0.9476050771   -0.4549139689   -0.3225092136
 H    1.0886489920   -1.5362316741   -0.5547498077
 H    0.1006039609   -1.4811872154    1.5545299941
 H    0.1013335700   -0.3348695853    3.9829233146
 H    1.4763534997    1.6116581097    5.1377024675
 H    2.5398046567    0.2188296781    5.0562094625
 H    2.4837789712    2.6708276677    3.2683292608
 H    3.8927811415    1.7075422172    3.6987900331
 H    3.4419073379    0.1258067450    1.9047677530
 H    2.6584799192    1.5110855376    1.1917082463