20

 C   -0.1382340212   -1.1903444195    0.1739882539
 C   -0.0165026166    0.0056413027    0.2017844466
 C    0.0987408849    1.4383508833    0.1979522831
 N    0.9435061144    2.0668887207    1.2456335782
 C    1.3708023677    2.1495199318   -0.1537719130
 C    2.6396785249    1.4164696012   -0.5280000140
 C    3.8854210213    2.2403991696   -0.2685355716
 C    4.4561616510    2.3286612148    1.1245229278
 C    5.1930130381    1.5625187049    0.0530630053
 H   -0.2402976924   -2.2471142995    0.1607747999
 H   -0.8204473590    1.9560135615   -0.0694956215
 H    0.5119135844    2.9367876209    1.5468625312
 H    1.2301466135    3.1057813400   -0.6585935488
 H    2.6825304761    0.4839292925    0.0437062156
 H    2.5893775954    1.1358366329   -1.5887161013
 H    3.9583392878    3.1445083124   -0.8693688244
 H    4.8706341590    3.2745133872    1.4560676765
 H    3.9537892284    1.7652644712    1.9027546241
 H    5.1983954745    0.4790743692    0.1155226455
 H    6.1068082679    1.9865349521   -0.3486743133