20

 C    0.7985048079    0.3961991936   -0.2129755363
 N   -0.3531388090    0.5980591602    0.6612235822
 C   -1.4905064948    1.2941223589    0.0659827517
 C   -1.5506483780   -0.1691351677    0.3263029631
 C    1.7056765249    1.5830949869   -0.2232558726
 C    3.1994022013    1.5792490336   -0.3391006899
 C    2.5349243563    2.2948195489    0.8231029581
 C    1.8659582208    3.5593998945    0.3052015734
 O    1.1827580684    2.8178434646   -0.7438564756
 H    1.3580940379   -0.4738783876    0.1490597954
 H    0.4985640358    0.1784092963   -1.2562161087
 H   -2.0070671040    1.9923117641    0.7181635973
 H   -1.4003371984    1.6208065020   -0.9671308519
 H   -1.5081450647   -0.8313683280   -0.5374527248
 H   -2.1091592829   -0.5618491703    1.1711252773
 H    3.6932972557    0.6497695281   -0.0726141025
 H    3.6735232657    2.1436379074   -1.1378707940
 H    2.7176685360    2.0449694625    1.8588190671
 H    1.1404223477    3.9899615790    1.0037730045
 H    2.5090349034    4.3501587131   -0.0997872238