17

 C    0.0476008383    1.5521871172    0.0334484231
 C    0.0288631655    0.0326373458   -0.0094691701
 C    1.2098612132   -0.6239719279   -0.8429626518
 C    1.8943588533   -0.7355690140    0.4963423548
 C    2.8778086945   -0.1911340433    1.2149559041
 C    2.3069986103    0.1768429995    2.5435389913
 O    2.8285612318    0.6663337173    3.5012537041
 O    0.9278058623   -0.0593895864    2.4997019361
 C    0.6291609707   -0.6884330048    1.2745742105
 H    1.0430182284    1.9345992363    0.2795785678
 H   -0.2436762222    1.9673504814   -0.9361435131
 H   -0.6488347862    1.9262417444    0.7891046710
 H   -0.9624309380   -0.3419627688   -0.2754521934
 H    0.9169566778   -1.5805526594   -1.2825221493
 H    1.7010333955   -0.0077419474   -1.5978061585
 H    3.8700291943    0.1215351321    0.9246776237
 H    0.1156909904   -1.6348309521    1.4662527798