24

 C    0.0043034761    1.5092453552    0.0710711000
 C    0.0431477652   -0.0180759933   -0.0296930781
 N    0.7081287968   -0.4933484927   -1.2449670045
 C    2.1378212505   -0.7686720208   -1.1630988591
 C    2.4674613162   -2.1601773872   -0.6086170438
 C   -0.0536159187   -0.6270352740   -2.3779133447
 O   -1.2454176694   -0.3542510259   -2.3766974402
 C    0.6405854020   -1.1256607729   -3.6482691781
 C   -0.3592627860   -1.3888699872   -4.7736969839
 H    1.0112994051    1.9396469021    0.0501122573
 H   -0.5689132754    1.9231700332   -0.7619423768
 H   -0.4740830627    1.8178829540    1.0062738470
 H    0.5686126906   -0.4456370512    0.8308723554
 H   -0.9748713325   -0.4116735545   -0.0334691017
 H    2.5898808239   -0.6449440827   -2.1488026928
 H    2.5922113912   -0.0016050769   -0.5244207948
 H    2.0424046137   -2.2996138727    0.3899283001
 H    2.0664525562   -2.9459879451   -1.2557737056
 H    3.5514976360   -2.2953795935   -0.5355787878
 H    1.3748492583   -0.3734850454   -3.9663818010
 H    1.2177406345   -2.0314056565   -3.4289467910
 H   -1.0773770096   -2.1605761922   -4.4854969827
 H   -0.9302073751   -0.4871595418   -5.0036347695
 H    0.1616651731   -1.7179954579   -5.6776842336