23

 C   -0.1702811222    1.3425729656    0.0311921061
 O    0.1081485922   -0.0350675755   -0.0457497700
 C    0.7229264682   -0.5864052846    1.1085762259
 C   -0.2406667594   -0.6939632250    2.3022663194
 C    0.3242156476   -1.5638124399    3.3953826364
 C    1.3661872006   -2.3758090027    3.2202433050
 C    2.0938094682   -2.5260409969    1.9082984739
 C    1.2966921108   -1.9575753912    0.7178216904
 C    0.2137771266   -2.9328503652    0.2324814044
 H    0.7295388660    1.9252085017    0.2862538970
 H   -0.5218058197    1.6558846610   -0.9553944268
 H   -0.9516940170    1.5793641262    0.7680716686
 H    1.5667636300    0.0608940549    1.4063310534
 H   -0.4608327664    0.3024804582    2.7042802496
 H   -1.2026005993   -1.0924224677    1.9495808739
 H   -0.1595133473   -1.5063025518    4.3676765258
 H    1.7332410179   -2.9665199005    4.0565203061
 H    3.0735209674   -2.0307957339    1.9800941507
 H    2.3178449090   -3.5853353691    1.7273620150
 H    1.9861695457   -1.7808696570   -0.1158540408
 H   -0.4455572608   -3.2440695077    1.0489482914
 H   -0.3970175068   -2.4725085197   -0.5475355423
 H    0.6741552289   -3.8365337792   -0.1800541230