13

 O    0.0018590917   -0.0926149506    0.0695017845
 C   -0.0139538967    1.0984535058    0.0309724651
 C   -1.0236701735    2.2404487760    0.0268626115
 C   -0.0219728632    3.1189479653    0.8581594796
 O   -0.0553239273    4.2522083639   -0.0475251001
 C   -0.0588311549    3.0763770132   -0.9167749491
 C   -0.0903695681    3.2071677613   -2.3353608479
 C   -0.1168193672    3.3037867270   -3.5328757557
 C    0.9656253331    2.2655027512   -0.0150519764
 H   -2.1090658373    2.2830756656    0.0372050252
 H   -0.0015449550    3.2913386801    1.9307181212
 H   -0.1402371376    3.3922009972   -4.5915272942
 H    2.0490766462    2.3354408939   -0.0504034936