19

 O    0.3633313032   -0.2410969482    0.5564510826
 C    0.1130911381    0.8971314525    0.2660481408
 C    1.1526886195    2.0305854595    0.1656985664
 C    1.1110678151    2.5536557616   -1.2493546689
 C    0.3340913204    3.5146278482   -1.7496965996
 C   -0.6427977489    4.3785384197   -0.9917595119
 C   -0.0448203343    5.0982813200    0.2285350874
 C    0.4285306010    4.2159050887    1.3523741830
 C    0.9143212915    2.9736835568    1.3201879268
 H   -0.9234034588    1.2332763788    0.0406719508
 H    2.1184103901    1.5411310339    0.3345557111
 H    1.7537232497    2.0085921836   -1.9368258628
 H    0.4141719087    3.7108013682   -2.8167853014
 H   -1.0536821097    5.1322900236   -1.6711759500
 H   -1.4985712905    3.7772271418   -0.6578778860
 H    0.7855383315    5.7371344144   -0.1039451049
 H   -0.7989497308    5.7859243950    0.6307912639
 H    0.3796649758    4.6827999808    2.3350366381
 H    1.1889784581    2.5282313110    2.2749044849