19

 C    0.0829771517    1.5060428733   -0.2770258311
 C   -0.0328541684    0.0320258328   -0.0215256229
 O    0.4114413572   -0.8350177176   -1.1339406650
 C   -0.0172886423   -1.7581596703   -0.0929406315
 C    0.6730152406   -0.9013432815    1.0231559334
 C   -0.1556010232   -1.0143124616    2.2903549173
 C   -1.1092207604    0.1039319420    2.6403431822
 C   -1.5660664709   -1.0032625418    1.7196145651
 C   -1.2784152956   -0.8863542481    0.2332260238
 H    1.1260555336    1.7643484839   -0.4852144026
 H   -0.5175225011    1.7779041740   -1.1510179197
 H   -0.2566519212    2.1025924036    0.5721189154
 H    0.0552957938   -2.8280531510   -0.2930640505
 H    1.7617563020   -0.8853011455    1.0681825806
 H    0.1456227039   -1.7142028567    3.0612163524
 H   -1.5161962723    0.0834651672    3.6465210910
 H   -0.9472277990    1.1047000749    2.2600501392
 H   -2.3282488642   -1.6949219721    2.0594668215
 H   -2.0916535943   -0.8563978254   -0.4916002488