18

 C   -0.0280042420    1.5011788071    0.1961719583
 C    1.5114650150    1.5616412474   -0.1421869964
 C    1.2869118245    0.2595858697   -0.9134036704
 C    1.7776591375   -1.1011903181   -1.4271492113
 C    0.4096212874   -0.9245321444   -2.1738370144
 C   -0.7266535716   -0.9200662218   -1.1037806206
 C    0.0279846862   -0.0387894548   -0.0761872176
 O    0.6990492486    0.5007046494   -2.2364490727
 H   -0.3260259153    1.8155314707    1.1983257095
 H   -0.6191184171    2.0370092639   -0.5469203015
 H    1.8916064784    2.4116325758   -0.7122614374
 H    2.1235992892    1.4153991156    0.7515442223
 H    2.6054252395   -1.0505893551   -2.1358799591
 H    1.9070908213   -1.9126358624   -0.7054547654
 H    0.2209045635   -1.3860243218   -3.1437474618
 H   -1.6266596496   -0.4655839223   -1.5253937315
 H   -0.9840076841   -1.9093753822   -0.7146048952
 H    0.2534333585   -0.5738961968    0.8504267153