17

 C   -0.0573251778    1.5397454284   -0.0152518993
 N    0.0873331413    0.0895036436    0.0196876262
 C    1.1136844593   -0.5823204375   -0.8266221500
 C    2.5042880225    0.0251739011   -0.4522038240
 C    2.2877374120   -0.6166829690    0.9139144373
 C    1.3350859732   -1.6314361316    0.3317090803
 C    0.7380704364   -0.5337003854    1.1661983799
 C    0.1790187417   -0.5786863335    2.4774101512
 N   -0.2681729957   -0.6007695650    3.5446500373
 H    0.8629688423    2.1016627242    0.2021386007
 H   -0.4205213257    1.8321536219   -1.0053536638
 H   -0.8134530399    1.8307847910    0.7201288003
 H    0.8351951581   -0.7828694568   -1.8590278440
 H    3.2991599592   -0.4935893005   -0.9936993966
 H    2.6464227593    1.1062151870   -0.5342715998
 H    2.9790017053   -0.7407223380    1.7369984066
 H    1.2381727384   -2.7038176500    0.4084566079