16

 C   -0.0041566916    1.4832443668   -0.0169809371
 N    0.0476620758    0.0374344171    0.0141176950
 C    0.1402473205   -0.8016974359   -1.0310279775
 O    0.1973774956   -0.3124001593   -2.2844821655
 N    0.1660612446   -2.0732425744   -0.6961940141
 C    0.0835026117   -2.0565724067    0.6743553428
 O    0.0820236727   -3.2051446455    1.3944390878
 C    0.0077887385   -0.7864554642    1.1724003300
 N   -0.0890241456   -0.2225366961    2.4543882383
 H    0.8986632263    1.8989596006   -0.4746109716
 H   -0.8739136753    1.8331056056   -0.5812846985
 H   -0.0789446731    1.8255361084    1.0160010010
 H    0.2597384685   -1.0776996199   -2.8692364611
 H    0.1460183013   -3.9230272327    0.7540238080
 H    0.7055252366   -0.4498577597    3.0423336917
 H   -0.9295159064   -0.5086014441    2.9446949709