17

 O    0.0535632805    1.3362125225    0.0311356892
 C    0.0603782511   -0.0129505029    0.0714464335
 N    0.0979234873   -0.7405009179   -1.0329518350
 N    0.0917508248   -2.0223129875   -0.5681994308
 C    0.0513319011   -2.1025934681    0.7865355816
 C    0.0297123575   -0.7971325965    1.2449175988
 C    0.0362313322   -3.3690097799    1.5394955272
 C   -0.6923229681   -4.5943654483    1.0211758162
 C    0.8088766930   -4.5855054013    1.0661584331
 H    0.0801244565    1.5885348079   -0.9003730959
 H    0.1156397784   -2.7725118469   -1.2352559159
 H   -0.0029776892   -0.4610566116    2.2674668128
 H    0.0031629671   -3.2155263211    2.6121087880
 H   -1.2301357461   -5.2033076113    1.7390161805
 H   -1.1822289935   -4.5139881544    0.0564765578
 H    1.3546654858   -4.4989708396    0.1324881393
 H    1.3099137115   -5.1883513031    1.8150819995