19

 C    0.0716317521    1.4801495256   -0.1595907780
 C   -0.0668434551    0.0006713144    0.0678015350
 C   -1.3203790436   -0.7434959872   -0.3639264621
 C   -1.1691842906   -2.1533240580    0.2511140609
 C   -0.2900603855   -1.9673664592    1.5225913205
 C    0.5619641659   -3.1846441503    1.8061505570
 O    0.5174693088   -3.8389925196    2.8162670686
 C    0.5436485945   -0.7363147520    1.1851736032
 O    1.1257158836   -0.7871694698   -0.1265836841
 H    1.0159526741    1.8471296168    0.2495167931
 H    0.0536487855    1.7089125154   -1.2307238926
 H   -0.7525447687    2.0249548172    0.3127773429
 H   -2.1969690482   -0.2242388650    0.0420782588
 H   -1.4331301000   -0.7747021507   -1.4523275089
 H   -2.1268385932   -2.6205246780    0.4885583426
 H   -0.6502119328   -2.8080600107   -0.4542676979
 H   -0.8970355591   -1.7639188166    2.4112991843
 H    1.2601708444   -3.4437014757    0.9779209390
 H    1.1512893078   -0.2580613767    1.9498537776