21

 C    3.0347357605   -1.7550396194    0.5213586236
 C    1.7724095744   -0.9875668540    0.1852083634
 C    0.4439844017   -1.6551130573    0.0511833091
 C    0.6825459306   -0.6968007074    1.2212865547
 C    0.7601541450   -1.2926172156    2.6234896397
 O   -0.5122367699   -1.5849361154    3.1620054244
 C   -0.0229992327    0.6243976784    1.1877281356
 C   -0.0023371614    1.4763046389   -0.0707147256
 O   -0.6060641770    1.0305595536    2.1793852316
 H    2.8359294549   -2.6364088415    1.1353049394
 H    3.5133538746   -2.1023388606   -0.4005436667
 H    3.7560463901   -1.1270727892    1.0547700733
 H    1.9498066208   -0.1720675957   -0.5101497786
 H   -0.2302320293   -1.3547075412   -0.7428599653
 H    0.3610519442   -2.7008346799    0.3291252496
 H    1.3096117098   -2.2369789244    2.6021932370
 H    1.3194378739   -0.6017869867    3.2732860852
 H   -0.9555438729   -0.7281543773    3.2224493000
 H   -0.7731719662    2.2426188339    0.0155314433
 H    0.9715944182    1.9712486627   -0.1608671205
 H   -0.1563521296    0.8954623082   -0.9837282233