18

 C   -0.0061795873    2.0827709510   -0.1752881432
 C   -0.0624841760    0.5686247991    0.0208526659
 C    0.2928441007   -0.2053285608   -1.2567018709
 O    1.6098874014    0.1348450594   -1.7003476062
 C    2.5980619900   -0.7571546052   -1.4838263680
 O    3.7431013083   -0.5175105737   -1.7219975936
 N    0.8122193539    0.1760287170    1.1227393938
 C    0.6602161070   -0.9988171647    1.7879661253
 O   -0.1757710286   -1.8366673543    1.5154046047
 H    0.9968357626    2.3984857690   -0.4780072565
 H   -0.7028143297    2.3898750484   -0.9599340545
 H   -0.2795555399    2.6033462785    0.7466412012
 H   -1.0785745472    0.2600669525    0.2924382095
 H    0.2151399992   -1.2804167353   -1.0650248010
 H   -0.3943978954    0.0612812483   -2.0648336994
 H    2.2260766812   -1.7185924310   -1.0813353200
 H    1.5493958551    0.8032989972    1.4037601455
 H    1.3882980347   -1.1121711352    2.6145172273