21

 C   -0.0067872869    1.5790768581    0.0600919549
 C    0.1073887858    0.0584458697    0.0369537633
 C    1.1678623905   -0.6480376636   -0.8112350745
 C    2.4473500015   -0.7584638063    0.0222856369
 C    1.3190470799   -1.7619416690    0.1908583136
 C    0.7140122462   -0.7270124432    1.2454077625
 C   -0.0965687327   -1.0436110617    2.4725824035
 C    2.1645838470   -0.1597585420    1.3953190679
 O    2.9070744219   -0.7615043816    2.4375422738
 H    0.9626647643    2.0669957031    0.1937662740
 H   -0.4302776396    1.9462565883   -0.8813365797
 H   -0.6676808845    1.9135909120    0.8679919341
 H   -0.8720431728   -0.3788879733   -0.1948293513
 H    1.2126764348   -0.7288838508   -1.8908614489
 H    3.4141642255   -0.9110156413   -0.4418274884
 H    1.2700804976   -2.8352001647    0.0753927014
 H    0.5088375166   -1.5730656061    3.2151081686
 H   -0.4588711551   -0.1223469524    2.9445469913
 H   -0.9689334931   -1.6600710998    2.2311001000
 H    2.2766482110    0.9172737172    1.5512940955
 H    2.9577162621   -1.7056841525    2.2438321713