20

 C    0.0594742562    1.5264341560   -0.2162948305
 C    0.0716243018    0.0226425095   -0.0188663463
 O    0.6843519382   -0.5628463648   -1.1803926370
 C    0.7799537807   -1.9100044918   -1.2122588551
 N    0.3605713447   -2.6185150919   -0.2464810353
 C    1.4815821433   -2.3263791541   -2.4764193773
 O    1.4285859943   -1.4049413333   -3.5234709166
 C    2.7530722349   -3.1520953331   -2.3242956027
 C    1.4996184395   -3.7607899367   -2.9047518386
 H    1.0756584101    1.9163104459   -0.3260703015
 H   -0.5138939278    1.8003639217   -1.1066546313
 H   -0.4011075467    2.0092791906    0.6506149193
 H    0.6410560991   -0.2741844340    0.8675877029
 H   -0.9366164721   -0.3882411328    0.0919606837
 H    0.4896765232   -3.6103875604   -0.4305056321
 H    1.4809418569   -0.5303427136   -3.1203868560
 H    3.5566123308   -2.9074082466   -3.0091604002
 H    3.0572110637   -3.4440162678   -1.3252600430
 H    0.9484409714   -4.4930131766   -2.3247102649
 H    1.4682545977   -3.9171423460   -3.9767186976