18

 O    0.0999890618    1.2475934412   -0.5263031953
 C   -0.0535689581   -0.1252543647   -0.2407156528
 C   -1.5175454259   -0.5069091118    0.0585720174
 C   -2.4385569616   -0.4015784188   -1.2004927828
 C   -2.2515268345   -1.9228211259   -1.4436747436
 C   -1.7745761670   -2.0682772180    0.0223471425
 O   -0.7424991503   -2.9484413149    0.3573966954
 C   -1.9605508887    0.2022556567    1.2495492705
 N   -2.2956509720    0.7842308168    2.1921818887
 H   -0.1068900207    1.7443620698    0.2739542447
 H    0.2791624425   -0.6530504971   -1.1411109855
 H    0.5815896835   -0.4502034392    0.5944844251
 H   -3.4649964317   -0.1436423090   -0.9358708644
 H   -2.0832536738    0.2882581452   -1.9665624392
 H   -3.1241328909   -2.5057895549   -1.7416244556
 H   -1.4414891728   -2.1288098498   -2.1514194377
 H   -2.6073762616   -2.3101876998    0.6871061172
 H   -0.0763587380   -2.9288433958   -0.3372196846