21

 C    0.0037273309    1.5382737448    0.0011989694
 C    0.0375981649    0.0369580749   -0.0138298042
 C   -0.9151812984   -0.8246366004    0.7610697906
 C    0.5615061336   -0.9617719440    1.0341754409
 C    1.2511206496   -1.7951916558   -0.0504869237
 C    0.8923652393   -3.2623833890   -0.2108986403
 O    1.3592496511   -3.6600425487   -1.5078403588
 C    0.6762463932   -0.8033988612   -1.1264886112
 O   -0.2303487229   -1.3301554841   -2.0686369415
 H    0.9838747083    1.9644211543   -0.2426432773
 H   -0.7167746915    1.9241373499   -0.7298508289
 H   -0.2897761864    1.9179276696    0.9856016730
 H   -1.4718297875   -0.3048051203    1.5349945754
 H   -1.4769625706   -1.6055383061    0.2585880782
 H    0.9798246293   -0.7470484678    2.0110838949
 H    2.3399312303   -1.7014857291   -0.0030564472
 H    1.3705802691   -3.8634720007    0.5766087455
 H   -0.1922621820   -3.4093502281   -0.1331827888
 H    1.1160041887   -4.5801199477   -1.6480207838
 H    1.4873572343   -0.2528021615   -1.6240160226
 H    0.1923576667   -2.1252882290   -2.4216143597