22

 C    0.0054992400    1.3937782320    0.0457730488
 O    0.0032016484   -0.0110579168    0.0037371451
 C    0.6625864638   -0.5973310004    1.1049455944
 C    0.6142962176   -2.1275915589    0.9786020356
 C   -0.8488885137   -2.6055642335    0.9717029944
 C    1.3275112077   -2.5683886910   -0.3122835831
 C    1.3455689886   -2.7047942751    2.2014001966
 O    1.3225558789   -4.1227394913    2.1243115553
 H    1.0288867407    1.8025056599    0.0363934557
 H   -0.5243652954    1.7500380662   -0.8411859342
 H   -0.5057933830    1.7779178565    0.9432628590
 H    1.7114109495   -0.2519329580    1.1435982136
 H    0.1802628871   -0.2781873632    2.0463972099
 H   -1.3851921810   -2.1792738178    0.1211207254
 H   -0.8944160512   -3.6951470502    0.9136933913
 H   -1.3667758394   -2.2945088349    1.8868297366
 H    2.3702929059   -2.2292672590   -0.3188854183
 H    1.3277017273   -3.6572885759   -0.3954509543
 H    0.8307424688   -2.1428048259   -1.1868815044
 H    2.3829140148   -2.3313387926    2.2190072649
 H    0.8514190033   -2.3557756102    3.1233286691
 H    1.7864567411   -4.4726116999    2.8897564684