19

 O    0.1350062938    1.4077987805    0.1336582831
 C    0.0449780769   -0.0068080824    0.0417933347
 C   -1.4129913803   -0.4940535466    0.0459779673
 C   -2.1222212144   -0.0788338677   -1.2522084137
 C   -1.2831260244   -0.4772498843   -2.4668451654
 O    0.0469883339    0.0318776054   -2.3752279408
 C    0.7345500483   -0.4783417279   -1.2559804935
 C    2.1775883266   -0.0047235031   -1.2867201497
 O    2.6579483134    0.7001104091   -2.1298750571
 H    0.0281678500    1.7552484918   -0.7611239841
 H    0.5773079692   -0.4077926345    0.9120984030
 H   -1.4206143360   -1.5877194956    0.1451165245
 H   -1.9244164951   -0.0818156386    0.9206941354
 H   -3.1142796583   -0.5377267627   -1.3197972520
 H   -2.2709030425    1.0070375068   -1.2590285174
 H   -1.2479159530   -1.5754228403   -2.5640034154
 H   -1.6945138445   -0.0699417429   -3.3940033968
 H    0.7536264204   -1.5852583784   -1.2705138391
 H    2.7706837160   -0.3828986488   -0.4219762529