16

 N   -0.1512125045   -1.1057617986    0.4017302817
 C   -0.0967142171    0.0256993423    0.1758717171
 C   -0.0253754999    1.4603466502   -0.1233523486
 C    1.3813355606    1.9910716169   -0.1528726679
 N    2.1640988237    2.3212565163    1.0541352767
 C    1.8894965555    3.3678001069    0.0347369107
 C    2.8741542535    3.1728987774   -1.1647265459
 N    3.7571675475    2.0223043110   -0.8680733848
 C    2.3788427679    1.7906375022   -1.3505456675
 H   -0.5127655141    1.6298945093   -1.0920806812
 H   -0.6163454905    2.0039821368    0.6236281823
 H    1.4979513580    2.4718211326    1.8133893810
 H    1.3604680037    4.2793483051    0.2813552049
 H    3.1340608083    3.9293796601   -1.8927963506
 H    4.3683974250    1.9089660067   -1.6776612177
 H    2.1667004622    1.2297157948   -2.2514317502