21

 C    0.2267178062    1.4086333472    0.0002004833
 C   -0.1233676940   -0.0961113080   -0.0012802280
 C   -1.6510989320   -0.2672089104   -0.0096117423
 C    0.5571681757   -0.8382045819   -1.1925573766
 C    1.8600607139   -1.4552541916   -0.6342505840
 C    1.6003466437   -1.5022949846    0.8651870393
 C    0.5232912087   -0.7724326322    1.1898398145
 C    2.4466401828   -2.2074132454    1.7544451367
 C    3.1924469580   -2.8254335268    2.4720868461
 H    1.3090555496    1.5639122010   -0.0482895416
 H   -0.2300594931    1.9121474723   -0.8594617710
 H   -0.1399731357    1.8983987767    0.9087999735
 H   -2.0846666689    0.1627112759   -0.9196534240
 H   -1.9304013571   -1.3247558780    0.0317793211
 H   -2.1117664869    0.2374362772    0.8469823377
 H   -0.1030030353   -1.6398447753   -1.5393159945
 H    0.7344608392   -0.1748474640   -2.0439153241
 H    2.0725965687   -2.4455903703   -1.0487206019
 H    2.7421039738   -0.8364202000   -0.8435608600
 H    0.1639473393   -0.6274896819    2.2032233133
 H    3.8410618532   -3.3637221398    3.1174442025