16

 C    0.0086065744    1.5096737614   -0.0195894873
 N    1.2486361123    0.7002342268    0.0541648951
 C   -0.0475622999    0.0389461250    0.0375415091
 C   -0.5101806748   -0.8626498649    1.1498580293
 C   -1.7381999283   -1.5425793439    0.5519276808
 O   -1.9251136573   -1.0419819033   -0.7646056685
 C   -0.5535541096   -0.8560133360   -1.0978625543
 O    0.0629723314   -2.1059912164   -0.8087628411
 C   -0.4095501786   -2.2525773593    0.5217715557
 H   -0.2018629392    2.1009020808    0.8669718603
 H   -0.2463081279    1.9970817823   -0.9579659354
 H    1.6950739036    0.6419426313   -0.8588867138
 H   -0.3694187009   -0.6574641629    2.2003437494
 H   -2.6388266707   -1.8422861973    1.0658827501
 H   -0.4219805758   -0.5690890475   -2.1380802469
 H   -0.1381231788   -3.1745958763    1.0124948877