21

 C   -0.1612870911    1.3677748972    0.0096197767
 O    0.1147695927   -0.0143501507    0.0560885254
 C    0.7322794597   -0.5410280929   -1.1038943442
 C    1.3410699818   -1.8896692737   -0.7215565241
 C    2.0099383782   -2.5682990058   -1.9231252252
 C    1.0249521557   -2.7571450436   -3.0939024967
 C    0.3476377911   -1.4425595436   -3.4526182023
 O    0.3095926804   -1.0093601124   -4.5805132529
 C   -0.2679055019   -0.7004514713   -2.2713882108
 H    0.7437732090    1.9544589233   -0.2119388154
 H   -0.9282813006    1.6227784060   -0.7355611397
 H   -0.5316211148    1.6526736006    0.9974293419
 H    1.5404971305    0.1393217918   -1.4255902874
 H    2.0603613953   -1.7370446688    0.0887509222
 H    0.5418524626   -2.5268402867   -0.3212916542
 H    2.8590815875   -1.9612554059   -2.2629322137
 H    2.4214122440   -3.5381635355   -1.6273109019
 H    1.5148246569   -3.1537157503   -3.9859252575
 H    0.2425018418   -3.4681262529   -2.7928221313
 H   -1.1170336276   -1.2874545358   -1.8951417054
 H   -0.6450904713    0.2596791009   -2.6290221134