18

 C   -0.0886617537    1.5519264294    0.0282361071
 C    0.0397294595    0.0337136779    0.0125663835
 C    1.0520901141   -0.5921772843   -0.9902168197
 C    2.3800996155   -0.0570749546   -0.4203691333
 O    2.1577669842   -0.1017740253    0.9993943602
 C    0.8047097575   -0.5912603635    1.1892679768
 C    0.8650484666   -2.0786073785    0.7814432154
 O    0.9099327980   -3.0716696156    1.4649416362
 N    0.9375265882   -2.0024625069   -0.6026676712
 H    0.8443406009    2.0355617439    0.3264211408
 H   -0.3775793793    1.9330136915   -0.9571569122
 H   -0.8618944700    1.8578778101    0.7395669990
 H   -0.9365798267   -0.4388768455   -0.1238792474
 H    0.8768264581   -0.4245061870   -2.0523995364
 H    3.2295506612   -0.6958127453   -0.6864567555
 H    2.5955404085    0.9713671290   -0.7348416399
 H    0.4974795116   -0.3937635015    2.2131384086
 H    1.3683328058   -2.7500136838   -1.1270879020