20

 C   -0.6443946273    1.2611181835   -0.4775884701
 C    0.3500701087    0.2363285184    0.0975291546
 C    1.1485518824   -0.4284578175   -0.9258688323
 C    1.7899035974   -0.9708235015   -1.7877987471
 C    2.5917413991   -1.6099448302   -2.8159282143
 O    1.8889908650   -2.7475272645   -3.3369384859
 C    2.5160441117   -3.3901971933   -4.3442042156
 N    2.0100790811   -4.4161209121   -4.8645160096
 C    2.7402373043   -5.0450017965   -5.9443430878
 H   -0.1190316249    2.0479151677   -1.0256137438
 H   -1.3431773542    0.7787972367   -1.1660466639
 H   -1.2189678751    1.7267507045    0.3284661248
 H    1.0208487186    0.7317836375    0.8110980784
 H   -0.1935759604   -0.5225822233    0.6743692315
 H    2.8033414448   -0.9006673738   -3.6292799776
 H    3.5579111393   -1.9307431216   -2.4001420341
 H    3.4743157729   -2.9390630557   -4.6508274707
 H    2.1158800154   -5.0710180224   -6.8448208377
 H    3.6896218026   -4.5438774807   -6.1970635034
 H    2.9612058387   -6.0859102350   -5.6817220753