22

 C   -0.1058083653    1.5594283497    0.1471775781
 C    0.1952035918    0.0941338441   -0.1596242620
 N    0.7196196264   -0.5665582514    1.0346047729
 C   -0.2133372083   -1.2550816730    1.9542636048
 C   -1.6202485127   -1.3407368166    1.6785400575
 C   -2.8060925247   -1.3886737698    1.4754087503
 C    0.7987947697   -2.0214278907    1.1300256257
 C    0.3283894956   -2.9149776153   -0.0023068095
 C    2.0468006570   -2.5201133776    1.8347608086
 H    0.7840093533    2.0637298689    0.5341235784
 H   -0.4405333390    2.0801309284   -0.7555351103
 H   -0.8981373874    1.6403164626    0.8977374425
 H   -0.7080038027   -0.3851399819   -0.5619024392
 H    0.9723806489    0.0230522696   -0.9297654941
 H    0.0174611891   -1.0880566494    3.0053095918
 H   -3.8522885284   -1.4395326774    1.3006588725
 H   -0.6460665677   -2.6229577596   -0.3944067696
 H    1.0542788313   -2.9036839914   -0.8233175271
 H    0.2471801548   -3.9482348402    0.3505372588
 H    1.8759835313   -3.5031222625    2.2871880957
 H    2.8743797247   -2.6172346502    1.1225340346
 H    2.3554013923   -1.8201153262    2.6145790996