18

 C   -0.0301095936    1.5092932914    0.0804278952
 C   -0.0000211972    0.0082120023   -0.0053091543
 C    0.0013101684   -0.6532590667   -1.1718029046
 C    0.0225485543   -2.1268266260   -1.2795342350
 N    1.2525787253   -2.8422685749   -0.8460512103
 C    0.0423115355   -2.9388685172   -0.0228744185
 C    0.0410067659   -2.2090074463    1.2908342602
 O    1.1946064946   -1.4641849438    1.6458348451
 C    0.0057199147   -0.7307228422    1.2862675948
 H    0.8703377939    1.8927707629    0.5763091085
 H   -0.0947714773    1.9669226362   -0.9101070010
 H   -0.8858148303    1.8562106796    0.6737508958
 H   -0.0258281486   -0.0909133631   -2.1023526004
 H   -0.4992071068   -2.5416780806   -2.1390916179
 H    1.3489246795   -3.6939780409   -1.3947890454
 H   -0.5101534279   -3.8750532011   -0.0216083284
 H   -0.4365778785   -2.7344998018    2.1179170192
 H   -0.4486883420   -0.2125929077    2.1312089371