17

 O    1.1497660192    1.8151570550    0.4346926861
 C    0.5245654971    0.5798726117    0.0946516985
 C    1.0367660794    0.0235791759   -1.2137552620
 C    0.1138679845   -0.6737032506   -2.1417212287
 N    0.6588693724    0.6491246970   -2.4875333329
 C    0.6842736092   -0.4230860928    1.2225667364
 C   -0.2853492599   -0.5072399553    2.3168439075
 O   -0.2738964755   -1.4807864096    1.2669780583
 H    2.0927556888    1.7334720530    0.2552758663
 H   -0.5443064438    0.8066079313   -0.0067399879
 H    2.0784574251   -0.3012517460   -1.1823220798
 H    0.4774598848   -1.4941945476   -2.7529198776
 H   -0.9281009028   -0.7571059409   -1.8452936187
 H   -0.0359196919    1.3738999190   -2.3199339977
 H    1.7124354167   -0.7367691154    1.4200990442
 H    0.0297447848   -0.8704776787    3.2935425083
 H   -1.1432123882    0.1637266840    2.3235313798