16

 O   -0.1314165082    1.4492010040    0.0958706714
 C   -0.0644173148    0.0801483722    0.1090206833
 C    0.7326530586   -0.7825337483    1.0925787668
 C   -0.4472335190   -1.8193323997    1.0900687040
 C   -1.1950283530   -0.9310053131    0.1062543357
 O   -2.5594278152   -0.8501915260    0.1188191978
 C   -0.3316793591   -0.7667494228   -1.1606473180
 C   -0.9890701221   -0.0817958988   -2.2312461615
 N   -1.5587348856    0.4687510444   -3.0765328502
 H    0.5768946001    1.8040852643   -0.4548215011
 H    1.7083164906   -1.1429665874    0.7525908608
 H    0.8448242403   -0.2882424163    2.0592203312
 H   -0.2211476331   -2.8330665712    0.7493838746
 H   -0.9571120240   -1.8654659950    2.0539318469
 H   -2.8574200708   -0.2626647588   -0.5879382162
 H    0.3649273452   -1.5433745075   -1.4718204956