17

 C    0.2366947176    1.3691373592   -0.6674540120
 C    0.0857678836   -0.0171022332   -0.2504789747
 C   -0.0413918613   -1.1596127507    0.1051357499
 C   -0.1609262936   -2.5477050408    0.5305664635
 N   -1.4825261671   -3.1144360518    0.2785469330
 C   -2.3591320618   -2.8167909361   -0.7116432714
 C   -3.4094004151   -3.7034606836   -0.5890300639
 C   -3.0616072177   -4.5082516495    0.5141098306
 N   -1.8899248019   -4.1522254976    1.0365789197
 H    0.8604987827    1.9262476613    0.0397906641
 H    0.7044155617    1.4421395640   -1.6551047940
 H   -0.7348590868    1.8721814352   -0.7189924121
 H    0.5985929098   -3.1617189177    0.0279421604
 H    0.0129876108   -2.6470813852    1.6063018598
 H   -2.1705759872   -2.0068517325   -1.3967539952
 H   -4.2968213262   -3.7496939707   -1.1989511380
 H   -3.6150367175   -5.3247848401    0.9546153302