18

 C   -0.1396215655    1.5229973209   -0.0384373340
 C    0.0400082674    0.0180535809    0.0665787562
 O    0.1404807700   -0.5514931449    1.1288453311
 C    0.1094164809   -0.7281813857   -1.2530766373
 C    1.4758589176   -0.8658940255   -1.9802392586
 C    2.3695996242   -1.5593153600   -0.9151789663
 C    1.3960013720   -2.7286789037   -1.0299252822
 C    0.9432165817   -2.2978540296   -2.3715552299
 N   -0.0094008758   -2.2185164243   -1.2249341028
 H    0.5775695411    1.9552362672   -0.7454847608
 H   -1.1408566540    1.7509706201   -0.4228250569
 H   -0.0175041114    1.9813040880    0.9435812513
 H   -0.6541555991   -0.3458432706   -1.9398299490
 H    1.8666751579   -0.0893916557   -2.6350363619
 H    3.3410690943   -1.8280866677   -1.3377623850
 H    2.5005906671   -1.0718188878    0.0542913166
 H    1.4735109604   -3.7241912626   -0.6151666624
 H    0.7378856112   -2.8058222689   -3.3040432080