23

 C   -0.1035320986    1.4649201496   -0.0197705652
 C    0.0510985772   -0.0444499929    0.0404270080
 C   -1.0497654364   -0.7937190778   -0.6887034060
 C    1.4620045059   -0.6174525302   -0.0111736212
 C    0.6660796907   -0.6546149698    1.2785861177
 O    1.0164699557    0.2947829986    2.2610427406
 C    0.1837429698   -1.9339894996    1.8977230190
 C    0.4083050014   -3.3016273144    1.3106511067
 C    1.1910366303   -2.8789378330    2.5252478657
 H    0.6857060092    1.9730256760    0.5348005970
 H   -0.0775510423    1.8069499264   -1.0611471916
 H   -1.0642629578    1.7764377649    0.4067342384
 H   -1.0731985571   -0.4990405256   -1.7446207729
 H   -0.9165377360   -1.8764740800   -0.6468278062
 H   -2.0325581921   -0.5604777917   -0.2617023512
 H    1.6267960286   -1.5303690936   -0.5746923256
 H    2.2858492376    0.0879756498   -0.0412635365
 H    1.6782094803   -0.1184406411    2.8269298411
 H   -0.7396986322   -1.8112709637    2.4585424301
 H   -0.3802999089   -4.0358464092    1.4337493479
 H    0.9466045684   -3.3863338702    0.3738579279
 H    2.2443043003   -2.6600990876    2.3778400057
 H    0.9561537659   -3.3287542749    3.4832196908