16

 O   -0.1844222707    1.3244257823   -0.5303295328
 C   -0.0842688535    0.0043468998   -0.1551327484
 C    0.3821655967   -1.0579984693   -1.1887641148
 C   -0.4168667811   -2.0535224837   -0.3459069665
 N   -0.2863857971   -1.7234423988    1.0969880518
 C    0.5912715615   -0.4962625750    1.1420930370
 C   -1.2632995312   -0.9601555367    0.2344715804
 C   -2.6679633253   -0.7335541125    0.5393957583
 O   -3.1903539281    0.3527228603    0.3920768050
 H   -1.0115773179    1.6677714006   -0.1711186018
 H   -0.0913984421   -0.8950143647   -2.1587017454
 H    1.4577182414   -1.2192024849   -1.3067721841
 H   -0.7081609682   -3.0695267914   -0.5807839537
 H    1.6672680346   -0.6999536053    1.1306008981
 H    0.3197842181    0.0857451241    2.0254432661
 H   -3.2278561872   -1.6084078750    0.9303929208