19

 C   -0.0822908849    1.5603801031   -0.2093735181
 C    0.0309931092    0.0489542158   -0.0807802970
 C    1.1298193593   -0.6534604386   -0.8997128521
 O    2.3922429021   -0.1910997550   -0.4013889325
 C    1.7224118820   -1.2430449747    0.3088192818
 C    0.6880298829   -0.5691234377    1.2116705208
 C    1.1277069674    0.2205283498    2.4558409167
 O    0.4088055410   -0.6780082082    3.3308859976
 C   -0.1357010081   -1.4019096219    2.2116961372
 H    0.8994302790    2.0277360416   -0.0926357377
 H   -0.4780558600    1.8394829250   -1.1918725486
 H   -0.7544092318    1.9762430327    0.5485172635
 H   -0.9379272094   -0.4348819421   -0.2516344188
 H    1.1040857959   -1.0098082559   -1.9232073833
 H    2.2674111418   -2.1679767553    0.4639939570
 H    2.2048309302    0.2306664681    2.6596677679
 H    0.7430121697    1.2465655278    2.5203941280
 H   -1.2244794421   -1.2771781661    2.1286172490
 H    0.0947004360   -2.4746199683    2.2590160885