8

 N    0.0542253595   -1.1538156324   -0.0042583132
 C    0.0104521614    0.0021410991    0.0030105951
 C   -0.0716136470    1.4132221586    0.0118324098
 C   -1.1353047077    2.2649922490    0.0300871557
 N   -0.6135434087    3.5338270573    0.0309409374
 N    0.6433712060    3.4992224417    0.0133268958
 O    1.0542050505    2.1371170664   -0.0004666010
 H   -2.1927971541    2.0671505604    0.0430161905