23

 C    0.0168851120    1.5306401661   -0.0730149952
 C    0.0044424699    0.0024789887   -0.0013665293
 O    0.7863736023   -0.4750141309    1.0935845553
 C   -1.4096920739   -0.5642457324    0.0520564302
 C   -2.3191666140   -0.4798003322   -1.2145038963
 C   -2.7091835319   -1.9764338959   -1.0364801522
 C   -1.9078280716   -2.9634829181   -1.9173693394
 C   -0.7635046488   -2.9746964628   -0.8575757891
 C   -1.6275502193   -2.1008461974    0.0988292721
 H    1.0448129577    1.9019885297   -0.1051872193
 H   -0.5118418038    1.8918754125   -0.9612329159
 H   -0.4761444619    1.9635858775    0.8067854165
 H    0.5169129229   -0.3915427831   -0.8874945538
 H    0.3694360260   -0.1625669068    1.9044050086
 H   -1.9277319290   -0.1069945178    0.9069327844
 H   -3.1420420846    0.2355965608   -1.1477979571
 H   -1.7750485269   -0.2799796434   -2.1446194815
 H   -3.7697956320   -2.1774459939   -0.8787669549
 H   -2.3953318595   -3.9372838681   -2.0170159351
 H   -1.6508140205   -2.6092283726   -2.9208514350
 H   -0.5365945392   -3.9656371944   -0.4582162867
 H    0.1807623729   -2.5271067881   -1.1753577555
 H   -1.8321696670   -2.5371660572    1.0772676591