22

 C   -0.0523721569    1.5309236315   -0.2624973746
 C   -0.0133287645    0.0422160765    0.0994373763
 N   -1.3566903806   -0.5220243121    0.0894436891
 C   -1.7391260712   -1.2419144612   -0.8766061567
 C   -3.1525489666   -1.7775113771   -0.9364052622
 C   -3.2346166271   -3.1924583984   -1.5258880728
 C   -2.4611046120   -3.2308195186   -2.8463843545
 C   -1.0290929763   -2.7720432853   -2.6042152251
 O   -0.9481370509   -1.4854141101   -1.9740333705
 H    0.9417740136    1.9784689128   -0.1626611495
 H   -0.3875617966    1.6690373205   -1.2952132057
 H   -0.7432222344    2.0686944940    0.3934245487
 H    0.6701133112   -0.4849796670   -0.5771554823
 H    0.3739839615   -0.0651612127    1.1198732976
 H   -3.5771642111   -1.7168813443    0.0665651254
 H   -3.7319869794   -1.0973624841   -1.5768364927
 H   -2.7985131476   -3.9154554677   -0.8241208389
 H   -4.2802512285   -3.4813781745   -1.6704446607
 H   -2.4442477242   -4.2387399182   -3.2754674066
 H   -2.9386080453   -2.5702604862   -3.5807317433
 H   -0.5016644493   -3.5050770070   -1.9760652641
 H   -0.4713620738   -2.6678628707   -3.5384675568