25

 C   -0.8247942626    1.2285273619    0.2535756019
 C   -0.0173706238   -0.0375691256   -0.0063698257
 C    1.2537472715   -0.0097731431   -0.9055211913
 C    1.9268119315   -1.0573105724    0.0311514631
 C    2.9750615382   -0.4835855997    1.0062735757
 C    1.8421457283   -0.1464089990    2.0394067945
 C    1.9740302611   -0.9642903249    3.3274568728
 C    1.7136155245    1.3365723345    2.3861036645
 C    0.7811797552   -0.8166007130    1.0789498432
 H   -0.2066932692    2.0658938141    0.5835273533
 H   -1.3393855581    1.5429753474   -0.6619877026
 H   -1.5920598581    1.0588194621    1.0178692773
 H   -0.7016607910   -0.7804643436   -0.4362081291
 H    1.1066882193   -0.3084201668   -1.9467705045
 H    1.7746886286    0.9540314487   -0.9027386533
 H    2.1197475617   -2.0351728673   -0.4118834065
 H    3.6858600532   -1.2251498730    1.3833970308
 H    3.5450977608    0.3721757942    0.6294612448
 H    2.8561511684   -0.6536144593    3.8998281809
 H    1.0933751501   -0.8341001178    3.9679210827
 H    2.0748304180   -2.0338125465    3.1134915012
 H    1.7333434470    1.9738387317    1.4985888487
 H    0.7895274949    1.5471708704    2.9356765675
 H    2.5531926509    1.6433396255    3.0219461425
 H    0.2349139696   -1.6322541385    1.5595695275