21

 C    0.1732248889    1.5202975622    0.5486389546
 C   -0.0693619550    0.1155253315    0.0493530799
 C   -1.2598283716   -0.4856304500    0.2054544657
 C   -1.5915044683   -1.8540644811   -0.3344319541
 C   -0.7412247872   -2.9734153674    0.2490717955
 C   -0.0976664824   -3.9729062252   -0.6813220690
 C    0.7460573666   -2.9260057068    0.0250548505
 C    1.4029026253   -1.8057962625   -0.6955772789
 C    1.0653955206   -0.5076031663   -0.6498931765
 H    0.9895151898    1.5493011842    1.2808942382
 H    0.4685954569    2.1845614638   -0.2738294860
 H   -0.7204764678    1.9391349396    1.0182557031
 H   -2.0502676641    0.0572468294    0.7188930522
 H   -2.6521465054   -2.0770332624   -0.1785665753
 H   -1.4370614905   -1.8428722526   -1.4224270994
 H   -1.0689847400   -3.3404573759    1.2172666361
 H    0.0056384317   -5.0035347557   -0.3606226862
 H   -0.2754294890   -3.8481765772   -1.7447063046
 H    1.3622498619   -3.3309204844    0.8272381173
 H    2.3029090129   -2.0723455213   -1.2491674703
 H    1.7224260267    0.1930279080   -1.1658789428