16

 C   -0.1075151893    1.6002205684   -0.0190755684
 C    0.0273578340    0.0859051606    0.0154664269
 C    1.2048084833   -0.6030531285   -0.7359994298
 O    2.3761053033    0.0076997749   -0.1315378126
 C    2.0624024662    0.0114154215    1.2226692755
 N    2.7843000996    0.4375720845    2.1586658549
 C    0.6944385834   -0.6174647917    1.2731842753
 C    0.9471372985   -1.7705195446    0.2488913211
 O    0.8178187100   -2.9502709634    0.2169763093
 H    0.8452280550    2.0966389755    0.1766728045
 H   -0.4685761152    1.9258306708   -0.9995243633
 H   -0.8276994351    1.9365601840    0.7325198400
 H   -0.9192342842   -0.4052139563   -0.2299252290
 H    1.3181429693   -0.6719054646   -1.8139525437
 H    3.6758876922    0.7881946051    1.8034991271
 H    0.2199958590   -0.7410160862    2.2403809422