21

 C   -0.2957297888    1.5297711681    0.0269849480
 O   -0.1320374007    0.1697969843    0.3610442920
 C   -1.2365098188   -0.6407350098    0.0173374764
 C   -1.3710403867   -0.9618871737   -1.4870882656
 C   -2.0808256554   -2.3268733551   -1.5061969017
 C   -1.4093377502   -3.0925845993   -0.3501016996
 C   -1.1227095188   -2.0153062413    0.6927727893
 C   -0.3168457354   -2.2315737554    1.8956870338
 O   -1.7430677206   -2.1361783734    1.9793753464
 H    0.5800228008    2.0626880487    0.4054094008
 H   -0.3604733172    1.6886654521   -1.0594759504
 H   -1.1990528037    1.9546437817    0.4920161521
 H   -2.1638336000   -0.1697669091    0.3838893403
 H   -1.9042167651   -0.1903901328   -2.0482766387
 H   -0.3619818038   -1.0502844316   -1.9084523615
 H   -3.1495922253   -2.1953573874   -1.2997555038
 H   -1.9963961474   -2.8380866491   -2.4684751093
 H   -2.0210268263   -3.8935350560    0.0713598506
 H   -0.4670756834   -3.5355581434   -0.6942812145
 H    0.0969160835   -3.2214506254    2.0898510541
 H    0.2346905433   -1.3963904222    2.3199198111