15

 C    0.0000183813    1.4463713693    0.0448660856
 N   -0.0381702397   -0.0004185785    0.0098577091
 C   -0.0776623333   -0.8045057701   -1.1141445207
 C   -0.0302788686   -2.1473033537   -0.7837742462
 C    0.0491323400   -2.1620076222    0.6349535191
 C    0.0474112616   -0.8480307963    1.0857800639
 N    0.1197174536   -0.7806007347    2.4331294206
 N    0.1662621036   -2.0128464115    2.8708240225
 N    0.1233649432   -2.8601974336    1.7973880670
 H    1.0116629260    1.8174749631    0.2430900951
 H   -0.3380987251    1.8366779104   -0.9169107152
 H   -0.6649702283    1.8167788358    0.8292271359
 H   -0.1415485037   -0.3488301788   -2.0910103224
 H   -0.0606861558   -2.9702732891   -1.4784570053
 H    0.1517405651   -3.8500539302    1.9720843411