18

 C    0.0272130721    1.5279113163   -0.1618623429
 C    1.5816352378    1.5726789429    0.1145363489
 C    1.5269661922    0.1223105302    0.6307728392
 O    1.6331850522   -0.3188124189    1.9767160874
 C    0.9199411612   -1.4983846165    1.4864417874
 C   -0.5072489237   -0.9138313193    1.2359894797
 C    0.0320893287    0.0138205111    0.1414109284
 N    0.5278000107   -0.8955062938   -0.9420805223
 C    1.5681458615   -1.2764554693    0.0174628705
 H   -0.5448012358    2.1046428284    0.5696433584
 H   -0.2929707974    1.8063838870   -1.1675054357
 H    2.2016257664    1.7060404416   -0.7738257619
 H    1.8969572277    2.2890345498    0.8758438845
 H    1.0689789457   -2.3852916890    2.1007791331
 H   -1.2515128654   -1.6377853659    0.8904553610
 H   -0.8672418899   -0.4130686544    2.1368778445
 H   -0.1257363523   -1.6332791557   -1.2024500334
 H    2.4288766681   -1.8759407845   -0.2873419769