19

 C   -0.0284114200    1.4886770657    0.0725217213
 C    0.0176207791   -0.0300068809    0.0432134077
 O    1.0770152079   -0.6285456880    0.0518084803
 C   -1.2804735140   -0.7467463902   -0.0066640112
 C   -1.3787723208   -2.0881297417   -0.0413661497
 C   -2.7832552058   -2.5527624175   -0.0142983561
 C   -3.5535419288   -2.1628360820    1.2399643846
 C   -3.6218308372   -1.2774548530    0.0298900791
 C   -2.6571261768   -0.0940681484   -0.0444346811
 H    0.9878524343    1.8833708411    0.0595669311
 H   -0.5882203240    1.8779402110   -0.7855466531
 H   -0.5457211034    1.8399970886    0.9729214081
 H   -0.5193808791   -2.7477901216   -0.0605107466
 H   -3.0810533311   -3.4443579002   -0.5537303437
 H   -4.4365091381   -2.7482435576    1.4737438126
 H   -2.9796263607   -1.8401268717    2.1027847852
 H   -4.5630572473   -1.2182092255   -0.5031746794
 H   -2.8108846214    0.6130891458    0.7801888772
 H   -2.8010007729    0.4776990462   -0.9708702060