17

 O   -0.7216370640    1.0329439472   -0.4392636024
 C    0.2112762159    1.0285675106    0.3234714599
 C    1.4441737212    1.9005844674    0.1979956984
 C    1.5366814467    2.7022925935   -1.1142691418
 C    2.1887140926    4.0397489528   -0.6960509311
 N    1.9239502417    4.2567854187    0.7403083457
 C    0.5116405157    4.1166844581    1.1188272951
 C    1.4544258355    2.9796178134    1.2948489676
 H    0.2041599443    0.3728249344    1.2239647175
 H    2.3220017349    1.2589472560    0.3504148133
 H    2.1192293932    2.1785568388   -1.8754722443
 H    0.5329450996    2.8391593025   -1.5225495566
 H    3.2764826929    3.9972856513   -0.8163480915
 H    1.8256293101    4.8925437995   -1.2776141948
 H    0.2138226775    4.7107929510    1.9774719957
 H   -0.2420734176    4.0404479527    0.3385195712
 H    1.8147770097    2.7066873219    2.2820889079