15

 C   -0.0335113090    1.5208168869    0.0895356572
 O    1.2996007322    1.9260970984   -0.2422100932
 C    2.1126608541    0.8132671823   -0.6085796420
 C    1.2522302088   -0.3955676661   -0.3678287140
 N    1.6039295791   -1.6656848435   -0.5189663550
 C    0.6287434763   -2.5398893753   -0.2344676943
 N   -0.6128190676   -2.2678608607    0.1680412066
 C   -0.9342801869   -0.9742138150    0.3067585440
 C   -0.0094617014    0.0213891253    0.0441790203
 H   -0.2917741593    1.9155431375    1.0814348791
 H   -0.7452897701    1.9483001661   -0.6324522989
 H    2.4185368261    0.8851928525   -1.6627092166
 H    3.0245245563    0.7992406443    0.0026176328
 H    0.8800390734   -3.5916732335   -0.3445714726
 H   -1.9492364220   -0.7577837593    0.6338917567