20

 O    0.0185852773    1.4059389961   -0.0897337356
 C    0.0579628851   -0.0109395929   -0.1681028969
 C   -1.3313896557   -0.5326509131    0.2077991109
 C   -1.4468759717   -2.0259835761    0.1257560898
 C   -1.6015995602   -2.8722772490    1.1469226063
 C   -1.7405000771   -4.3085751942    0.7061515981
 C   -1.3140495973   -4.2554749469   -0.7838465200
 C   -1.4646405592   -2.7715463319   -1.1984139180
 H    0.8906356175    1.7435495007   -0.3133734569
 H    0.3254748973   -0.3450739234   -1.1828930607
 H    0.8043399633   -0.4326057360    0.5232406499
 H   -1.5627330248   -0.1873520624    1.2208680297
 H   -2.0565401607   -0.0559111761   -0.4655741699
 H   -1.6721435394   -2.5707404426    2.1874061133
 H   -1.1249574578   -5.0005655034    1.2925635312
 H   -2.7788631619   -4.6520618068    0.8230330345
 H   -0.2631846130   -4.5501587464   -0.8694448521
 H   -1.8909329364   -4.9345138016   -1.4168761079
 H   -2.4161354846   -2.5840789118   -1.7181528784
 H   -0.6769240006   -2.4495708022   -1.8891353472