14

 C   -0.0339382571    1.4944514811   -0.0145935912
 C   -0.0046731478    0.0036962375   -0.0530072833
 N   -0.0255462912   -0.6328432682   -1.1825462597
 C    0.0044133892   -2.0004069988   -1.1334157916
 O   -0.0195869760   -2.5876250356   -2.3413586369
 N    0.0519487920   -2.7489191944   -0.0737471617
 N    0.0727026202   -2.0622504085    1.0976094954
 C    0.0488015496   -0.6972018568    1.2555540377
 O    0.0712680408   -0.1471441442    2.3447351388
 H    0.8523918521    1.8702139926    0.5082339871
 H   -0.0795938399    1.9006427996   -1.0246570349
 H   -0.8926640101    1.8345917390    0.5742186660
 H    0.0047215953   -3.5428063607   -2.1957647475
 H    0.1100002327   -2.6339218326    1.9306295518