19

 C   -0.0156610034    1.3126302004   -0.1371046135
 C    1.4994587497    1.5075404936    0.0735752592
 C    1.4343172411    0.1306196135    0.7667826801
 O    0.0198485560    0.0094684947    0.4875365332
 C    2.2220305952   -1.0142990577    0.1295275806
 O    3.6172494881   -0.8108609523    0.3641366023
 C    4.1803014998   -1.9444821903    1.0244226831
 C    3.0259930385   -2.8817056709    1.2433421132
 C    1.9186469895   -2.3599775915    0.7290155283
 H   -0.6623779639    2.0076183728    0.4125021185
 H   -0.3600766963    1.2572528172   -1.1765923797
 H    2.1012325558    1.5264912101   -0.8368113271
 H    1.7875952540    2.3437966816    0.7109041717
 H    1.6338173247    0.1449828332    1.8463298185
 H    2.0232587022   -0.9999373251   -0.9557673557
 H    4.9699020016   -2.3896278996    0.3978701045
 H    4.6556901990   -1.6280112718    1.9655854621
 H    3.1260856746   -3.8355944377    1.7456876937
 H    0.9249922940   -2.7868054702    0.7235278169