21

 C    0.4173093525    1.6014943795    0.0342043959
 C   -0.0950225084    0.1551149105   -0.0530575624
 O   -1.5288411304    0.1774663985   -0.2347486935
 C    0.4421317425   -0.5037338181   -1.3288419409
 C    0.0849070432   -1.9766277629   -1.5039045609
 O    0.9305680511   -2.8222146653   -0.7405077444
 C    0.5238686603   -3.0459261395    0.5846580727
 C    0.4295022877   -1.8557193055    1.5040021728
 C    0.2115846515   -0.5654402652    1.2479993966
 H    1.5058518563    1.6300257896    0.1506500803
 H    0.1445649072    2.1521995594   -0.8700686374
 H   -0.0271360058    2.1170951090    0.8929133766
 H   -1.9301986989    0.3706836913    0.6190790148
 H    0.0305594601    0.0633855311   -2.1723653677
 H    1.5320393035   -0.4077913508   -1.3651464925
 H   -0.9726813615   -2.1463385923   -1.2570243639
 H    0.2397747621   -2.2686477362   -2.5478108593
 H   -0.4512767761   -3.5710253472    0.6088927206
 H    1.2581636020   -3.7471958339    0.9982302479
 H    0.5225703886   -2.1369944820    2.5534204143
 H    0.1669264124    0.0939378401    2.1159484405