16

 N    0.2076921418    1.4550693883    0.1284523182
 C    0.0098217063    0.0409601032    0.0554066366
 C    0.1739091042   -0.7423237528    1.3777787016
 N   -0.8528555705   -0.0676506405    2.2566434002
 C   -1.8539971854   -0.7965406065    1.4495236183
 C   -0.8982065047   -1.7925332133    0.8801062879
 C   -1.3909018456   -0.6465914113   -0.0141036772
 C   -2.2866317416   -0.7058219362   -1.1151983933
 N   -2.9969094434   -0.7309208195   -2.0301244844
 H   -0.0260403221    1.9179451787   -0.7425660140
 H   -0.3619257000    1.8415987805    0.8740947505
 H    0.6406708800   -0.3946455709   -0.7242839465
 H    1.1532042608   -0.9321908544    1.8084802952
 H   -0.8195367891   -0.5168350269    3.1707963969
 H   -2.9022279376   -0.8719805331    1.7071215453
 H   -0.9184768031   -2.8589455052    0.7043044848