21

 C   -0.0462524733    1.5286191335   -0.5417005666
 C   -0.0157629093    0.1411197194    0.1004759164
 N   -1.3228503457   -0.4923833617    0.1244241996
 C   -1.7739724725   -1.5130935313   -0.6445126521
 C   -3.0927853352   -1.7206619100   -0.3016588342
 C   -3.3612144210   -0.7587056610    0.7009648875
 C   -4.6297707368   -0.5396399419    1.4707305878
 C   -4.8778179979   -1.6138060480    2.5433014946
 N   -2.2798556252   -0.0173698052    0.9490098015
 H    0.9491499580    1.9820484937   -0.5086666009
 H   -0.3654263466    1.4693436710   -1.5865403128
 H   -0.7435629255    2.1745338188   -0.0034034875
 H    0.6574568425   -0.5278999940   -0.4432496988
 H    0.3417800841    0.2081889913    1.1324859465
 H   -1.1318144781   -2.0007927736   -1.3616721468
 H   -3.7630645349   -2.4599420384   -0.7104658485
 H   -4.5770942557    0.4467545412    1.9416825767
 H   -5.4790377467   -0.5182675437    0.7769349062
 H   -5.8121297585   -1.4217451253    3.0805849394
 H   -4.9439559495   -2.6112078503    2.0967925956
 H   -4.0613816321   -1.6285993047    3.2716785463