20

 C   -0.1633593247    1.4536009450   -0.0335630907
 N   -0.1087958801    0.0018507685   -0.0576289847
 C    0.5799592257   -0.5922798538   -0.9325935985
 C    0.6198988713   -2.1000614205   -1.0205118043
 C    1.9983442149   -2.5859262263   -1.4690458886
 O    2.3901036247   -1.8733452496   -2.6364087550
 C    2.5019301254   -0.5092317603   -2.3770931294
 C    2.8992024084    0.2087141948   -3.6461953223
 O    1.2607940548    0.0657379087   -1.9292543315
 H    0.6102508376    1.9444358838   -0.6338829899
 H   -1.1434020941    1.7841741789   -0.3992300388
 H   -0.0839772771    1.7908350358    1.0051814476
 H    0.3264860203   -2.5201451525   -0.0571344355
 H   -0.1168801094   -2.4147235362   -1.7699096668
 H    2.7442021988   -2.4366141963   -0.6717778680
 H    1.9876899039   -3.6452972514   -1.7344048549
 H    3.2388034013   -0.3477959278   -1.5701422192
 H    2.1477282027    0.0274167086   -4.4183386921
 H    2.9702074259    1.2825851357   -3.4612251432
 H    3.8661170397   -0.1621958850   -3.9934928944