17

 O   -0.1246552003    1.4432139484   -0.0669068726
 C    0.0119688735    0.0289180360    0.0122708929
 C   -1.3908953925   -0.5549416457    0.0070919118
 N   -2.0531572863   -0.2246321345   -1.2497034646
 C   -3.4633298328   -0.5947867208   -1.2590827772
 C   -4.1129130369   -0.2066767242   -2.5043025198
 C   -4.6580305097    0.1319818042   -3.5273814582
 C   -5.2730922232    0.5113078421   -4.6856809101
 N   -5.7977775225    0.8345481939   -5.6704870556
 H    0.7361507377    1.8247918701   -0.2596020096
 H    0.5709974803   -0.3651907917   -0.8480669485
 H    0.5327254775   -0.2726340526    0.9333401039
 H   -1.3279931936   -1.6459677979    0.1073309937
 H   -1.9350888720   -0.1754411079    0.8919280621
 H   -1.9574565362    0.7750766868   -1.4000101597
 H   -3.5396703113   -1.6860450659   -1.1498845485
 H   -4.0425223018   -0.1664737402   -0.4172095600