18

 C   -0.3065058609    1.5068692708   -0.0621288158
 C    0.0982580246    0.0493014198   -0.0210984143
 O    1.3207116235   -0.1994835824   -0.7978449453
 C    1.9808812700   -0.6983396763    0.3066346128
 N    3.1567766938   -1.1117656924    0.4341420555
 C    0.7945216279   -0.5393142155    1.2396007117
 C    0.9761545822    0.3458239473    2.4839899137
 C    1.6343534765   -0.3545034727    3.5795250563
 C    2.1577693245   -0.9446683588    4.4851990969
 H    0.4963421665    2.1591853964    0.2911937549
 H   -0.5516046452    1.7956076563   -1.0882972618
 H   -1.1937527979    1.6753120178    0.5572020260
 H   -0.7048784824   -0.5872780247   -0.4056306760
 H    3.6682099280   -1.0516289035   -0.4483642686
 H    0.3744762569   -1.5024476646    1.5386629511
 H    1.5486912525    1.2440511757    2.2268266272
 H   -0.0112605298    0.6913100908    2.8173806776
 H    2.6381124993   -1.4627122340    5.2777408982