17

 C   -0.0437365075   -1.1563468544   -0.0763059208
 C   -0.0085218883    0.0450532074   -0.0361055857
 C    0.0390656888    1.4819162800    0.0398556219
 O   -0.4292001358    2.1632829649   -1.1627252663
 C    0.8250856861    2.8850657373   -1.3004132948
 C    1.3457651948    2.3219720733    0.0329359437
 C    0.8980859366    2.9923835183    1.3506371772
 C   -0.4668426273    3.6158387685    1.2544115374
 C   -0.3717536970    2.1272750177    1.3922280673
 H   -0.0764889630   -2.2168479592   -0.1231645657
 H    1.3801806323    2.5408201012   -2.1810235981
 H    0.6745125289    3.9682509494   -1.3643730733
 H    2.3220663055    1.8429126398    0.0553136045
 H    1.5740851898    3.2347279049    2.1606717928
 H   -0.7896050470    4.1313552279    2.1531491470
 H   -0.8371539423    4.0495683924    0.3326633809
 H   -0.8142472546    1.5765559905    2.2124954519