19

 C   -0.0316564698    1.6485101084    0.2179781224
 C   -0.0056883414    0.1213783968    0.0259652263
 C    0.8495499761   -0.5599415904    1.1136491779
 C   -1.3836432647   -0.4629732004   -0.0548326072
 C   -1.9611696473   -1.3545028121   -0.9391791906
 N   -1.4018090439   -1.9402074505   -2.0828461718
 N   -3.2602931722   -1.5591636988   -0.5869981397
 N   -3.5354101150   -0.8444789453    0.4718198123
 N   -2.4089748375   -0.1979008007    0.8038994989
 H    0.9838891753    2.0548307682    0.1876294267
 H   -0.6215159794    2.1372692641   -0.5620346559
 H   -0.4601660292    1.9235643287    1.1892611822
 H    0.4580444258   -0.0852896866   -0.9465407365
 H    0.4296522829   -0.3843960015    2.1104332410
 H    0.8991163934   -1.6420377977    0.9614856600
 H    1.8708437831   -0.1655158990    1.1063318019
 H   -0.5801035053   -2.4969219002   -1.8805643850
 H   -2.0926040559   -2.5304986753   -2.5321135265
 H   -2.4170565853    0.4150659922    1.6030563534