21

 C    0.0883428855    1.5532355818   -0.3518615904
 C    1.6172797210    1.4129632363   -0.1610996611
 C    1.3629346967    0.1245230262    0.6942637315
 C    1.5217353545    0.3660894481    2.1608319465
 C    0.6950033068    0.1739375879    3.1876258470
 C   -0.7065529662   -0.3574733277    3.2592164696
 C   -1.5540013300   -0.5708524798    2.0402037141
 C   -1.2932593811   -0.4078340484    0.7436691458
 C   -0.0562062375    0.0481190158    0.0503287387
 H   -0.3564590978    2.2005739236    0.4081854568
 H   -0.2836329237    1.8504437763   -1.3351655734
 H    2.1321151657    1.1836308020   -1.0981303331
 H    2.1391154383    2.2345258443    0.3350601897
 H    2.0105774670   -0.7175405351    0.4192388312
 H    2.5125736840    0.7500399194    2.4098443804
 H    1.0915754312    0.4156481522    4.1736405304
 H   -0.6726563734   -1.3083579250    3.8192917494
 H   -1.2753357722    0.3020021218    3.9354287133
 H   -2.5586407820   -0.9091004260    2.2934480425
 H   -2.1165878774   -0.6179332087    0.0600834570
 H    0.0457498606   -0.5421059750   -0.8694563360