21

 C   -0.3574393531    1.4585392731   -0.0064997288
 C   -0.1483603726   -0.0220157260   -0.0595798042
 C   -0.1058002354   -0.7962350316   -1.1458579282
 C    0.1441334916   -2.2469846345   -0.8176263061
 O    1.4533859555   -2.6735804555   -1.2119267070
 C   -0.1033999226   -2.2969509518    0.7085061050
 C    0.0191255180   -0.8450274717    1.2223880339
 C    1.3550344195   -0.5642418664    1.9248431231
 O   -1.0600308928   -0.6171600256    2.1373343265
 H    0.4918179185    1.9743957618    0.4593817716
 H   -0.4997252092    1.8809551495   -1.0041865095
 H   -1.2440181001    1.6978321003    0.5933175481
 H   -0.1828373488   -0.4422282232   -2.1692397993
 H   -0.5263429779   -2.9267732840   -1.3531103026
 H    2.0629942510   -1.9580473937   -1.0022014371
 H   -1.1255917836   -2.6265207170    0.9122286937
 H    0.5831212647   -2.9924203644    1.1971017045
 H    2.2035604020   -0.8169102941    1.2815105151
 H    1.4517527086    0.4929823514    2.2008603656
 H    1.4246438598   -1.1631927873    2.8378679839
 H   -0.8909814431    0.2096082210    2.6013642116