17

 C   -0.2499000760    1.4769203565    0.0248778141
 C    0.1439901509    0.0142076408    0.0500850031
 O    0.6250028840   -0.5111673567    1.0266661994
 C   -0.0760908448   -0.7612114696   -1.2474493426
 C   -0.1057392885   -2.2938405089   -1.0211906673
 C   -1.3542330409   -2.7027559765   -0.3684933209
 C   -2.3852047399   -3.0131509809    0.1629354764
 C    0.1059335677   -3.0173531540   -2.2778358001
 C    0.2949171464   -3.5849369188   -3.3191754134
 H    0.1121389051    1.9780053698    0.9231955473
 H    0.1405635985    1.9736880276   -0.8699074511
 H   -1.3427670066    1.5558190408   -0.0194724588
 H   -0.9874726404   -0.4267061383   -1.7515920427
 H    0.7577701965   -0.5137907127   -1.9173538015
 H    0.7205711844   -2.5179246711   -0.3333508215
 H   -3.2887756622   -3.3027099422    0.6397944888
 H    0.4586809659   -4.1029020457   -4.2316156493