20

 C   -0.2105862303    1.5746083129    0.2068106854
 C    0.1034864076    0.1027424403    0.0426609269
 C   -1.0974368468   -0.8931620334    0.1473695275
 C   -0.3878062490   -1.6321173985    1.3168202150
 C    0.8320991743   -0.6726325369    1.1982078741
 C    2.0895905412   -1.2356041740    0.5263407325
 C    1.7122793092   -1.2114980474   -0.9643056131
 O    0.8965193649   -0.0596426452   -1.1286145481
 H    0.7121489599    2.1580858365    0.2842635480
 H   -0.7754584070    1.9428889297   -0.6560322081
 H   -0.8100044735    1.7464843833    1.1060448127
 H   -2.0498097752   -0.4238384244    0.4068854331
 H   -1.2414956326   -1.4839937889   -0.7603991556
 H   -0.9109465857   -1.5639403020    2.2733435890
 H   -0.1600495636   -2.6862117693    1.1326843696
 H    1.0567893162   -0.0987401786    2.0992971318
 H    2.9420005589   -0.5722719487    0.7046546877
 H    2.3588630281   -2.2360017234    0.8780917777
 H    2.5684518361   -1.1154127280   -1.6375225094
 H    1.1636621173   -2.1256434243   -1.2438106266