25

 C   -0.0855177050    1.5173562913   -0.0684786556
 C    0.0080345027    0.0016406405   -0.0468772165
 O    0.6448665230   -0.4343102926   -1.2348307896
 C    0.7967807454   -1.8439737406   -1.3153495183
 C    1.4383918425   -2.2316236347   -2.6495954469
 C    1.6133131354   -3.7617891500   -2.7052114916
 C    2.5931236011   -4.2469549262   -3.7789648331
 C    0.6126982946   -1.7034144104   -3.8377713601
 O    0.6881153565   -0.3031762948   -4.0013254236
 H    0.9104853586    1.9627449898   -0.1425026703
 H   -0.6787458262    1.8565079490   -0.9228107652
 H   -0.5616194701    1.8808033446    0.8469310389
 H    0.5853746541   -0.3397900535    0.8277199687
 H   -0.9942529843   -0.4508131540    0.0304793890
 H    1.4166375162   -2.1970467299   -0.4748431724
 H   -0.1898752435   -2.3305721539   -1.2191663750
 H    2.4263315563   -1.7545293240   -2.7003641171
 H    1.9616784293   -4.1161875440   -1.7264470755
 H    0.6321631558   -4.2311155475   -2.8612013060
 H    3.5903601600   -3.8223503308   -3.6208718628
 H    2.6874089841   -5.3370520933   -3.7554486509
 H    2.2713897834   -3.9677580696   -4.7866757147
 H    0.9791397487   -2.1403921270   -4.7724785626
 H   -0.4327257384   -2.0445743207   -3.7164919372
 H    0.5362553395    0.0735813124   -3.1245205816