19

 C   -0.0546857097    1.3535220472   -0.2279198494
 C    0.2162786461   -0.0963390777    0.0812259944
 N    1.6160581886   -0.4974980468    0.2508899132
 C    0.7087918612   -0.5887422218    1.4130585219
 C    0.9879473328    0.3858553159    2.4532979256
 N    1.1685111460    1.1500914510    3.3018113176
 C    0.2366653823   -1.9112885208    1.9635493547
 C    0.3532023700   -3.1969236869    1.1871285797
 C    1.2230348946   -2.9662983618    2.3978149898
 H    0.6136013474    2.0053023917    0.3389086137
 H    0.1006069351    1.5475618234   -1.2941739898
 H   -1.0888052411    1.6144616633    0.0188702606
 H   -0.4379664503   -0.8105354363   -0.4174022725
 H    1.7862477883   -1.4247195733   -0.1304699493
 H   -0.6517706512   -1.8100855654    2.5802536278
 H   -0.4692808137   -3.8991759484    1.2605716004
 H    0.8283634100   -3.1903248548    0.2110199578
 H    2.2752921679   -2.7670562099    2.2256637532
 H    1.0155635757   -3.5222235984    3.3044617705