19

 O   -0.0852712266    1.4447907263    0.0897973060
 C    0.0242787603    0.0337425345    0.0243029758
 C    0.6998973803   -0.6224826055    1.2426189063
 C    0.0786891338   -2.0217193532    1.3236946069
 O    0.5902949958   -2.9942034410    1.8163280590
 C   -1.2940558510   -1.9781873322    0.6589847453
 C   -2.4397441872   -1.5509048245    1.6367788107
 C   -2.3872004988   -0.1097499690    1.0577894189
 C   -1.3828495877   -0.5845733154   -0.0338057086
 H    0.8020160569    1.8167828863    0.1048154152
 H    0.5708687748   -0.2648588073   -0.8849536102
 H    1.7901351531   -0.6736877998    1.2006263222
 H    0.4259831739   -0.0705395917    2.1519455734
 H   -1.4703854043   -2.8897788111    0.0862351944
 H   -3.3740644768   -2.0725085236    1.4195628712
 H   -2.2256142736   -1.6681652926    2.7022825317
 H   -3.3345708506    0.2754428690    0.6767883790
 H   -1.9690244497    0.6398320953    1.7320589565
 H   -1.7908178324   -0.5687322746   -1.0451750737