18

 C    0.0564105617    1.4118500944    0.1824268500
 C   -0.0917479153   -0.0609807087   -0.1907585060
 C    0.7206317445   -0.4406814258   -1.4119874498
 O    1.4010917394    0.3081044018   -2.0648277535
 O    0.5678574985   -1.7588498987   -1.6891992476
 C    1.2850361530   -2.2494471691   -2.8078219396
 C    2.4950119728   -3.0941974965   -2.5462793879
 C    1.1981994714   -3.7240409616   -3.0201357840
 H    1.0986499182    1.6571992210    0.4016317113
 H   -0.2641960264    2.0573062182   -0.6390309580
 H   -0.5471742958    1.6459188606    1.0636501488
 H    0.2153187368   -0.7183460963    0.6313287391
 H   -1.1374662005   -0.3209853226   -0.3939939320
 H    1.2840152295   -1.5671567466   -3.6483637257
 H    3.3303019365   -3.0195016679   -3.2331667412
 H    2.7684786159   -3.2514592799   -1.5092567979
 H    0.6289678351   -4.2901349020   -2.2917599949
 H    1.1304688948   -4.0931381604   -4.0371138211