21

 C    0.1079457869    1.4533077770   -0.2453629404
 C    0.0529491878   -0.0220183387    0.0932741516
 O    0.8908614508   -0.8223738941   -0.7781769740
 C    1.4313340872   -1.5600587803    0.3392219914
 C    2.9517500407   -1.6901984955    0.2614809074
 C    3.3710450660   -2.4681165416   -0.9692818442
 O    4.0567906587   -3.4586690180   -0.9480950997
 C    0.7671654728   -0.5898084216    1.3563960810
 C    1.6651760575    0.3447764003    2.1577631013
 H    1.1277972467    1.8430830940   -0.1983972795
 H   -0.2678384931    1.6108689266   -1.2612933268
 H   -0.5216052229    2.0298836245    0.4408217656
 H   -0.9884678832   -0.3706061991    0.0316868725
 H    0.9880895004   -2.5660492219    0.3852778887
 H    3.3943269876   -0.6888143142    0.1919672210
 H    3.3474322984   -2.1958972639    1.1474946739
 H    2.9870248986   -2.0516362335   -1.9251222945
 H    0.0823602644   -1.1002077761    2.0385559967
 H    2.3805353359    0.8847883176    1.5315904908
 H    1.0656448670    1.0901096739    2.6903939112
 H    2.2355343919   -0.2142642651    2.9066846761