21

 C   -0.0446075603    1.5391509810   -0.0207654767
 C    1.3738967905    2.1609408243   -0.0312482067
 C    2.4852272863    1.0805421004   -0.0090298555
 C    2.6124225926    0.4119304805    1.3922912421
 O    1.8085600656   -0.7339791082    1.5812020557
 C    0.4189633669   -0.5500158645    1.4075107769
 C   -0.0029916412   -0.0101188598    0.0084458871
 C    0.9573383810   -0.4947912554   -1.0548606379
 C    2.1783945988    0.0403551130   -1.0633893572
 H   -0.6218174561    1.8973470829    0.8391260550
 H   -0.5942680565    1.8522642357   -0.9134968837
 H    1.5052991813    2.7718585872   -0.9293817451
 H    1.5120086542    2.8333247014    0.8229831649
 H    3.4437996209    1.5704620462   -0.2108314561
 H    3.6366213208    0.0555590064    1.5388396090
 H    2.4044682939    1.1658881174    2.1718242310
 H   -0.0108546294   -1.5441619920    1.5636992761
 H    0.0142251286    0.1173199037    2.1886783596
 H   -1.0151960455   -0.3839032351   -0.1795403529
 H    0.6471232370   -1.2499295351   -1.7700038932
 H    2.9354583005   -0.2470100201   -1.7860032924