21

 C    0.2715841317    1.2983113843   -0.5028218587
 C    1.4221554814    1.9923338275    0.2747281539
 C    2.1123978182    0.8796973641    1.0519070622
 C    2.4952173029   -0.3725085328    0.2769229763
 C    3.3011500603   -1.4214327962    1.0309537901
 C    2.4851725352   -1.6334472668    2.3298735958
 O    1.1368455615   -1.2692597170    2.0339923265
 C    1.1799343106   -0.3191692749    1.0100167462
 C   -0.1139869031    0.0602357440    0.3383409417
 H   -0.5748219338    1.9676946856   -0.6747235834
 H    0.6244830918    0.9778161686   -1.4883005865
 H    2.0931302841    2.5416192249   -0.3956493224
 H    1.0150141809    2.7198445977    0.9868315912
 H    2.6821338717    1.1414436526    1.9382049512
 H    2.5717863749   -0.3451579396   -0.8057019492
 H    3.3383061321   -2.3418061795    0.4387420589
 H    4.3316385953   -1.1244319998    1.2501466970
 H    2.4861273141   -2.6673192334    2.6850533755
 H    2.8738708261   -0.9970222404    3.1370742534
 H   -0.8507115766    0.3163046883    1.1094398398
 H   -0.5396789691   -0.7463898670   -0.2673583295