15

 N    0.0478141540    1.2965070973   -0.0941307232
 C   -0.0430313964   -0.0683527778   -0.0310432499
 N   -1.1537714667   -0.6980583772    0.0384357398
 C   -1.0288188757   -2.1667904320   -0.0372688556
 C    0.0276144928   -2.5362545683   -1.1269953541
 C    1.1055052762   -2.0858221957   -0.1015304835
 O    1.1942878047   -0.6444649387   -0.1024005696
 C    0.0674828822   -2.5413452101    0.9689819234
 O    0.1411723272   -3.0836700639    2.0306118338
 H    0.9076181395    1.6937495887    0.2511529463
 H   -0.7936530329    1.7765068953    0.1840949864
 H   -2.0076744971   -2.6424011828   -0.0171384979
 H    0.0844881257   -3.6094312458   -1.3230126872
 H   -0.0207873424   -1.9673735130   -2.0571445710
 H    2.1230527586   -2.4711772560   -0.1148031877