18

 N   -0.0445816963    1.2848951119   -0.0908914746
 C   -0.0114913431    0.0264045009   -0.0481730980
 O    1.1055195135   -0.7634622786   -0.0428580908
 C    0.6457328136   -2.1320763847    0.0509377115
 C    0.5648054078   -2.5681400494    1.5148219823
 C   -0.3440876464   -1.6034056162    2.3068155390
 C   -1.5915623548   -1.1884144738    1.4968856039
 C   -1.1996934972   -0.9175201405    0.0359278128
 O   -0.6405749083   -2.1176022622   -0.5196822167
 H    0.8992691178    1.6747518504   -0.1162325813
 H    1.3052677987   -2.7522627094   -0.5592010138
 H    0.1608662107   -3.5867462871    1.5212562371
 H    1.5667052855   -2.6075352622    1.9538042510
 H   -0.6386162819   -2.0565510447    3.2576773653
 H    0.2296355412   -0.7048200263    2.5570649873
 H   -2.3377346404   -1.9903010217    1.4899461620
 H   -2.0569271067   -0.2994762681    1.9334976368
 H   -2.0367157537   -0.5963851683   -0.5824230335