16

 O   -0.1639035660    0.1528937175   -0.1039156685
 C   -0.0031511096    1.3439730890   -0.0579339999
 C    1.3892382651    1.9816217852    0.0392381625
 N    2.4807957389    1.0328365314    0.0353296566
 C    2.8882427711    0.5902905816    1.3786152697
 C    3.9410110802   -0.4155887790    1.3045330328
 C    4.7923985457   -1.2602821466    1.2420336087
 C    1.5316141761    3.0137296546   -1.0926098478
 O    0.7363761149    3.8922447329   -1.2929367862
 H   -0.8428926878    2.0639783335   -0.1175677792
 H    1.3943067483    2.5749450912    0.9655437832
 H    2.1905544046    0.2095755886   -0.4864075123
 H    3.2604510652    1.4667575654    1.9254447164
 H    2.0481005406    0.1836293688    1.9666309083
 H    5.5501662687   -2.0024852882    1.1896194529
 H    2.4436015742    2.8599621440   -1.7074709572