19

 C   -0.0092671806   -1.1897465794    0.0108192421
 C   -0.0109310389    0.0141888167    0.0120165525
 C   -0.0164172073    1.4517954658    0.0112482123
 C   -0.4554308297    2.1831318002   -1.3071651808
 C    0.8803128973    2.9926866714   -1.3092008000
 C    1.3183839639    2.2858205389    0.0053657837
 C    0.9287472898    2.9072025834    1.3635983429
 C   -0.4002532015    3.6074046553    1.3187341298
 C   -0.3786998962    2.1080187308    1.3771015055
 H   -0.0070236686   -2.2512671276    0.0089443355
 H   -0.5499038221    1.4947923939   -2.1483487883
 H   -1.3776030491    2.7631268125   -1.2272058902
 H    1.5237181423    2.7523824707   -2.1584243073
 H    0.7850318692    4.0797745026   -1.2513812281
 H    2.2749832787    1.7652095558    0.0045905408
 H    1.6273508089    3.0800047355    2.1732178119
 H   -0.6897568925    4.0835854420    2.2505232384
 H   -0.7377382089    4.1454167251    0.4388928601
 H   -0.8413134746    1.5575445463    2.1869158392