25

 C    0.1256061443    1.3940261952   -0.5672800990
 C   -0.0593296649   -0.1215603218   -0.4373503453
 C   -1.3665997374   -0.5008471714    0.2598120836
 C   -2.6398645486   -0.3354539566   -0.6308513361
 C   -2.6799479373   -1.8586967931   -0.7948413927
 C   -3.8405062986   -2.7247611459   -1.1755805545
 C   -2.6559044387   -2.5905906845   -2.1074763713
 C   -1.6823693015   -2.0365105668    0.3645568816
 C   -0.5661874066   -3.0658373203    0.2564820876
 H    1.0622022105    1.6380882754   -1.0784182865
 H   -0.6913528910    1.8503575871   -1.1365043914
 H    0.1481975927    1.8736676682    0.4177815086
 H   -0.0257413065   -0.5802068288   -1.4340695882
 H    0.7872606345   -0.5411698825    0.1209869149
 H   -1.4186745075    0.0217673875    1.2211189811
 H   -3.4999552580    0.0585630036   -0.0799724373
 H   -2.5168902629    0.2532158852   -1.5456430461
 H   -3.9706188487   -3.6682400828   -0.6533466186
 H   -4.7715323525   -2.2412046374   -1.4554777756
 H   -2.7824892146   -2.0111972447   -3.0170779899
 H   -1.9948106680   -3.4448057542   -2.2146168423
 H   -2.2395955359   -2.2174735041    1.2925904125
 H    0.0302996938   -2.9329749885   -0.6508205868
 H    0.1111470262   -3.0059391148    1.1155985997
 H   -0.9760483327   -4.0824755542    0.2372886118