17

 N    0.1305192136    1.2755466590    0.3037814927
 C   -0.0310415786   -0.0717620573    0.0810608377
 N   -1.1203425875   -0.7142073106   -0.1925260064
 C   -0.7109932547   -2.0505195251   -0.2194889327
 C    0.6139023971   -2.1416637507    0.0310526540
 O    1.0718568722   -0.8438039730    0.2331403627
 C    1.5843866302   -3.2325871604    0.1222141550
 C    3.0170085423   -3.0568328389   -0.3438009687
 C    2.7226213587   -3.1953014297    1.1240337233
 H    1.0333640133    1.6390978848    0.0337974045
 H   -0.6389876360    1.8177076474   -0.0614607261
 H   -1.4074003379   -2.8480851979   -0.4247687550
 H    1.1332155345   -4.2020577480   -0.0599547267
 H    3.4837281402   -3.8865167110   -0.8628809168
 H    3.2993225191   -2.0768612298   -0.7108297100
 H    2.8063742530   -2.3081211628    1.7409435223
 H    2.9854036004   -4.1212528460    1.6232047601