17

 N    0.0170447401   -1.0932850866    0.1435363627
 C    0.0050681781    0.0592995470    0.0536846677
 C   -0.0606069589    1.5051607800   -0.0740492753
 C    0.5037642568    2.1275770019   -1.3206500114
 N    1.2492969294    2.1808771530   -0.0733583997
 C    1.3061370051    3.4780914954    0.6317532840
 C    0.4600338226    3.4873921886    1.9103378006
 C   -0.9470872246    3.0320842486    1.6175671081
 C   -1.1944429661    2.1313521559    0.6689236663
 H    0.9203479551    1.4940097406   -2.0986308209
 H    0.0085625728    3.0339045203   -1.6652779018
 H    2.3577642697    3.6758985128    0.8625828252
 H    0.9557512320    4.2867300505   -0.0234697760
 H    0.9135032070    2.8373039665    2.6708585389
 H    0.4605708303    4.4977014120    2.3313941575
 H   -1.7637069991    3.4603534485    2.1910711637
 H   -2.1965101902    1.7801650148    0.4450129103