17

 O   -0.3231069315   -0.0646428731   -0.2712420647
 C   -0.0970022633    1.1039474131   -0.0831208702
 C   -1.1799280633    2.1601053161   -0.1536035509
 C   -1.4551967209    2.7683708872    1.2366872122
 C   -0.5332933916    3.9296531976    1.6059356325
 C    0.9504342851    3.7275651681    1.5275656707
 C    1.7060173565    2.7626870696    0.9814500433
 C    1.3642057680    1.5246136717    0.2491212121
 O    2.2522681025    0.7921910405   -0.1347580940
 H   -0.8909582400    2.9521765464   -0.8568220494
 H   -2.0722138967    1.6650297038   -0.5429775828
 H   -2.4866069923    3.1338260776    1.2609246991
 H   -1.3934008463    1.9819723908    1.9987062656
 H   -0.7691106368    4.7967646200    0.9677029975
 H   -0.7675751438    4.2681924358    2.6240292642
 H    1.5058273082    4.5433729160    1.9901331000
 H    2.7856881160    2.8635034787    1.0624291749