21

 O   -0.1039620268    1.4677649468    0.1075630805
 C    0.0040494757    0.0512276248   -0.0090419691
 C    0.7816699856   -0.5231361634    1.1850374088
 C    0.9809733409   -2.0412176266    1.1997936034
 O   -0.2398743733   -2.7635288589    1.3119092172
 C   -0.8378645741   -3.0215695290    0.0776075078
 C   -2.3312444671   -2.9589672682    0.0151239982
 C   -1.4999364856   -1.8873048609   -0.6660993919
 C   -1.4313083876   -0.4814338038   -0.0995385008
 H    0.7797625216    1.8253779286    0.2405613462
 H    0.5346408864   -0.2093277486   -0.9420501168
 H    1.7789998200   -0.0587866843    1.2146603201
 H    0.2637225129   -0.2232236595    2.1040940882
 H    1.5360276186   -2.3699791566    0.3078208255
 H    1.5770006199   -2.3153331009    2.0767113401
 H   -0.3277592604   -3.7886571727   -0.5074015525
 H   -2.8558176269   -3.6888740885   -0.5911545243
 H   -2.8394864423   -2.6763389053    0.9305636024
 H   -1.4395418957   -1.9427551837   -1.7500986983
 H   -1.8844393746   -0.4407381137    0.8964301253
 H   -2.0046532071    0.2033597544   -0.7327476101