20

 C    0.0137505961    1.4615529433    0.4372722688
 C    0.0370973309    0.0277213844   -0.0480535432
 C   -1.0567893180   -0.7408100959    0.1041482293
 C   -1.3763595069   -2.1696881028   -0.2292184621
 C   -0.4680620147   -2.9215138795   -1.2064653058
 N    0.9460002578   -2.9252356616   -0.8763354869
 C    1.6763975897   -1.7338563721   -1.2497750965
 C    1.3541786575   -0.3526547104   -0.6492196536
 O    2.2371390279    0.4854171375   -0.6996939795
 H    0.7944152117    1.6343255848    1.1843422631
 H    0.2250875714    2.1539569360   -0.3832077527
 H   -0.9557103864    1.7138479633    0.8730942741
 H   -1.8948425470   -0.2494660481    0.5998723822
 H   -1.4149174008   -2.7244003594    0.7232945427
 H   -2.4091888674   -2.2062980103   -0.6048007065
 H   -0.8240662413   -3.9576089569   -1.2724847608
 H   -0.5701631362   -2.4931675269   -2.2110642191
 H    1.0938626140   -3.1578954013    0.0994713349
 H    2.7433825942   -1.8847097259   -1.0583471893
 H    1.5881938573   -1.6060529081   -2.3386015590