18

 C   -0.0623095858    1.5597179419    0.0905729962
 C    0.0280888359    0.0666535786    0.0565317255
 C   -0.7828395578   -0.8991488336    0.8856563161
 C    0.7426056936   -0.9387553023    0.9603296428
 C    1.2278327706   -1.5954688517   -0.3121195376
 C    1.4454725024   -2.7285633343   -1.0604967614
 C    0.9351987799   -2.4241618413   -2.3666211448
 C    0.3529840813   -1.1694315274   -2.3480180710
 N    0.6172275988   -0.6454490265   -1.1047408143
 H    0.8868968747    2.0174011058   -0.2043339812
 H   -0.8432207241    1.9252817890   -0.5862995054
 H   -0.3138992446    1.9006581390    1.0990698146
 H   -1.2935113408   -0.4635505984    1.7418876377
 H   -1.3122496912   -1.7171785991    0.4072995403
 H    1.2929554356   -0.7458914509    1.8712126003
 H    1.9116609741   -3.6515822335   -0.7526775341
 H    1.0330878119   -3.0487837785   -3.2435029984
 H   -0.1018310146   -0.5955804870   -3.1399785454