18

 C   -0.0245117999    1.5363624507    0.0209374695
 C   -0.0028740639    0.0001743012   -0.0369028305
 C   -1.4352899236   -0.5573191741   -0.0042214831
 C    0.8198198019   -0.5397765373   -1.2349248235
 C    1.9540936513   -1.3115115597   -0.6118808912
 C    1.9241162880   -1.3073766529    0.7258668323
 C    0.7613687458   -0.5296883980    1.2030534681
 O    0.4352219901   -0.3236926684    2.3506024374
 H    0.9880513107    1.9512977811   -0.0271927471
 H   -0.6006315554    1.9493956782   -0.8138756870
 H   -0.4799245418    1.8680043545    0.9582901760
 H   -2.0251279091   -0.1646239991   -0.8392694028
 H   -1.4390374425   -1.6506471418   -0.0704917906
 H   -1.9240910268   -0.2752527835    0.9325437568
 H    0.2241672753   -1.1864473726   -1.8917686164
 H    1.2026880593    0.2658175151   -1.8743458451
 H    2.7048973726   -1.8101238815   -1.2166933054
 H    2.6228766080   -1.7862737921    1.3997600426