19

 C    0.0268632327    1.5699333680    0.0491011317
 C   -0.0516836262    0.0699640671   -0.0512255152
 C    0.3803734092   -0.7020271163   -1.3094496526
 N   -0.5509345943   -1.8247383603   -0.9489759368
 C   -0.0484472930   -2.5283358867    0.3191551041
 C    1.2030047904   -1.8714339657    0.9117486356
 N    0.3987473922   -0.6449304531    1.2442434808
 C   -0.8542344326   -1.5252744515    1.1881371883
 C   -1.3262905577   -0.8298449353   -0.0812284675
 H    1.0725492044    1.8910370802    0.1196417596
 H   -0.4211481715    2.0481261908   -0.8287687815
 H   -0.4886462034    1.9280789473    0.9450963622
 H    0.0017298001   -0.2168836278   -2.2161966522
 H    1.4289472340   -0.9671880711   -1.4724834912
 H   -0.1676753515   -3.6133280266    0.2767129987
 H    1.4952246176   -2.3568064998    1.8496605794
 H    2.1009341500   -1.7208199858    0.3061292082
 H   -1.3950710776   -1.7286483944    2.1125057754
 H   -2.3341189328   -0.5421747590   -0.3830169772