22

 C    3.9791884935   -3.7867748931    0.2741715897
 N    2.5850162704   -3.4123288269    0.1770813917
 C    2.1766571937   -2.7046034479   -0.7882136458
 C    2.9615390638   -2.1326319287   -1.9500291752
 O    0.8692554761   -2.3452364334   -0.9035857384
 C   -0.0578107603   -2.7899283996    0.0786965296
 C    0.0425111916   -2.0667504069    1.3997610959
 C   -1.3962217033   -3.1266199256   -0.5131683799
 C   -0.4838694378   -4.2248867090   -0.0030675680
 H    4.6233676330   -3.4318800284   -0.5422060825
 H    4.3936963417   -3.4091466050    1.2170140816
 H    4.0597710986   -4.8798594012    0.3146741521
 H    3.4281357516   -2.9306416204   -2.5350359887
 H    2.2984411111   -1.5620752049   -2.5997254856
 H    3.7602322349   -1.4748961013   -1.5950937108
 H   -0.0378485335   -0.9846415084    1.2501424294
 H   -0.7710182240   -2.3784669439    2.0613324836
 H    0.9931756009   -2.2892661685    1.8879819956
 H   -2.2837410611   -2.8737878255    0.0565707781
 H   -1.4980480159   -3.0205264159   -1.5870624821
 H    0.0111717410   -4.8481691940   -0.7376220227
 H   -0.7373555960   -4.7330329416    0.9208084324