18

 O   -0.0623353122    1.4416544341    0.0265683121
 C   -0.0020532237    0.0248353793    0.0031201989
 C    0.6765312752   -0.5930754207    1.2507666170
 C    0.0071440919   -1.9658139431    1.4558066446
 C   -1.4035764633   -1.7915543592    0.8807600747
 C   -2.1685251742   -0.5420480105    1.2877631920
 C   -1.4080031809   -0.5478540410   -0.0044276351
 C   -2.1424454147   -2.9676569561    0.5211354680
 N   -2.7255591431   -3.9264390441    0.2380216826
 H    0.8315349667    1.7820998271   -0.0800672408
 H    0.5106576715   -0.3188937299   -0.9087341084
 H    1.7609021328   -0.6742900630    1.1385911117
 H    0.4889097106    0.0701340087    2.1006091623
 H    0.5255662548   -2.7435452559    0.8860433845
 H   -0.0032252642   -2.2822440736    2.5030401187
 H   -3.2484020291   -0.5952132672    1.2213774399
 H   -1.7971119519    0.0323381897    2.1286467991
 H   -1.9663521163   -0.5380826347   -0.9323208920