14

 C    0.1580342532    1.5004507176    0.0647727589
 C   -0.0232999076    0.0322416525    0.0495010601
 C   -1.1234690894   -0.7514451269   -0.0271646351
 N   -0.6529694080   -2.0778908755    0.0032835141
 C    0.7140636849   -2.1007561084    0.0969590393
 O    1.4796709877   -3.0207110817    0.1477713207
 O    1.0953466232   -0.7600238158    0.1250460493
 C   -2.4831432422   -0.4108750870   -0.1196282379
 C   -3.6556848290   -0.1449841919   -0.1993565274
 H    0.7777689306    1.8293562937   -0.7769188625
 H   -0.8151147341    1.9907827420   -0.0019240559
 H    0.6552830404    1.8264752373    0.9852065985
 H   -1.2140969738   -2.9102205518   -0.0360419580
 H   -4.6869415260    0.1000373659   -0.2693881040