13

 N   -0.1049015082    1.3395231600    0.0107477588
 C    0.0035762996    0.0741851609    0.0032431712
 N    1.1754487454   -0.6802682527   -0.0071876855
 C    1.2743083023   -2.0642436967   -0.0153633882
 O    2.3290823853   -2.6503900579   -0.0242989764
 N    0.0421548230   -2.6984832401   -0.0123722346
 C   -1.2093162614   -2.0895741302   -0.0022731563
 O   -2.2436937126   -2.7106804344   -0.0001960538
 N   -1.1420039954   -0.7111344038    0.0051016572
 H    0.7992079875    1.8052361559    0.0084268419
 H    2.0590779565   -0.1948402698   -0.0092337009
 H    0.0520201038   -3.7074448711   -0.0180122649
 H   -2.0206394859   -0.2151027299    0.0124759716