19

 C    0.0230795220    1.5171809484   -0.0454352711
 N    0.0359738801    0.0540573892    0.0141260799
 C   -1.1134845624   -0.7040936732    0.6406651128
 C   -0.1477851791   -1.9177649283    0.6666578472
 C    0.6451214291   -0.6871682728    1.2038753371
 C    2.0953988968   -0.5771384334    1.5734215472
 C   -0.6048617871   -0.4009228871    2.0900938375
 O   -0.6963261071    0.8716685809    2.6766821226
 H    1.0376541906    1.8535274828   -0.2882827486
 H   -0.6171644354    1.8082823792   -0.8865973120
 H   -0.3130641357    2.0395502827    0.8537245830
 H   -2.1269493652   -0.6578862288    0.2374876632
 H   -0.3609552218   -2.7275956221    1.3671598827
 H    0.1670677250   -2.2623393339   -0.3163809740
 H    2.7295367034   -0.8008319419    0.7099450241
 H    2.3318987697    0.4323045770    1.9251778363
 H    2.3426395583   -1.2796997606    2.3758833772
 H   -0.8364084455   -1.1806876934    2.8321732993
 H   -1.5548309255    0.9442217352    3.1051570255