18

 C    0.0322285407    1.6639838700    0.1427427048
 C    1.5161334891    1.2364367412    0.0758178836
 C    1.1297014447    0.0135230118    1.0045982411
 C    0.0526615644    0.1163730528   -0.1084811782
 O   -0.9877188111   -0.6381891668   -0.6261477666
 C   -0.8886566194   -0.4774970748   -2.0697091216
 C    0.3277446136    0.4691034038   -2.4021916922
 C    1.1646548859    0.2901188870   -1.1334951824
 H   -0.3349794503    1.9947960576    1.1169540887
 H   -0.3424471519    2.3039426788   -0.6568037141
 H    2.3904447403    1.8721751076    0.1993081636
 H    1.7922888350   -0.8546409621    0.9693362701
 H    0.8328124147    0.2648059926    2.0256496138
 H   -0.7468376764   -1.4731604330   -2.5053739482
 H   -1.8347519085   -0.0715870518   -2.4416039974
 H    0.8375009646    0.1427716176   -3.3115900749
 H   -0.0173771710    1.4914831621   -2.5664940301
 H    1.8337142656   -0.5723379046   -1.2179308600