21

 C   -0.2970634821    1.6630277522   -0.0913443703
 C    0.0368656328    0.1698991981    0.0799352145
 C    0.7832117294   -0.3865161428   -1.0432705601
 C    1.4057470955   -0.8219325292   -1.9794676677
 C    2.1492121886   -1.3460737614   -3.1118510538
 O    3.5513244293   -1.5972540037   -2.8250813781
 C    3.4349411928   -2.9890245108   -3.1826694529
 C    1.9353327650   -2.8442904441   -3.5163464848
 C    0.9568017167   -3.6786606793   -2.7072164521
 H    0.6161407484    2.2557018135   -0.1908111936
 H   -0.9035353382    1.8254407939   -0.9864756545
 H   -0.8551730780    2.0305484674    0.7749493490
 H    0.6155180765    0.0255336711    1.0013858520
 H   -0.8905516942   -0.4013142306    0.2167550753
 H    2.0561094091   -0.6551794583   -3.9607680906
 H    4.0925307590   -3.2530757657   -4.0199811710
 H    3.6591374226   -3.6480253105   -2.3333260581
 H    1.7248197864   -2.9405037886   -4.5844009049
 H    1.1469028641   -3.5803289477   -1.6345424850
 H   -0.0763166917   -3.3678161985   -2.8917616211
 H    1.0434010180   -4.7371482550   -2.9757941822