25

 C   -0.0213542232    1.5752657102    0.1709968362
 C   -0.0210699438    0.0446435418    0.2160597670
 C   -1.3490462771   -0.5608008426   -0.2638540504
 C   -1.4203972158   -2.0797663511   -0.1526819209
 C   -0.3832074484   -2.8192861070   -0.9832725128
 C   -1.7904839352   -2.6791376554    1.2002802243
 C   -2.7642547375   -2.7531334945    0.0441489146
 C   -4.0771295803   -1.9995749006    0.0802391300
 O   -2.8890491788   -3.9974115104   -0.6073342507
 H    0.9343399074    1.9853535135    0.5124101007
 H   -0.1955023135    1.9417510713   -0.8470424335
 H   -0.8090767960    1.9919850974    0.8089931075
 H    0.8048455749   -0.3337055850   -0.3969653063
 H    0.1783603831   -0.2949723049    1.2406965474
 H   -2.1582677324   -0.1027400445    0.3151511558
 H   -1.5201588584   -0.2668323519   -1.3094540004
 H    0.6285331608   -2.6283622737   -0.6112174304
 H   -0.5600873355   -3.8944806430   -0.9658837729
 H   -0.4199570991   -2.4929468007   -2.0296370321
 H   -1.2995140627   -3.6019743341    1.4925405804
 H   -2.0117009250   -2.0033566541    2.0215166494
 H   -4.0050715747   -1.0496361861    0.6130543274
 H   -4.4398350444   -1.8046363110   -0.9343214704
 H   -4.8364973317   -2.6021014721    0.5949970540
 H   -3.4325211326   -4.5637982217   -0.0486220639