17

 C    0.3317901559    1.3819407653    0.0008646621
 C   -0.0050338562   -0.0955056860   -0.0156116941
 C   -1.4421721535   -0.4472370090    0.3746977311
 C   -1.7715587655   -0.0038375617    1.7295848293
 N   -2.0083443938    0.3626958247    2.7993613493
 C    0.6962548952   -0.9994955041   -0.9942553828
 N    0.9873699845   -1.0665867380    0.4198942472
 C    2.2320148111   -0.7893337545    0.9687415414
 O    3.2837813262   -1.1021235350    0.4697728332
 H    1.3719570605    1.5492299311   -0.2903257191
 H   -0.3105374238    1.9243561800   -0.7005836101
 H    0.1761070278    1.8111250483    0.9953757602
 H   -2.1429626380    0.0191394060   -0.3276457707
 H   -1.5848448452   -1.5301143421    0.3146889106
 H    0.1751225786   -1.8549927860   -1.4164468131
 H    1.4585677365   -0.5621545256   -1.6340433976
 H    2.1439499897   -0.3071447835    1.9597112231