15

 O    0.1187131496    1.4017881475   -0.0363432383
 C   -0.0020198271    0.0196317848    0.0030469779
 C    0.2710584975   -0.6871938142    1.3461288544
 O   -0.4311205809    0.0235735186    2.3989904218
 C   -1.6603589444   -0.7127232140    2.1382530944
 C   -0.9348792993   -1.6300420768    1.1050894378
 C   -1.4245829679   -0.6688425987   -0.0578066085
 C   -2.3988450688   -0.0507328212    0.9503133960
 O   -3.4123608100    0.5755462396    0.8502537544
 H   -0.1887824786    1.7302131193    0.8203667618
 H    0.6189577678   -0.4003624349   -0.7951497407
 H    1.2892671224   -0.9454718344    1.6403211832
 H   -2.1864617476   -0.9995033544    3.0499545816
 H   -0.9484706995   -2.7138307630    1.0861250967
 H   -1.8089453432   -0.9617618182   -1.0332973626