21

 C   -0.0881865894    1.4669705536   -0.0581266281
 C   -0.0211752487   -0.0233042407    0.0493209705
 C   -1.0106178572   -0.9012753960    0.2167792752
 C   -2.4597004150   -1.1781705854   -0.1239766910
 C   -1.9040006420   -2.4704577610   -0.8457943651
 O   -1.7128735913   -2.3140213343   -2.2298787630
 C   -0.5931887524   -2.3338363564    0.0356316885
 C    0.8407414510   -2.2368423271   -0.5124701446
 C    1.2931647017   -0.8014969700   -0.0893635305
 H    0.4558974826    1.9491911240    0.7647097601
 H    0.3770970875    1.8248061982   -0.9857665045
 H   -1.1204339377    1.8272622609   -0.0292361632
 H   -3.0769522926   -1.4375008659    0.7429463131
 H   -3.0016836309   -0.4627861337   -0.7488515053
 H   -2.4860508381   -3.3864981213   -0.7210288848
 H   -1.2352007565   -1.4864951442   -2.3670785048
 H   -0.6813273373   -2.9541146223    0.9357191031
 H    1.5099965084   -3.0192574854   -0.1450099063
 H    0.8205657964   -2.3126883992   -1.6060893289
 H    1.9563778175   -0.3390752104   -0.8307084454
 H    1.8577567841   -0.8186769834    0.8540137449