16

 C   -0.1649022800    1.5470557585   -0.0164590402
 C    0.0820795684    0.0270358495    0.0339691549
 C    0.7848528740   -0.4889909491   -1.1878798194
 C    2.0679734231   -0.9081129227   -1.2243553431
 C    2.6278493523   -1.3665176228   -2.4614859508
 N    1.9945628506   -1.4243737069   -3.5834037828
 O    0.6740620838   -1.0092657168   -3.5643685791
 C    0.0130010176   -0.5398316678   -2.4365867623
 O   -1.1392661292   -0.2162700288   -2.5631509398
 H    0.7787685027    2.0971459651   -0.0838154921
 H   -0.7821804871    1.8051474612   -0.8791911598
 H   -0.6846818031    1.8724684220    0.8889581603
 H    0.6728621751   -0.2287690507    0.9196710817
 H   -0.8836339939   -0.4832697562    0.1176600246
 H    2.6878088437   -0.9054112162   -0.3329066758
 H    3.6585617218   -1.7024084983   -2.5202734463