23

 C   -0.0429782470    1.5317720215   -0.3131535370
 C    0.0104760000    0.0472207455   -0.0221271680
 C    1.3023125092   -0.6970048015   -0.0106550154
 N    0.5421180308   -0.5104250068    1.2232613371
 C    1.1026311584    0.3733522288    2.2376409307
 C    1.9097029452   -0.4494803858    3.2424947624
 N    2.4901758395    0.4186773097    4.2600929271
 C    1.6779859629    0.6476386197    5.4518306854
 C    2.8836537413   -0.2236955945    5.5075072381
 H    0.8814411488    2.0456019256   -0.0401244303
 H   -0.2084634131    1.6934381048   -1.3836657311
 H   -0.8697107522    2.0108923063    0.2233281477
 H   -0.8709687066   -0.4925823239   -0.3678220544
 H    1.3721689180   -1.7150267995   -0.3856885558
 H    2.2084162310   -0.1041873212   -0.1398928216
 H    1.7543869592    1.1635534697    1.8338517767
 H    0.2743123719    0.8700459135    2.7577802609
 H    1.2623000444   -1.2347125738    3.6704298041
 H    2.7301855501   -0.9565609243    2.7203883969
 H    1.7024951001    1.6545098523    5.8587748854
 H    0.7081168508    0.1549199679    5.5101151423
 H    2.7160909440   -1.2954284458    5.6051775827
 H    3.8063929433    0.1349734118    5.9550671062