19

 C   -0.0081170501    1.5652358547    0.0349117172
 C   -0.0873599781    0.0408138041   -0.0688759916
 C    0.7566970308   -0.5243575137   -1.2253161285
 C    0.7306367457   -2.0172387246   -1.2999483469
 C    0.2272759407   -2.8171544151   -2.2851748542
 N    0.4416177958   -4.1259819647   -1.8544979447
 C    1.0554320889   -4.0304878800   -0.6511993135
 O    1.3957277060   -5.1473064823    0.0160242120
 N    1.2519472088   -2.7985595710   -0.2703083102
 H    1.0229554903    1.8978520013    0.2004668815
 H   -0.3651333266    2.0469871575   -0.8827924033
 H   -0.6154550972    1.9409287339    0.8645046708
 H    0.2521334422   -0.4191858798    0.8656316844
 H   -1.1304123169   -0.2716789444   -0.2039551538
 H    0.4042795833   -0.1102285052   -2.1779025704
 H    1.7943471365   -0.1857531257   -1.1014975580
 H   -0.2490332564   -2.6014679208   -3.2265263787
 H    0.2086675154   -4.9776496152   -2.3347553328
 H    1.8160439011   -4.8516862292    0.8332341106