16

 O    0.1668772870    1.3162599041   -0.1946884168
 C    0.0683680901   -0.0560682815   -0.0625995341
 C    0.0555266594   -0.6355046324    1.4227949395
 N   -1.3621515142   -0.1304774990    1.4449847161
 C   -1.3945574262   -0.6615938624    0.0448666171
 C   -1.0472905669   -2.1547166019    0.1913037237
 C   -0.0716852908   -2.1191458068    1.1257961599
 C   -1.5874271600   -3.2112070920   -0.5602046450
 C   -2.0890200341   -4.0870641800   -1.2204686139
 H   -0.4570728445    1.6849718054    0.4478314513
 H    0.7501398636   -0.5267347707   -0.7710594450
 H    0.7394390807   -0.2868756656    2.1956349556
 H   -1.9608586816   -0.6558539105    2.0840323786
 H   -2.2142902927   -0.3667747751   -0.6088303056
 H    0.5409024233   -2.9240661626    1.5045954484
 H   -2.5176488431   -4.8680985691   -1.7978788797