17

 C   -0.1597053186    1.5222788440   -0.0198962806
 C   -0.0453390545    0.0275111105    0.0130797838
 C    0.0786907866   -0.8102078888   -1.0796109779
 N    0.1156255334   -2.1045225509   -0.6388227719
 C    0.0571005629   -2.1198228144    0.7412259912
 C   -0.0501928811   -0.8083904608    1.1606411678
 C    0.0829367815   -3.3470652033    1.5457772624
 N   -0.1466278376   -4.5224234787    0.8320437937
 O    0.3245245664   -3.3535332831    2.7380540166
 H    0.6124710064    1.9979626545    0.5947010413
 H   -0.0539996716    1.9046613909   -1.0393295857
 H   -1.1286437590    1.8643363410    0.3618265597
 H    0.1451809893   -0.5778140560   -2.1314659199
 H    0.3673757327   -2.8991548621   -1.2016997404
 H   -0.1428667783   -0.5035897202    2.1917511769
 H   -0.8214641664   -4.4799427658    0.0820093629
 H   -0.2535211922   -5.3288176869    1.4321376501