19

 C   -0.4116998257    1.2277326592   -0.3180862822
 C   -0.1434112253   -0.2299417895   -0.6771209622
 N    1.2814499389   -0.5415214965   -0.5310406795
 C    1.6314560550   -1.8968475899   -0.8828518298
 C    1.6037014895   -2.2021832429   -2.3764148224
 O    1.5133909487   -1.3893714558   -3.2556272465
 O    1.7369054563   -3.5530763805   -2.5829771008
 C    1.7853630223   -4.0115155445   -3.8779595077
 N    1.9056820154   -5.2496348202   -4.0586814540
 H   -0.0665488341    1.4460312315    0.6965460421
 H    0.1086417824    1.9033502050   -1.0065810636
 H   -1.4806215358    1.4511863961   -0.3810034116
 H   -0.6949986509   -0.8870841739    0.0079107495
 H   -0.5218363215   -0.4360739950   -1.6921398530
 H    1.8198783978    0.0990569331   -1.1071487740
 H    2.6474341184   -2.1333387062   -0.5374131015
 H    0.9716419230   -2.6064553958   -0.3719468571
 H    1.7096828753   -3.2106493341   -4.6136395046
 H    1.9282702903   -5.4516783400   -5.0573829811