27

 C   -0.1054927607    1.6279152326    0.0011491094
 C    0.0587994455    0.1046831966    0.0153076808
 C    0.7012876424   -0.4692337793    1.2924755334
 C   -0.1583397999   -0.2131362983    2.5385852718
 C    1.0037471174   -1.9701680294    1.1025871582
 C    1.8274807380   -2.5893908039    2.2164410434
 C    1.1940380086   -3.3481605903    3.3623795283
 C    2.0325984585   -4.0840140546    2.3458706268
 C    1.4121856837   -5.0812602721    1.3906791691
 H    0.8548473812    2.1302737361    0.1650844957
 H   -0.4966661563    1.9692290849   -0.9626173952
 H   -0.7970042674    1.9748232762    0.7748158467
 H   -0.9208685894   -0.3706460309   -0.1354094591
 H    0.6724917050   -0.1916026239   -0.8453391725
 H    1.6649386881    0.0444004050    1.4354495887
 H   -0.3189489971    0.8554023719    2.7086340279
 H   -1.1437480594   -0.6846343382    2.4338563373
 H    0.3112323981   -0.6239852927    3.4359580581
 H    0.0547118217   -2.5099966414    0.9892095956
 H    1.5388115251   -2.0944450522    0.1506646098
 H    2.6980378114   -1.9924680784    2.4832272678
 H    1.5799402154   -3.2106601596    4.3670807644
 H    0.1190969696   -3.4997328528    3.3208901609
 H    3.0228434888   -4.3744404750    2.6890606795
 H    0.3984500694   -4.7922585398    1.0994575851
 H    2.0044897370   -5.1806707326    0.4737139159
 H    1.3489732452   -6.0729246182    1.8525004723