19

 C    0.3116577741    1.4859055160   -0.3333077353
 N   -0.0495034777    0.1265273722    0.0587178259
 C    1.0215230107   -0.8685420541    0.0726177847
 C    0.4133734291   -0.3822563373    1.3443542058
 C    1.1721606699    0.4610728897    2.3581824368
 N    1.5145576713   -0.2829737026    3.6088920380
 C    2.9313229954    0.1685313321    3.5900991317
 C    2.6783852384    0.7500258755    2.1950748042
 O    3.3598417090    1.2227742799    1.3341486874
 H    1.3317191449    1.7856646058   -0.0502691329
 H    0.2234047278    1.5657858470   -1.4211992399
 H   -0.4003250624    2.1907504408    0.1098995660
 H    0.7654350967   -1.8496462003   -0.3187375834
 H    2.0289591572   -0.5302205107   -0.1596824841
 H   -0.3075297600   -1.0258702780    1.8474654182
 H    0.6313636877    1.4040023122    2.5404396577
 H    0.9985905074    0.0311090377    4.4220641398
 H    3.1992671393    0.9492569636    4.3153498950
 H    3.6689178810   -0.6386110193    3.6565771543