21

 C    0.5078337929    1.3781644243   -0.0109717162
 C   -0.4742502000    0.2539777116   -0.2957425673
 O   -1.5806320119    0.2375090691    0.1979959616
 C   -0.0038170608   -0.8178807943   -1.2575244998
 C    1.4146521394   -1.4535148680   -1.0996236496
 C    0.8016793846   -2.8249397315   -1.5045109868
 C   -0.5916957248   -2.2391220154   -1.2350873540
 C   -1.5752915278   -2.8020995998   -0.2465214201
 C   -1.9214139754   -2.7258660074   -1.7176342215
 H    0.9184935881    1.7818154242   -0.9429790053
 H    0.0112168992    2.1681351036    0.5537739166
 H    1.3560609592    0.9971696131    0.5689045750
 H   -0.0963862414   -0.3827989497   -2.2642125629
 H    2.2151990987   -1.0533341808   -1.7249894188
 H    1.7463465500   -1.4509997643   -0.0575849752
 H    0.9664645925   -3.0512451406   -2.5632577586
 H    1.0995519954   -3.6926699114   -0.9101921627
 H   -1.3491496245   -3.7783950247    0.1717266105
 H   -2.0779581300   -2.1161355404    0.4219149503
 H   -2.6530089249   -1.9829663916   -2.0189164508
 H   -1.9502159887   -3.6459538260   -2.2934323645