20

 N   -0.1090514793    1.2896898869   -0.5257201795
 C   -0.0183924504    0.1071067076   -0.0778162925
 C   -1.2579885189   -0.7440431373    0.0912083187
 C   -1.5660981495   -1.2796159800    1.5047362262
 C   -0.3849582701   -1.9581494755    2.2085580600
 C    0.7677918688   -0.9642012762    2.5375409637
 C    1.4472891882   -1.3752702801    1.2085743449
 C    0.5955886929   -2.6736930841    1.2309983978
 O    1.2125506109   -0.4623118951    0.1332307178
 H    0.8264590110    1.6957319131   -0.6061601178
 H   -2.0922673706   -0.1343278457   -0.2584548208
 H   -1.1666980486   -1.5902106217   -0.6003353635
 H   -1.9294671493   -0.4588327836    2.1351711503
 H   -2.3956813421   -1.9898724835    1.4110413856
 H   -0.7471529142   -2.5550639836    3.0494288391
 H    0.5163817324    0.0942811043    2.6518083320
 H    1.3574247538   -1.2833627106    3.4007717920
 H    2.5310002980   -1.4992403210    1.2076693989
 H    1.1514204608   -3.4729334039    1.7289832021
 H    0.2181754662   -3.0546692498    0.2801330950