12

 O    0.1150179334    1.3227564857    0.0627241301
 C    0.0783487662   -0.0192823182    0.0510264858
 N    0.0801177251   -0.7125917890   -1.0741835981
 N    0.0366702474   -2.0089748481   -0.6496488913
 C    0.0085230315   -2.1342430820    0.6827948924
 C    0.0341946389   -0.8463571604    1.2090068439
 C    0.0186423711   -0.4665418528    2.6132717984
 O   -0.0200909870   -1.2562403951    3.5346830987
 H    0.1402125167    1.6217731731   -0.8556455752
 H    0.0294231979   -2.7398050175   -1.3406552773
 H   -0.0269715429   -3.0889733870    1.1825398260
 H    0.0453978717    0.6282933113    2.7948046366