19

 O   -0.0402621333    1.4270917408    0.1301931577
 C   -0.0687750694    0.0420922529   -0.1425196207
 C   -1.4563207210   -0.5438329257    0.0576739959
 C   -1.5896681370   -2.0562640435   -0.1480073367
 C   -2.7624085173   -2.4397879722    0.7818140848
 C   -2.8439765981   -1.2289517402    1.7696324968
 O   -1.7930137612   -0.3515459463    1.4387610045
 C   -4.2093262229   -0.5618700889    1.6671329149
 O   -4.4108141885    0.5213932860    1.1883017921
 H   -0.4674012268    1.5436783398    0.9868420503
 H    0.2415603222   -0.0856438608   -1.1852104103
 H    0.6405360648   -0.5136603635    0.4934947778
 H   -2.1754579553    0.0046269857   -0.5676947336
 H   -1.7753239997   -2.3252167630   -1.1901133590
 H   -0.6690751295   -2.5545857545    0.1733930167
 H   -3.6945791534   -2.5524485481    0.2194693505
 H   -2.5864948862   -3.3791020794    1.3085476415
 H   -2.7088557588   -1.5490468504    2.8112121792
 H   -5.0414624486   -1.1915391185    2.0654714276