15

 C   -0.0365882555    1.5483839754   -0.0197186695
 C   -0.0007305116    0.0455591534   -0.0373084308
 C   -0.0865950695   -0.7108764677   -1.1969330980
 C   -0.0467591681   -2.1067366351   -1.1408770602
 C    0.0803303159   -2.7043920923    0.1017996994
 N    0.1659317272   -2.0063562215    1.2426103545
 C    0.1254626670   -0.6856873313    1.1592866788
 O    0.2128506551    0.0095817474    2.3171867087
 H    0.8748806181    1.9616730286    0.4256026367
 H   -0.1387883832    1.9490724237   -1.0315138020
 H   -0.8719343468    1.9181424895    0.5847236805
 H   -0.1855154936   -0.2052270112   -2.1532782297
 H   -0.1129206575   -2.7077715539   -2.0398172823
 H    0.1163700973   -3.7858573363    0.2024109968
 H    0.2924228652   -0.6549992388    3.0157404372