20

 C   -0.3831661461    1.1964028777   -0.2813479842
 C    1.0396589284    1.0592018491    0.1309856271
 N    0.1616961953   -0.1053660303    0.0964201619
 C   -0.2038573186   -0.7067542798    1.3648692847
 C   -0.6929417167    0.1242469352    2.6167960475
 C   -2.0096092508   -0.6712160710    2.5944365924
 O   -3.0125284117   -0.0378480883    1.7677514257
 C   -2.7226638972   -0.9266995738    0.6589257242
 C   -1.5244720097   -1.5355217567    1.3944079729
 H   -1.0648620903    1.6989706038    0.3995632911
 H   -0.6380047341    1.2992846363   -1.3327086081
 H    1.8353858467    1.0758723619   -0.6086550276
 H    1.3130160642    1.4645556441    1.1039144535
 H    0.6387076273   -1.3431605858    1.6516761609
 H   -0.0771352013   -0.0527998022    3.5029447525
 H   -0.8325260430    1.2004979707    2.4970165395
 H   -2.4209487903   -1.0552277499    3.5316915853
 H   -3.5447131091   -1.6372729511    0.5009635132
 H   -2.5299775014   -0.3906849891   -0.2748045863
 H   -1.4250172616   -2.6198663108    1.3975992040