18

 C   -0.0052598075    1.5194418393    0.0217350481
 C   -0.0970700129   -0.0008292308   -0.1275809043
 C    0.8641673513   -0.5401161664   -1.1852965099
 N    0.7501527679   -1.9906306981   -1.2922200242
 C    1.3379022664   -2.6557301118   -2.3292767543
 N    1.5762239227   -3.9695655463   -2.3289555910
 N    2.0860394793   -4.1185589097   -3.5549991684
 N    2.1730352685   -3.0151395427   -4.2642306081
 N    1.7019446768   -2.0580802237   -3.5003919838
 H    1.0045619279    1.8312815882    0.3096443988
 H   -0.2528084002    2.0250181036   -0.9177921966
 H   -0.6968000780    1.8821743258    0.7875006200
 H    0.1227007670   -0.4775078342    0.8381216547
 H   -1.1182999715   -0.2970380407   -0.3933758568
 H    0.6286560960   -0.1165782016   -2.1655550389
 H    1.8952694969   -0.2302240136   -0.9494241079
 H    0.7711011527   -2.4990854030   -0.4204722063
 H    2.3876629668   -5.0121449344   -3.9113062311