20

 C    0.1888912199    1.5281609224   -0.1444260311
 C   -0.0788842039    0.0334291170    0.1103125717
 C    0.6402261025   -0.4954222182    1.3065894621
 C    0.1981058272   -1.0096270811    2.4594786088
 C    1.4681783885   -1.3719198977    3.1922172620
 C    2.5299915594   -0.2546782128    2.9437329763
 C    3.5730312712   -1.3713106276    2.8531436985
 N    2.3984402515   -2.0057594636    2.1043638028
 C    2.1496579114   -0.5990651305    1.4706775592
 H    1.2556112785    1.7212206101   -0.2983234532
 H   -0.3445116225    1.8717815050   -1.0358678271
 H   -0.1400898760    2.1336025222    0.7056992707
 H   -1.1549829957   -0.1329110609    0.2316469477
 H    0.2262266141   -0.5363509503   -0.7784561678
 H   -0.8153010790   -1.1787140760    2.7959021724
 H    1.4308042329   -1.9083032199    4.1414912699
 H    2.5934268813    0.7360903650    3.4129133525
 H    4.4532128433   -1.2071540151    2.2245725495
 H    3.8431716050   -1.9025344962    3.7706252897
 H    2.8131012602   -0.3387665518    0.6434809054