19

 C   -0.7884071643    1.2865610020   -0.0406613112
 C   -0.1132600035   -0.1009160516    0.0184401881
 N   -1.0011799053   -1.2609250718    0.1204265836
 C   -1.7513548093   -1.3682455076    1.3568877397
 C   -3.1829164406   -0.8225701842    1.2839363361
 C   -3.9777232597   -0.8308392490    2.5731534074
 O   -3.6449445432   -0.4392933167    0.2333791298
 C    0.7499372816   -0.2829020411   -1.1629764213
 N    1.4187446162   -0.3961623140   -2.0979609297
 H   -0.0381750571    2.0769677444   -0.1348264132
 H   -1.4713888320    1.3450150813   -0.8912381528
 H   -1.3623420344    1.4647383304    0.8723859127
 H    0.5514809893   -0.1291666331    0.8921312404
 H   -1.6616100288   -1.2472375885   -0.6529782849
 H   -1.8392621810   -2.4255289727    1.6552618932
 H   -1.2165849785   -0.8809865297    2.1817486472
 H   -3.5638054095   -0.0891869152    3.2667903504
 H   -5.0215062780   -0.5889946928    2.3704931635
 H   -3.9077647420   -1.8041291799    3.0702027109