17

 C   -0.5740044322    1.6375692507   -0.1028387728
 C   -0.3106387609    0.2075809331   -0.0579648065
 C   -0.1025702601   -0.9776662291   -0.0053929541
 C    0.1655331683   -2.3948915738   -0.0062933784
 C    0.3564965478   -3.1365238299    1.2562245721
 O   -0.8674654786   -3.2419955899    0.5335336307
 C    0.7983597702   -2.9093763653   -1.2727226061
 C    2.2564869522   -2.9910012664   -1.4169071197
 O    1.4652501837   -4.1628028529   -1.1993714465
 H   -0.0017171880    2.1729137673    0.6626065123
 H   -0.3045885347    2.0590415740   -1.0772863992
 H   -1.6357561321    1.8462828775    0.0675749074
 H    0.9816434336   -4.0261355403    1.2413483976
 H    0.3015478575   -2.5906851425    2.1962216982
 H    0.1910300470   -2.7669931197   -2.1665105369
 H    2.7069676837   -2.9063956628   -2.4039834519
 H    2.8915990326   -2.6968280099   -0.5830124263