18

 O    0.2420286926    1.4068848264   -0.1324622447
 C    0.0224872514    0.0291710419   -0.0753758665
 C   -1.3442583065   -0.6185908846    0.0627483868
 C   -2.5898339264    0.1778138974   -0.2704202975
 N   -2.3388106430    1.6021069010   -0.6360383402
 C   -2.5447349069    0.5858034140   -1.6929816931
 C   -1.2523362579    0.0409750355   -2.3376480234
 O   -0.4424612788    1.0171973673   -2.9574198522
 C   -0.5373670977   -0.7567728662   -1.2314589010
 H   -0.6494624193    1.8174212910   -0.1993220135
 H    0.8202536870   -0.4641313686    0.4745112322
 H   -1.4599075190   -1.4388722642    0.7617168821
 H   -3.5157898810   -0.0571576905    0.2421738929
 H   -3.1806198929    2.1573726825   -0.5156374995
 H   -3.4343101336    0.6841343251   -2.3057299568
 H   -1.5576528862   -0.6465486045   -3.1347663715
 H    0.0310093673    1.4686200215   -2.2438617246
 H   -0.0548171390   -1.6855042650   -1.5159711694