14

 O    0.1007028826    1.3870445971    0.3817364278
 C    0.0346060004    0.0225519385    0.1534113646
 C   -0.4923839221   -0.8025938427    1.2665073014
 C   -1.3398935938   -0.6557058483   -0.0047393811
 C   -2.5149541295    0.1440477785    0.0080264281
 C   -3.5160840898    0.8247269485   -0.0197900936
 C   -4.6867951569    1.6545443846   -0.0104261621
 O   -5.6869503717    1.4492476355   -0.6626808345
 H   -0.1307849140    1.8477533879   -0.4325338743
 H    0.8262694321   -0.3943111276   -0.4688059821
 H   -0.0601693935   -1.7774766029    1.4576672671
 H   -0.8415217811   -0.2622728878    2.1378274394
 H   -1.3667801662   -1.5188319658   -0.6632100270
 H   -4.6084323665    2.5334041845    0.6627914063