14

 C   -0.2850610454    1.4811093891    0.0266306725
 C    0.0303805795    0.0186670991   -0.0460177467
 N    0.1530411279   -0.5184972891   -1.2036632556
 O    0.4505642896   -1.8989899213   -1.2315727537
 C    0.6108175776   -2.6737294917   -0.1055815672
 N    0.8764865436   -3.9040911902   -0.1846005220
 C    0.4603735782   -2.0131566444    1.2414343917
 O    0.5753997552   -2.5762639285    2.2985768230
 N    0.1699786537   -0.6626664826    1.1464873306
 H    0.5022008566    2.0197604527    0.5652565813
 H   -0.3655036772    1.8825716677   -0.9828380794
 H   -1.2303629158    1.6465684125    0.5549033299
 H    0.9446946462   -4.1933359270   -1.1630659860
 H    0.0595418004   -0.1744885762    2.0249074416