22

 C    0.3766420141    1.3195235370    0.2525785145
 C    0.1218939371   -0.1899163556    0.2074640603
 C   -1.3390816356   -0.6154681620   -0.0108825817
 C   -1.4415886986   -2.1360003962   -0.1556834253
 N   -2.1520329152   -0.1996514592    1.1407416857
 C   -2.7613524517    1.1164310886    1.1287024827
 C   -3.6174479511   -0.1066877289    0.9882580372
 C   -4.2826725646   -0.3662245846   -0.2606187273
 C   -4.8677738519   -0.6091234636   -1.2838670557
 H    1.4496232353    1.5262607225    0.3172674567
 H   -0.0004970564    1.8161889939   -0.6488454703
 H   -0.0992501281    1.7868993241    1.1188502178
 H    0.7131576861   -0.6280619186   -0.6061455814
 H    0.4777179643   -0.6527281050    1.1359833769
 H   -1.7082649070   -0.1454857253   -0.9391224547
 H   -2.4729257483   -2.4454571405   -0.3408278944
 H   -0.8277169201   -2.4822919362   -0.9927709844
 H   -1.0916042228   -2.6282786738    0.7574234162
 H   -2.7523953821    1.6628597616    2.0684304761
 H   -2.6542212413    1.7294722592    0.2359427157
 H   -4.1603056142   -0.4567808482    1.8633617307
 H   -5.3826415478   -0.8150224992   -2.1894707953