23

 C    0.2771510653    1.5762406461   -0.0938743547
 C    0.1302737254    0.0672356128    0.0422007135
 C    0.9618648126   -0.8763723775   -0.8777724964
 C    1.2545478398   -1.8081642722    0.3327567896
 C    2.6441209139   -1.6278515632    0.9586310702
 O    3.6999111471   -1.5412251949    0.0263037180
 C    2.1566078801   -0.3289336812    1.6693697423
 C    0.6814513390   -0.6864543187    1.2874256943
 C   -0.2608851657   -0.9562781036    2.4411661492
 H    1.3239722479    1.8924852809   -0.0386749901
 H   -0.1139132516    1.9173601179   -1.0590754396
 H   -0.2746005402    2.1064173227    0.6910412926
 H   -0.9320946048   -0.1919042204   -0.0519070859
 H    0.4126021551   -1.3345645128   -1.7028568832
 H    1.8691780418   -0.4212070362   -1.2824114238
 H    0.8435467602   -2.8176671047    0.2781725803
 H    2.8391915489   -2.4221506465    1.6942567429
 H    4.5126723293   -1.3577984449    0.5078544096
 H    2.3599236589   -0.2700005648    2.7420679364
 H    2.5390309997    0.5769938190    1.1926117323
 H   -0.5089639819   -0.0290189356    2.9734269422
 H   -1.2006125376   -1.3993076922    2.0920800444
 H    0.1803424967   -1.6433655698    3.1726519159