17

 O   -0.4787750193    0.3135280055    0.4225889398
 C   -0.1578070660    1.3890292022    0.0327728979
 O   -0.9537380912    2.3122435370   -0.6227084254
 C    0.1639088184    3.2488653734   -0.7657233749
 C    0.2799338872    4.3121699284    0.3634119949
 C   -0.7908016848    4.2658011212    1.4867696266
 C    0.1021157962    3.2702498672    2.2974023921
 C    1.1809304665    3.3240768885    1.1790407668
 C    1.0823659159    2.2785380293    0.0078694744
 H    0.2896319658    3.5452540035   -1.8060084231
 H    0.6317340248    5.2884063422    0.0286497988
 H   -0.9275600709    5.2290646387    1.9819877998
 H   -1.7663847733    3.8869086659    1.1785169235
 H    0.4538599413    3.6762233858    3.2483757382
 H   -0.3298415093    2.2852664727    2.4887944201
 H    2.2018891252    3.5650862919    1.4726950193
 H    2.0043811036    1.8430442867   -0.3718031188