19

 C   -0.0133946148    1.5958222546   -0.0581667143
 C    0.0332635459    0.0591972522   -0.0211426916
 C    0.6858401484   -0.5064200351   -1.2905865586
 O   -0.0822438618   -0.0901806146   -2.4099807207
 C    0.7324106679   -0.4660783375    1.2031458735
 C    0.2443402654   -1.3577006060    2.1387750821
 N    1.2278548396   -1.5465058890    3.0523743696
 N    2.3398171903   -0.8380421560    2.7853421580
 C    2.0428483877   -0.1834028029    1.6663194994
 H    0.9977517130    2.0184482170   -0.0538573875
 H   -0.5186081685    1.9372109144   -0.9642195223
 H   -0.5423376250    1.9901949696    0.8140647396
 H   -0.9988826066   -0.3135639596   -0.0129092238
 H    1.7244933637   -0.1435142957   -1.3600132738
 H    0.7255545373   -1.6040526497   -1.2188339748
 H    0.3529981216   -0.4029770418   -3.2079506057
 H   -0.7101425950   -1.8546847941    2.2179915551
 H    1.2058242791   -2.1283085786    3.8722493756
 H    2.7789012517    0.4754921927    1.2284356501