15

 O    0.0030972702    1.5006052792   -0.0662152988
 C    0.0197251128    0.1018810965    0.0157615734
 C    0.0693781293   -0.6330467681    1.3872518217
 C   -1.0016953926    0.0910594544    2.2233737859
 C   -2.1304710425    0.1007592219    1.1435756473
 C   -1.3455059779   -0.6127257561    0.0258099542
 O   -0.6861320321   -1.7032934829    0.7428355649
 H    0.9087419754    1.8178370212   -0.1295741800
 H    0.7000497720   -0.3672713119   -0.7020613932
 H    0.9910323670   -0.9657438479    1.8656108444
 H   -1.2659969745   -0.4802566417    3.1151587959
 H   -0.6875268731    1.0950524470    2.5172580688
 H   -3.0079566304   -0.4777910887    1.4385162501
 H   -2.4405501315    1.1075254024    0.8567984457
 H   -1.8659393821   -0.9224621952   -0.8800230703