14

 N   -0.2005016944    1.3904463726   -0.1070161555
 C   -0.0275695970    0.1744369610    0.1773075947
 C   -1.1200667676   -0.8495100977   -0.0447324448
 C   -1.2229520093   -1.8193932975    1.1198153281
 O   -2.2421239429   -2.1522766589    1.6594775991
 C    0.1545285026   -2.3941050450    1.5417123241
 O    0.2655079290   -3.3435172422    2.2688644385
 C    1.3421327496   -1.6869465965    0.8961455754
 O    1.1350658876   -0.2815032852    0.7401669547
 H    0.6396531827    1.9334747346    0.1021433023
 H   -2.0674775385   -0.3448316286   -0.2254580158
 H   -0.8725428995   -1.4424764667   -0.9394049477
 H    2.2231207696   -1.8049974881    1.5282567747
 H    1.5532684081   -2.1588039517   -0.0758781677