22

 C   -0.0136165184    1.5641717304    0.1864047932
 C   -0.0216303644    0.0683519082   -0.0075580548
 C   -0.0600676447   -0.5550065255   -1.1957585316
 C   -0.1567224004    0.1349788814   -2.5335623326
 C   -0.0181303466   -2.0675807577   -1.3138788790
 C    0.4125003128   -2.7843707936   -0.0313309344
 C   -0.3128223361   -2.1834364778    1.1730836953
 C    0.0286272000   -0.6965461639    1.3024015888
 H    0.8181505389    1.8561858947    0.8412928913
 H    0.0852862865    2.1307956229   -0.7398565422
 H   -0.9301094528    1.8993513057    0.6905690065
 H   -0.3210238733    1.2107724864   -2.4666881458
 H    0.7523559103   -0.0310974870   -3.1272576405
 H   -0.9839119029   -0.2885588916   -3.1186888428
 H   -1.0116183666   -2.4268023664   -1.6261094812
 H    0.6535822506   -2.3396597177   -2.1396761293
 H    0.2169205231   -3.8591379380   -0.1146987869
 H    1.4960033894   -2.6705678208    0.1058362474
 H   -1.3962099736   -2.3001060475    1.0374200136
 H   -0.0523077336   -2.7131007027    2.0960756783
 H    1.0319975830   -0.5813299649    1.7423096553
 H   -0.6515086910   -0.2160877246    2.0191599014