17

 C   -0.0149972747    1.3836424750    0.1791209580
 O    0.0076496006   -0.0363092446    0.0737035114
 C   -1.1869055985   -0.6314205895   -0.0774148679
 N   -2.3383873790    0.0527564148   -0.0793323423
 N   -3.2389123147   -0.9564037916   -0.1511023486
 C   -4.5688573342   -1.3034056971   -0.6755389503
 C   -4.0376153917   -2.7934848517   -0.6903201600
 C   -2.7032734385   -2.1827710632   -0.2845357334
 C   -1.3341465191   -2.0470219427   -0.2298610638
 H    1.0253345496    1.6923533129    0.2926452787
 H   -0.4478990323    1.8378559190   -0.7185516151
 H   -0.6029990686    1.7029315930    1.0456555783
 H   -5.3974385453   -1.0676899142   -0.0025307212
 H   -4.7668641292   -0.8984056713   -1.6720981430
 H   -4.5073506416   -3.4597345751    0.0365958004
 H   -4.0559328968   -3.2627550834   -1.6760705791
 H   -0.5469076559   -2.7790692803   -0.2735665920