19

 C   -0.3241761830    1.3504620786   -0.1160295502
 N   -0.0944491234   -0.0786922707    0.0001513113
 C    0.6291351589   -0.6477964487   -0.8687357376
 C    1.3122718490   -0.0292303776   -2.0619321518
 O    0.8942308548   -1.9782980567   -0.8012277052
 C    0.3097534234   -2.6891242265    0.2674123885
 C   -0.9589574095   -3.4426295532    0.0073839195
 C    0.3637097521   -4.1758601585    0.1396962757
 H    0.6016160979    1.9344279787   -0.0074065584
 H   -0.7764620303    1.6330176660   -1.0780254761
 H   -1.0076307979    1.6688558459    0.6755295070
 H    2.0009997217    0.7592853202   -1.7410475963
 H    1.8671685658   -0.7810298254   -2.6227809464
 H    0.5743147532    0.4383368993   -2.7221099682
 H    0.4493285629   -2.2121702365    1.2299455613
 H   -1.6872399533   -3.5139552562    0.8072617659
 H   -1.3806614567   -3.3642041238   -0.9880958224
 H    0.8019765534   -4.5734666155   -0.7687325052
 H    0.5558421310   -4.7618735196    1.0313034184