14

 N   -0.0126984981    1.4931934375   -0.1130100978
 C    0.0237948980    0.0458684745   -0.0598006100
 C    0.0631515119   -0.4852445180    1.4002840923
 O   -1.3260000808   -0.8709905097    1.3469012861
 C   -1.4091397216   -0.5983010350   -0.0560117979
 C   -2.5151734138    0.2810417619   -0.4288546908
 N   -3.3862547279    0.9606615239   -0.7658746231
 C    0.9689786863   -0.5767207964   -0.9948089941
 N    1.7280018216   -1.0297356358   -1.7402239864
 H    0.9064014921    1.8777307349    0.0858714692
 H   -0.2859451758    1.8178919627   -1.0365517693
 H    0.7213044436   -1.3447418700    1.5611175776
 H    0.2467949999    0.2933259022    2.1449453961
 H   -1.4673155354   -1.5198376127   -0.6480899119