17

 C   -0.1371211250    1.5262602453    0.0574939382
 C    0.0344242090    0.0440745507    0.1003046234
 O   -1.1320224109   -0.7529805421   -0.0766731794
 C   -0.6406447325   -1.7316323799    0.8759576036
 C    0.6602790218   -0.9636763170    1.0579375527
 C    1.2625415746   -0.7366567885   -0.3348887892
 O    1.1103712646   -1.6880877449   -1.3479306799
 C    2.5148761679   -0.0244425463   -0.3390676442
 C    3.5812389824    0.5335872062   -0.3517531307
 H    0.8224351375    2.0294761811    0.1921265969
 H   -0.5488687658    1.8217577310   -0.9138118996
 H   -0.8299292947    1.8572864805    0.8367442241
 H   -1.2705124222   -1.7444516607    1.7715117990
 H   -0.5748146322   -2.7333012847    0.4402596957
 H    1.2314002131   -0.8404764857    1.9685115115
 H    1.8159534836   -2.3374347943   -1.2466185749
 H    4.5164544588    1.0363868495   -0.3745803272