17

 N   -0.1517328481   -1.2110255312   -0.0586760501
 C   -0.0821213539   -0.0570141159   -0.0084765405
 C   -0.0248973147    1.4078458039    0.0153781483
 C   -0.6784880577    2.0242053315    1.2735330212
 C    0.5562557065    2.3339956964    2.1827056432
 C    1.6766587814    2.5826269777    1.1743145144
 C    1.3663481707    2.0060560677    0.0226312036
 C    1.3283557831    2.1325160408   -1.4816055098
 N   -0.1726581116    2.0048789150   -1.3606065127
 H   -1.1595305441    2.9582443368    0.9710481299
 H   -1.4217106336    1.3829003015    1.7525716557
 H    0.3845030009    3.2088782570    2.8173681782
 H    0.7799914778    1.4975210300    2.8576689424
 H    2.5288259102    3.2196186486    1.3787787677
 H    1.6673006143    3.0773794483   -1.9142127373
 H    1.7960485034    1.2960152289   -2.0166941645
 H   -0.5854715945    1.3676803829   -2.0371172797