16

 O    0.2772468333    1.3920760893   -0.1770826528
 C    0.0899144289    0.0222590660   -0.0919847932
 C    0.3325753785   -0.6993253233   -1.4404875955
 N    0.2688472247   -2.1610672792   -1.2186660112
 C   -0.9838759173   -1.3818045604   -1.3793840329
 C   -1.3064076267   -0.7556365325    0.0015510806
 C   -0.8108258156   -1.5330368187    1.2546741194
 C    0.4611361213   -0.6611840070    1.2399204705
 O    1.2533997085   -0.3344395016    2.0794015719
 H    0.5506799100    1.7033741456    0.6948563153
 H    0.8836914865   -0.2655756403   -2.2658265290
 H    0.4706274728   -2.6093298133   -2.1114343470
 H   -1.6861595538   -1.6183236652   -2.1688191973
 H   -2.2367635915   -0.1981405662    0.0798805916
 H   -1.4010418539   -1.3789339476    2.1622142897
 H   -0.6277382156   -2.5974378754    1.1062600398