20

 C    0.0520684839   -0.6206138105    1.2565994616
 C   -0.3918849514   -0.3096862594   -0.1769048533
 C    0.7026639990   -0.4232490013   -1.2398459775
 C    0.6923833944    0.6284886290   -2.3375623689
 C    1.1462688044    2.0068384361   -1.8394518016
 O    2.0201277898   -0.7746259133   -0.7823892714
 C    1.3143451153   -1.7384899684   -1.5630353457
 C    0.9039647246   -2.9625599042   -0.9085273470
 N    0.5596264259   -3.9561441589   -0.4278324084
 H    0.3947589278   -1.6513191429    1.3657527988
 H    0.8674067515    0.0379429901    1.5665892537
 H   -0.7884940607   -0.4728266742    1.9408087641
 H   -1.2208256585   -0.9673370728   -0.4658923176
 H   -0.7919621494    0.7089050199   -0.2139719221
 H    1.3515211933    0.3058098301   -3.1504124901
 H   -0.3210011235    0.6871997038   -2.7535876827
 H    0.4854670915    2.4011800658   -1.0614488209
 H    2.1576692754    1.9493172760   -1.4274562441
 H    1.1532325307    2.7268678224   -2.6623761127
 H    1.7098750861   -1.9001020074   -2.5649421042