17

 O    0.0102123153    1.4403671348   -0.0425153502
 C    0.0130380723    0.0330879434   -0.0009669316
 C    0.9308048113   -0.5413956436   -0.9700149688
 C    1.7298209473   -0.9274368289   -1.7813500533
 C    0.0427430102   -0.6810296741    1.3971414389
 C   -0.9862904589    0.1168380759    2.2158841546
 C   -2.1261052330    0.1368838855    1.1464201240
 C   -1.3868479081   -0.6510212294    0.0498104342
 O   -0.7636997978   -1.7354905283    0.7976950378
 H    0.8302650173    1.7313079622   -0.4525515699
 H    2.4233789569   -1.2933344594   -2.4978927025
 H    0.9634328706   -1.0307909786    1.8624698500
 H   -1.2620406932   -0.4195382396    3.1256319075
 H   -0.6280818782    1.1143379371    2.4762535096
 H   -3.0221416534   -0.3974233047    1.4675189877
 H   -2.3987665842    1.1441877850    0.8274779863
 H   -1.9163345544   -0.9683073574   -0.8473529443