19

 C    0.1552898898    1.4176908076   -0.2577688243
 C    0.0066796415   -0.0595052476    0.1338091082
 O    0.6048548055   -0.3342739123    1.3978143133
 C   -1.3968040961   -0.4869199418    0.0905614116
 C   -2.5577386864   -0.8125988985    0.0704915988
 C   -3.9482760786   -1.2519338549    0.1046990717
 O   -4.0964347122   -2.6381782500   -0.2337273321
 C   -4.5977987665   -1.0041497442    1.4803264990
 O   -5.9150261541   -1.4974012807    1.4896595805
 H    1.2103405131    1.6991582095   -0.2117610424
 H   -0.2196394921    1.5929132574   -1.2701374283
 H   -0.4105077498    2.0551709236    0.4294469216
 H    0.5794273334   -0.6699068581   -0.5748474769
 H    0.0743536087    0.1071323799    2.0707492424
 H   -4.5376537484   -0.7169627590   -0.6491137076
 H   -3.3794719558   -3.1172158393    0.1982380670
 H   -3.9704650302   -1.4774048980    2.2550324543
 H   -4.6377559496    0.0692853113    1.6899807635
 H   -5.8656633822   -2.3686979148    1.0740942297