25

 C   -0.2473907615    1.4856577267    0.0282480945
 C    0.0405228682   -0.0179271691   -0.0321694642
 C    0.7926677713   -0.5352563793    1.1870619395
 C    0.0476601738   -0.5728029997    2.5593846874
 C    0.6225191189   -1.9795252495    2.7804874685
 C    1.4641484863   -2.4012908448    3.9539650998
 C    0.1302078983   -3.0675942550    3.6888503525
 C   -1.0440426931   -2.8368129479    4.6140938199
 C    1.0404204237   -2.0700168644    1.3071878754
 H    0.6818215610    2.0638411846    0.0837604229
 H   -0.7975463226    1.8236539025   -0.8555360047
 H   -0.8465107185    1.7392777104    0.9096637685
 H   -0.9044187160   -0.5701960076   -0.1298120808
 H    0.6205120335   -0.2455144652   -0.9367941907
 H    1.7393086375    0.0070557792    1.2922873160
 H    0.3083037513    0.1971510330    3.2908432500
 H   -1.0419735835   -0.5755068379    2.4329791363
 H    2.3728708001   -2.9644132653    3.7629253107
 H    1.5303488912   -1.7239361357    4.8014175339
 H    0.1876109732   -4.0740814522    3.2780088169
 H   -1.0555290731   -1.8076432987    4.9878050980
 H   -1.9977990758   -3.0125583980    4.1030958388
 H   -1.0046041153   -3.5037589454    5.4826668046
 H    0.3322610061   -2.6485460511    0.7018661297
 H    2.0517788851   -2.4288133496    1.0944837164