19

 C   -0.5188282503    1.4322305686   -0.1231750627
 C   -0.0695077405   -0.0123772941    0.0036476164
 O    1.0993894993   -0.2807129005   -0.8119759196
 C    1.9076857988   -0.6080116021    0.3203666498
 C    3.0455546609    0.3680954135    0.5684791033
 O    3.0804943066    1.4875006615    0.1268548277
 C    0.6873098421   -0.4674305194    1.2863637644
 C    0.8104073253    0.4654264029    2.4818979012
 O    1.8277039558    0.0319985100    3.3769429438
 H    0.3157881455    2.1140518728    0.0546897045
 H   -0.8866045546    1.6096289541   -1.1383899420
 H   -1.3323973199    1.6549214550    0.5759499944
 H   -0.8885139055   -0.6883690669   -0.2728989722
 H    2.3245973654   -1.6229422848    0.2539129964
 H    3.8507921185   -0.0284592933    1.2243771982
 H    0.3456540637   -1.4491910933    1.6294416388
 H    1.1086760549    1.4686843437    2.1691287056
 H   -0.1624875281    0.5548379672    2.9888234174
 H    1.5680018721   -0.8238090547    3.7339248649