19

 C   -0.1191345835    1.5437994978   -0.0692930941
 C    0.0103002239    0.0484885420    0.0187217210
 N    0.3581442295   -0.6743981204   -1.1904996007
 C    1.1836400018   -1.7188455162   -0.8108997358
 N    1.3990202207   -1.8659389203    0.4455575352
 C    0.7117751669   -0.7910973174    1.1254850788
 C    1.3673881364   -0.2594042903    2.3733661319
 C   -0.8060744962   -0.7866679459    0.9696165480
 O   -1.5731004663   -0.0630619918    1.8879852429
 H    0.8361828060    2.0148599817   -0.3258853523
 H   -0.8566056340    1.8279169811   -0.8296271929
 H   -0.4636328194    1.9459941810    0.8841751858
 H    0.5613893690   -0.1563249762   -2.0335781280
 H    1.5878202361   -2.3809094996   -1.5702301648
 H    2.3488324371    0.1700252978    2.1493055598
 H    0.7524558978    0.5110146571    2.8447262842
 H    1.5206149524   -1.0717527722    3.0922171529
 H   -1.2724885596   -1.6911249885    0.5751999842
 H   -1.5595622486   -0.5382016997    2.7259812440