17

 C    0.0429766223    1.5361552392   -0.0712945732
 C    0.0774335878    0.0829369790   -0.0092724090
 C    0.0942136079   -1.1200041462    0.0384974146
 C    0.1012189122   -2.5644401367    0.0905926897
 C    0.0700275383   -3.2014346877    1.5182402005
 N   -1.3766604035   -3.4606284099    1.3573164310
 C   -1.2951114032   -3.2791364616   -0.1032803856
 C   -2.3940267586   -2.5271184202   -0.7068427904
 N   -3.2625568667   -1.9499924976   -1.2044429288
 H    0.8118400589    1.9247085665   -0.7479011909
 H   -0.9292818606    1.8870002234   -0.4334007694
 H    0.2111200087    1.9802642938    0.9158488054
 H    0.8719593326   -2.9737018642   -0.5662789548
 H    0.6974601589   -4.1008543981    1.5765054869
 H    0.3142506106   -2.5335677439    2.3474992167
 H   -1.7133563058   -4.3664122383    1.6626289534
 H   -1.1644260999   -4.2085939075   -0.6755978160