19

 C   -0.2649473978    1.1927087240    0.0675299780
 O    0.0741416395   -0.1854698690    0.0275785572
 C    0.8108836953   -0.5761806788   -1.1284902542
 C    1.3332863291   -1.9937518158   -0.8436333158
 O    1.8613131219   -2.1458742857    0.4491122129
 C    0.1225057702   -2.9029377109   -1.1680744428
 C   -0.5090964678   -2.2580928862   -2.4117921919
 C   -0.1868835440   -0.7663756315   -2.2921929286
 O   -0.6561162063    0.1251842522   -2.9533197144
 H    0.6390010394    1.8185935233    0.0673440365
 H   -0.8914709244    1.4791640670   -0.7841707503
 H   -0.8146683431    1.3531777182    0.9976095718
 H    1.5904990644    0.1603933221   -1.3593262696
 H    2.1459171230   -2.2107594798   -1.5485331708
 H    1.2932925539   -1.6166746472    1.0247892973
 H    0.4192925041   -3.9434176106   -1.3135135858
 H   -0.5740301444   -2.8665757584   -0.3242434260
 H   -0.0395715466   -2.6160178431   -3.3380548059
 H   -1.5840587962   -2.4185026698   -2.5240525976