18

 C   -0.0253203579    1.4725180125    0.0096891961
 C    0.0117969822    0.0173590254   -0.0042054346
 C    0.0395268360   -1.1868573131   -0.0053941647
 C    0.0746750743   -2.6465381643   -0.0327931076
 C    0.8777943156   -3.1697253943   -1.2270205608
 C    0.4102614625   -3.3189035275    1.3505985187
 C   -1.0484784611   -3.8272930381    1.3383722105
 O   -1.7546427497   -4.4468790721    2.0861072936
 N   -1.2622232609   -3.2763146215    0.0966648490
 H    0.6411594102    1.8783583076    0.7785629896
 H    0.2862747884    1.8888004980   -0.9544206535
 H   -1.0356609381    1.8397974380    0.2201922064
 H    1.9064255386   -2.8006420209   -1.1840362899
 H    0.8893246216   -4.2633253658   -1.2216212655
 H    0.4362220540   -2.8291163996   -2.1681420348
 H    1.1717216786   -4.0997018468    1.3083051739
 H    0.6302972737   -2.6207108265    2.1579917747
 H   -2.1199467380   -3.0920600910   -0.4046367211