18

 C   -0.1876107862    1.4648426815   -0.0470762289
 C    0.1091868952   -0.0043645350   -0.0301044501
 C    1.4745644153   -0.6183599549   -0.2701972616
 C    0.7558451528   -0.8155579425    1.0506641560
 C    1.2715868739   -0.3573589637    2.3814857153
 O   -0.0054489244   -2.0109143319    1.1294644694
 C   -0.9955019639   -1.9845013538    0.2010728064
 N   -1.7883686910   -2.9450371874    0.0350239793
 O   -0.9740319478   -0.8028896279   -0.4897433338
 H    0.6500489690    2.0281731883    0.3721624433
 H   -0.3488020477    1.8131066020   -1.0720940194
 H   -1.0853996644    1.6873157238    0.5373486338
 H    1.5508181339   -1.4612942270   -0.9486276305
 H    2.3232167609    0.0578102535   -0.2698105647
 H    1.8011568931    0.5933249199    2.2793574452
 H    0.4505346839   -0.2268989493    3.0926058759
 H    1.9705544058   -1.0912170276    2.7943747964
 H   -2.4524356283   -2.7263784679   -0.7034257721