16

 O   -0.0160526492    0.4153820900   -0.8964104685
 C   -0.0204478583    1.4043347383   -0.2180102536
 C   -1.2809781821    2.1119826181    0.3186045524
 C   -0.7873037055    3.3405619072    1.0529253181
 C    0.7270899815    3.3613377483    1.0324505411
 C    1.2342440316    2.1464847696    0.2846032842
 C   -0.0553664914    4.4099214646    0.2492204794
 C   -0.0746100444    4.3953647764   -1.1861889667
 N   -0.0896767369    4.3666733662   -2.3430926820
 H   -1.9632964174    2.3212942639   -0.5107237022
 H   -1.8001182652    1.4274064488    0.9983827667
 H   -1.3344462680    3.6919471829    1.9191747138
 H    1.2875957791    3.7279086267    1.8837344249
 H    1.7901388873    1.4766550219    0.9498540688
 H    1.8879087382    2.3741148305   -0.5627820174
 H   -0.0632743794    5.4072654066    0.6760248713