15

 N    0.0365733550    1.3888162286    0.1234345612
 C   -0.0426111801    0.0074616783    0.0406516079
 N   -1.1912673213   -0.5931234192    0.0205385292
 C   -1.1772610356   -1.9656337157    0.0324529383
 C   -0.0483519216   -2.7351658454    0.0293626575
 N    0.0029562314   -4.1244528683    0.0878899569
 C    1.2453205916   -2.0692181066    0.0168101275
 O    2.3323089172   -2.6285009600   -0.0140868592
 N    1.1448529848   -0.6753273394    0.0444940566
 H    0.7605031564    1.8228029098   -0.4334970949
 H   -0.8688061534    1.8111193307   -0.0313499916
 H   -2.1576247943   -2.4354863147    0.0348113321
 H   -0.7540640225   -4.6069803585   -0.3734191024
 H    0.9146812498   -4.4703896381   -0.1844914103
 H    2.0278404927   -0.1852082915    0.0994656212