13

 C   -0.0888291147    1.4597714666   -0.1307427873
 C    1.2919632153    0.9154013608    0.0543964412
 C    0.1060784665   -0.0341037048    0.0652298690
 C   -0.3126122702   -0.6703284098    1.3168990312
 N   -0.2646227191   -0.1442008101    2.5100326639
 O   -0.7545525572   -1.1068126694    3.3310063931
 N   -1.0909776622   -2.2175099576    2.5696629846
 N   -0.8283538508   -1.9591563884    1.3684424660
 H   -0.5361277368    2.0026396106    0.6938073774
 H   -0.3934436431    1.7895429871   -1.1171741331
 H    1.9535754247    0.8642617293   -0.8024816199
 H    1.7834118322    1.0881862011    1.0048117561
 H   -0.0316014944   -0.6761014153   -0.7958798220