23

 C    0.5234119574    1.2122408166    0.2967898928
 C    0.1071530735   -0.2324665225   -0.0002441380
 C    0.5771601524   -0.7262945207   -1.3701550226
 C    2.1132636233   -0.9132173492   -1.6034873029
 C    1.8671336192   -2.3738219402   -2.0006326401
 C    1.2304576741   -3.1137469156   -0.8617937602
 C    0.3746350822   -2.2190803964   -1.7198151125
 O    0.1258719697    0.1201157192   -2.4262290769
 C   -1.2718283747    0.2076351354   -2.6010366140
 H    1.6135693098    1.3177418256    0.2943129749
 H    0.1282002157    1.9001150397   -0.4554713937
 H    0.1605044578    1.5311682584    1.2785550906
 H    0.5114696959   -0.8990934425    0.7687566658
 H   -0.9837611800   -0.3306479140    0.0681712971
 H    2.4347928464   -0.2789531262   -2.4300414624
 H    2.7694706384   -0.7540291292   -0.7413159739
 H    2.3517836175   -2.8884783748   -2.8208813548
 H    1.0736400743   -4.1766092178   -1.0183105714
 H    1.4677242798   -2.8535198366    0.1670414322
 H   -0.4658667583   -2.6139055566   -2.2774497488
 H   -1.7476870458   -0.7788976078   -2.6914556674
 H   -1.7674509798    0.7543038462   -1.7864113802
 H   -1.4360063989    0.7562078789   -3.5322451037