17

 O    0.2119030025    1.3862346259    0.1449528573
 C    0.1100401623    0.0034862791   -0.0747274336
 C   -1.3375504973   -0.5229799370   -0.0636971868
 C   -2.1889879644    0.0771872774   -1.1920978574
 O   -2.3333275711    1.4828568340   -1.0243474176
 C   -1.4691481226   -2.0387290229    0.1992638653
 O   -2.1053103208   -1.7694369589    1.4946677024
 C   -2.0692627375   -0.4187290831    1.2753045637
 O   -2.5643107140    0.4482231157    1.9272235385
 H   -0.4645559703    1.8144196274   -0.3993458738
 H    0.5621455415   -0.2999639141   -1.0369478617
 H    0.6849307014   -0.4874830590    0.7190763472
 H   -1.6989950341   -0.0687644656   -2.1608737055
 H   -3.1708059483   -0.4168526259   -1.2347083158
 H   -2.7429813872    1.6300257422   -0.1596172365
 H   -2.1531214655   -2.5881110366   -0.4514307479
 H   -0.5356076247   -2.5892193988    0.3301308121