16

 C    0.2114718674    1.3353740527    0.1950874454
 O   -0.2107783077    0.0327482110   -0.2022187168
 C    0.5585357244   -0.5275516706   -1.2112870274
 C    1.8586480539   -1.1973698035   -0.8515957397
 C    0.6520677268   -2.0493009977   -1.2132456345
 C   -0.0342350408   -2.8146438977   -0.1310628193
 O   -0.5234103046   -3.9008992089   -0.3046687524
 C    0.4570990170    0.1302185251   -2.5013538078
 N    0.3747053945    0.6758636420   -3.5174795802
 H    1.2456423395    1.3234038141    0.5628105269
 H    0.1331993976    2.0474395360   -0.6353771659
 H   -0.4586090787    1.6413534684    0.9994196505
 H    2.6862985221   -1.1654846765   -1.5492946397
 H    2.1261352358   -1.1514157263    0.1991529202
 H    0.6447181340   -2.5376322520   -2.1804815050
 H   -0.0463758811   -2.3154307362    0.8588880255