17

 C   -0.1711540281   -1.2486154463   -0.2091810866
 C   -0.0881163911   -0.0573451388   -0.0728324726
 C    0.0032536184    1.3895902689    0.0513985321
 O   -0.5240078775    1.8633165906    1.3112157830
 C    0.5203842156    2.6798463434    1.8490832577
 C    1.6022076360    1.7704210343    2.4565688363
 C    2.2873375893    1.2576877253    1.1524313299
 C    1.4429243026    1.9846889356    0.0876108215
 O    1.1522235862    3.2420662697    0.7139948801
 H   -0.2485268425   -2.3016839634   -0.3248424217
 H   -0.5658644382    1.8608693154   -0.7603563085
 H    0.0852049932    3.4529062673    2.4813154017
 H    2.2886656839    2.3426701866    3.0854171184
 H    1.1557631974    0.9740126859    3.0536572277
 H    3.3281192792    1.5806641296    1.0879961001
 H    2.2510211228    0.1732485039    1.0427392912
 H    1.8970530529    2.1371535119   -0.8894135003