14

 O    0.1471358132    1.3981189507    0.1333189074
 C    0.0315241571    0.0261863980    0.0329972170
 C   -0.4326432118   -0.8395258193    1.1525448272
 C   -1.3418492028   -0.6672672632   -0.0684685988
 C   -2.5358406939    0.1607779975    0.0345126967
 N   -2.6656658550    1.2216748786    0.7882386837
 O   -3.9135343137    1.6879430940    0.5220677777
 N   -4.5066765163    0.8554329900   -0.4135998397
 N   -3.6901837328   -0.0525746552   -0.7086075634
 H   -0.5954774168    1.7510530450    0.6441669385
 H    0.7942662978   -0.3634010132   -0.6325635514
 H    0.0193389011   -1.8148725258    1.2944623224
 H   -0.7600409260   -0.3487728075    2.0634474513
 H   -1.4478507201   -1.4980876796   -0.7545978387