20

 C   -0.2522760300    1.5368327486    0.0800620304
 C    0.0591003735    0.0399660754    0.0123935679
 C    0.6999740014   -0.4406465440   -1.2768852129
 C    1.7985406211   -1.1506135614   -1.0259143543
 C    2.0573579826   -1.1919201167    0.4460926961
 C    2.5030728636   -2.4763689694    1.0953931931
 O    3.7897419294   -2.7925236469    0.5767862094
 C    2.3432264482    0.1418545944    1.0480300121
 N    0.9795974706   -0.4121720137    1.0928550753
 H    0.6389206678    2.1455721590   -0.0969990923
 H   -0.9968719512    1.8033991433   -0.6765895298
 H   -0.6569952437    1.7944338728    1.0628541535
 H   -0.8888081553   -0.4959513241    0.1712489546
 H    0.2967728163   -0.2102535835   -2.2568981918
 H    2.4463924802   -1.6340543570   -1.7455822186
 H    2.5215859711   -2.3409634334    2.1865647194
 H    1.7764319093   -3.2727233301    0.8696980355
 H    4.0362324370   -3.6633766571    0.9013437705
 H    2.8205242406    0.2104159842    2.0225608570
 H    2.5721455876    0.9539167796    0.3640045447