19

 C   -0.1006828476    1.5971105808   -0.0187767200
 C   -0.0441237116    0.0774015394   -0.0125282121
 C    1.1735238284   -0.6300334098   -0.6295508907
 N    2.0740220701   -0.2561488468    0.5795237970
 C    2.5035675662   -1.7126881003    0.6907886119
 C    1.0438624684   -1.8977084918    0.2801536549
 C    0.2491580021   -3.1572943637    0.0492625447
 C    0.6773139512   -0.6412422782    1.1393961626
 H    0.8687399549    2.0199678732    0.2558847084
 H   -0.3733531560    1.9745499808   -1.0104829042
 H   -0.8506546321    1.9637848941    0.6907173685
 H   -1.0064338848   -0.3703917278   -0.2853015263
 H    1.5741996677   -0.5800558926   -1.6454309585
 H    3.2831690768   -1.9939044508   -0.0267205853
 H    2.7972151245   -2.0048721687    1.7057169629
 H    0.2172402767   -3.7720247632    0.9557140901
 H   -0.7833162213   -2.9330596830   -0.2396719297
 H    0.6961414517   -3.7618964540   -0.7477500642
 H    0.4910328248   -0.6045332478    2.2159665601