17

 O   -0.1222661121    1.4483031699   -0.0066353638
 C    0.0227571145    0.0309048238    0.1109633259
 C   -1.3861535798   -0.5360075466    0.0940480976
 O   -2.1133001737   -0.0308598669   -1.0053085593
 C   -1.6015627442   -2.0394418840    0.2107162562
 C   -1.6531038229   -2.3155910928    1.7228484409
 O   -1.3769202249   -1.0924431843    2.4138893194
 C   -2.2235276142   -0.4521505725    1.4168369922
 C   -2.8748696018   -1.8310500869    1.0345964124
 H    0.7467397774    1.8405658160   -0.1245965260
 H    0.5900359802   -0.3802541957   -0.7373078790
 H    0.5200563452   -0.2474617380    1.0470969774
 H   -1.8513138715    0.8971166160   -1.0746093862
 H   -1.3949494871   -2.8015264428   -0.5298159739
 H   -1.3902618504   -3.2570558541    2.1865343670
 H   -2.6995907336    0.4670451728    1.7499716586
 H   -3.8845143411   -2.1992268739    0.9303683907