22

 C   -0.1320713348    1.5384057873   -0.0543565954
 C    0.0396014690    0.0176990328    0.0151272276
 C    0.6985019753   -0.5042084047   -1.2605723817
 O    0.9230952611   -1.9216854056   -1.2735129299
 C    1.3631364611   -2.5489090000   -0.1398657116
 N    2.0779073512   -3.5928007007   -0.2010263640
 C    0.8519159238   -2.0184578837    1.1793532011
 C    0.8203216619   -0.4813464895    1.2513574771
 C    2.2337278863    0.1021088327    1.3982684323
 H    0.8247459667    2.0515964319   -0.1934199243
 H   -0.7827541392    1.8227359998   -0.8879213287
 H   -0.5849295111    1.9201386749    0.8662430250
 H   -0.9606792111   -0.4335325722    0.0726189006
 H    0.0694953176   -0.3064168659   -2.1330194082
 H    1.6603021944    0.0011570183   -1.4264099825
 H    2.2822224390   -3.8120890082   -1.1791000547
 H   -0.1703250791   -2.4007839544    1.3029994587
 H    1.4589757490   -2.4579191165    1.9729920654
 H    0.2491984398   -0.1972665634    2.1441763471
 H    2.8838011258   -0.1697546685    0.5599136846
 H    2.2197854688    1.1929447868    1.4740454109
 H    2.7053947844   -0.2855099212    2.3066596106