21

 C   -0.1279473194    1.5386416266   -0.0273986129
 C   -0.0204895001    0.0120642459   -0.0361361158
 C    0.7507620385   -0.5292342125   -1.2408450374
 O    2.0922980723   -0.0458352482   -1.2880129218
 C    0.7630010429   -2.0707351605   -1.2833534952
 O   -0.5718811724   -2.5832332031   -1.2723132250
 C   -0.7769729736   -3.4644394481   -2.3760886329
 C    0.5084870756   -3.4210605607   -3.1528762956
 C    1.3824346208   -2.6395160273   -2.5304503863
 H    0.8624273269    2.0006343497   -0.0699711093
 H   -0.6963068117    1.8967234705   -0.8928515687
 H   -0.6349099468    1.8943773769    0.8745691643
 H    0.4804588739   -0.3359815053    0.8807407408
 H   -1.0135151868   -0.4482885065   -0.0336154208
 H    0.2858129632   -0.1690438987   -2.1668139153
 H    2.4988833555   -0.2358554401   -0.4346251386
 H    1.2929136797   -2.4224836735   -0.3770620649
 H   -1.0126192744   -4.4768927315   -2.0099495318
 H   -1.6426482492   -3.1244361494   -2.9646709393
 H    0.6594542671   -3.9637828704   -4.0773959159
 H    2.3909802781   -2.3991546041   -2.8361710976