20

 C    0.1648588840    1.5606972385    0.0762812378
 C   -0.0195620354    0.0268809478    0.0274467142
 C    0.6539139057   -0.6325419578    1.2526783527
 C   -1.5239883908   -0.3692124348   -0.0762285765
 C   -2.3894191705    0.1152308655    1.0626379147
 C   -3.5259613775   -0.6766001613    1.5509905039
 O   -2.3112166583   -0.6041094007    2.2981671303
 C    0.6381824751   -0.4750342437   -1.1922964277
 N    1.1473339245   -0.8707678820   -2.1518164532
 H    1.2263145575    1.8189791648    0.0445429221
 H   -0.3292606524    2.0485112272   -0.7687804811
 H   -0.2512010873    1.9609512347    1.0044924169
 H    0.1787096430   -0.2854138762    2.1720816522
 H    0.5604565880   -1.7207205391    1.2129738481
 H    1.7171507029   -0.3800711794    1.2855113125
 H   -1.9281475867    0.0327901247   -1.0132940155
 H   -1.5966844887   -1.4598944462   -0.1364579918
 H   -2.4507318224    1.1962362891    1.1912522384
 H   -4.3821753908   -0.1747202503    1.9987421699
 H   -3.7385391196   -1.6439064210    1.0978633320