20

 C   -0.1326171725    1.5151835008    0.0154493282
 C   -0.0264410848   -0.0120814001    0.0135168847
 C   -1.4179590433   -0.6050623291   -0.2073711928
 C    1.1545674557   -0.6150829541   -0.8179646185
 C    2.1233878379   -0.2192643177    0.3150363420
 C    0.8741895627   -0.6231032624    1.1769768288
 C    0.8177667257   -2.0790619249    0.7943261960
 N    0.6400188987   -3.1005845408    1.5083559247
 O    1.0105889009   -2.0482958005   -0.5770352764
 H    0.8067213532    2.0344044295    0.2096453107
 H   -0.5116442967    1.8664740286   -0.9508933091
 H   -0.8494454645    1.8353450566    0.7791664320
 H   -1.8565236385   -0.2079541450   -1.1296620338
 H   -1.4066690273   -1.6927234459   -0.2814330884
 H   -2.0835638820   -0.3277309348    0.6171371695
 H    1.3198520558   -0.4421758168   -1.8803247958
 H    3.0180935741   -0.8362056644    0.4155831413
 H    2.3798904931    0.8356809100    0.3638435915
 H    0.7517004872   -0.3791581554    2.2290714694
 H    0.6625404046   -3.9467092136    0.9349733559