19

 C    0.2531871008    1.3794827337   -0.3661058978
 C   -0.0554220580    0.0181603354    0.2805968755
 C   -1.4773723416   -0.4195089263    0.0820900245
 N   -2.3798243621   -0.2355665117    1.0671340416
 N   -3.5037104997   -0.6861675991    0.4952883725
 C   -4.9157455552   -1.0450614887    0.6777160747
 C   -4.8350519031   -1.5862598620   -0.8091427072
 C   -3.3726582056   -1.1572425828   -0.7519230807
 C   -2.0428514373   -1.0070826220   -1.0926984069
 H    1.2975788221    1.6634252369   -0.2006805016
 H    0.0764464464    1.3528559443   -1.4461893179
 H   -0.3849989226    2.1607871745    0.0574678911
 H    0.6195744821   -0.7412602867   -0.1318913155
 H    0.1394113186    0.0703097859    1.3561465376
 H   -5.0856701840   -1.8075330098    1.4425401908
 H   -5.5781618664   -0.1916317359    0.8448184654
 H   -5.0126035454   -2.6596497641   -0.9062486927
 H   -5.4656800831   -1.0504411008   -1.5222155354
 H   -1.5296522460   -1.2608220608   -2.0053952680