18

 C   -0.0982963742    1.4926180245    0.0065505817
 N   -0.0765082850    0.0367307144   -0.0112265544
 C    0.0412343436   -0.6516559696   -1.1882409902
 C    0.1575872388   -2.0007913323   -1.2229925183
 C    0.1745909268   -2.8035436732   -0.0067771215
 O    0.2782217213   -4.0297678224    0.0041194898
 C    0.0504606393   -2.0160043294    1.2310540913
 C    0.0491153011   -2.7657751960    2.5292427378
 C   -0.0619520902   -0.6659861402    1.1716845355
 H    0.8992711972    1.9105826581    0.1867489271
 H   -0.4648294232    1.8625169844   -0.9525725811
 H   -0.7726981356    1.8443218531    0.7911233581
 H    0.0302337414   -0.0409053005   -2.0839290236
 H    0.2361559956   -2.5141473846   -2.1735188104
 H   -0.7709101651   -3.4915266298    2.5493722934
 H    0.9691563052   -3.3507307856    2.6315728178
 H   -0.0461435164   -2.0972564056    3.3895482634
 H   -0.1528639507   -0.0553875554    2.0640106936