15

 C   -0.0466309692    1.5014014208    0.2002039356
 O    1.2992039179    1.9261247263   -0.1843502645
 C    1.9382250798    0.8004558533   -0.6293865019
 C    2.6513282444    0.2514126904   -1.9556297254
 O    3.9976811791    0.3288182885   -1.4396230738
 C    3.2330734848   -0.0789448338   -0.2846224557
 C    2.2775368066   -1.0396443023   -1.1113200184
 C    1.0522690252   -0.3657879336   -0.5515251305
 C   -0.1269959382   -0.0091244027   -0.0704567095
 H   -0.1960304803    1.7545191730    1.2582285938
 H   -0.7696905335    2.0802975664   -0.3896012208
 H    2.4654781111    0.4451970459   -3.0109210072
 H    3.7423159647   -0.2798977488    0.6566653193
 H    2.4920141901   -2.0668429019   -1.3890658273
 H   -1.0205968725   -0.5854625215    0.1266960962