22

 C    0.0483082283    1.5296487362    0.0743710745
 C    0.0158568254    0.0109109828   -0.0120599508
 C    0.6716970148   -0.5354609660   -1.2880120884
 C    0.6889724206   -2.0725842858   -1.2660959957
 C    1.2817143165   -2.5677531721    0.0405322588
 C    1.8171218969   -3.9442708463    0.1445359839
 N    2.7359106289   -2.7874609274    0.1494175090
 C    0.6523395076   -1.8967882173    1.2459030233
 O    0.6862353264   -0.4839592552    1.1417278953
 H    1.0821807953    1.8882751173    0.0589649771
 H   -0.4886097350    1.9766775258   -0.7677473705
 H   -0.4161547232    1.8674634789    1.0045067530
 H   -1.0357190583   -0.3332224666    0.0127906537
 H    0.1340969697   -0.1687016243   -2.1696403247
 H    1.6969367968   -0.1488907819   -1.3426120178
 H   -0.3405941166   -2.4460405438   -1.3577763979
 H    1.2473860097   -2.4771320981   -2.1189335560
 H    1.7637632184   -4.4876302987    1.0848489167
 H    1.7704140086   -4.5746032452   -0.7407010634
 H    3.1718001826   -2.6941948946   -0.7657572766
 H   -0.3909383680   -2.2441764705    1.3548908370
 H    1.2043836046   -2.1554320273    2.1525160194