19

 C   -0.2104668249    1.5595910729    0.1006698597
 C   -0.0787746675    0.0659176283    0.0616884818
 C   -1.2545125390   -0.9370985558    0.1081131005
 C   -0.3615793728   -1.9199539383    0.9274873169
 C    0.7863701226   -0.9001733100    0.8516972498
 N    1.1211866514   -0.5231243374   -0.5093042582
 C    1.0873824884   -1.4679316235   -1.6194238568
 C    2.3231108305   -2.2569312742   -1.6567619132
 N    3.2862777690   -2.8937046589   -1.6839897369
 H    0.7671981564    2.0243802271    0.2496091720
 H   -0.6274010992    1.9423448628   -0.8387408415
 H   -0.8777009390    1.8719877222    0.9108717143
 H   -2.0908410675   -0.5533759283    0.6963254263
 H   -1.6470121119   -1.2810652855   -0.8544038326
 H   -0.7251805702   -2.0548519729    1.9477831565
 H   -0.1662161160   -2.9087458900    0.5011898610
 H    1.5273166495   -0.7112492484    1.6211284092
 H    0.2426998223   -2.1720582204   -1.6080791348
 H    1.0121985780   -0.8966854799   -2.5516436642