19

 O   -0.0737134668    1.4069019826    0.0102422092
 C   -0.0008715287    0.0002424655    0.0172442449
 C    1.0987706809   -0.5403547715   -0.8680435222
 N    2.3884479350   -0.0171261209   -0.4298639820
 C    3.4543838686   -0.2693179135   -1.3864951539
 C    4.7209440600    0.3178332338   -0.9395059125
 N    5.7170067107    0.7961994498   -0.6036727350
 C   -0.2848125175   -0.6288917871    1.3436876266
 C   -1.2780342338   -0.7748241559    0.2052123557
 H   -0.4688641134    1.6797818534   -0.8260959539
 H    1.1163113181   -1.6361923854   -0.8158872517
 H    0.8723424349   -0.2783486897   -1.9225238481
 H    2.2894740439    0.9803786227   -0.2666554149
 H    3.5968783353   -1.3534366533   -1.4851566709
 H    3.2478858598    0.1075700773   -2.4068114069
 H    0.3031222883   -1.4903455508    1.6382666291
 H   -0.5495003691    0.0445462211    2.1498993635
 H   -2.1928805895   -0.1964746470    0.2707505586
 H   -1.3817614667   -1.7406401412   -0.2780727958