23

 C    0.8668710716    1.3818071566    0.2158352700
 C   -0.1082853494    0.2676424170   -0.1704404531
 C    0.3500425252   -0.4928680789   -1.4292668622
 C   -0.2757928543   -1.8824219987   -1.6002140871
 O    0.4063176720   -2.8856914630   -0.8668206550
 C    0.1521455344   -2.9250405133    0.5293406603
 C    0.9438485591   -4.1072308721    1.0766158591
 C    0.5197860682   -1.6157027191    1.2409611856
 O   -0.3960727384   -0.5771013950    0.9440560524
 H    1.8525899229    0.9754394586    0.4672918637
 H    0.9999765109    2.0843455681   -0.6139043001
 H    0.4909809704    1.9334857671    1.0816056259
 H   -1.0831702658    0.7222508538   -0.3868490935
 H    0.1098960243    0.1266496136   -2.3020774073
 H    1.4391268374   -0.6213594643   -1.4321235868
 H   -1.3445533564   -1.8643866457   -1.3353757715
 H   -0.1951395837   -2.1914384375   -2.6473637825
 H   -0.9267037123   -3.0846796858    0.6979279508
 H    2.0194553521   -3.9371948156    0.9626633889
 H    0.7263087813   -4.2657683265    2.1368167507
 H    0.6857047074   -5.0157690061    0.5273618241
 H    0.4613154980   -1.7746531163    2.3243863407
 H    1.5571336853   -1.3415637168    1.0021392468