21

 C   -0.4446212691    1.5140645891    0.4001130253
 C   -0.1168036032    0.0400029198    0.2001022733
 C    0.2937967928   -0.4519292763   -1.1944877450
 C    1.6209218589    0.1128994463   -1.6142623607
 C    1.5925655979   -1.0352348773   -0.6459926557
 C    1.2458214214   -0.5632262605    0.7891439716
 C    2.2364268805    0.3930092733    1.4680389585
 C    0.9739876941   -1.6938283172    1.6665602182
 C    0.7578219738   -2.6261671182    2.3957056806
 H    0.3387361427    2.1730142348    0.0145706259
 H   -1.3732938333    1.7667019130   -0.1236147378
 H   -0.5884517640    1.7482605012    1.4603211422
 H   -0.9417866831   -0.5663356065    0.5805929606
 H   -0.3883020039   -0.8887171308   -1.9140100509
 H    1.9355642053   -0.1526063865   -2.6186634206
 H    1.9362052952    1.1066213385   -1.3097424763
 H    2.0573820100   -1.9886745678   -0.8640193389
 H    2.4782071117    1.2450030152    0.8285692918
 H    1.8248445080    0.7754787937    2.4068284947
 H    3.1675501148   -0.1327168538    1.6998349384
 H    0.5647066694   -3.4483693403    3.0390552947