10

 N   -0.0259973247    1.2975610682    0.0096027223
 C    0.0027057299    0.0412767432    0.0032346058
 O    1.0999288978   -0.7659364089   -0.0082180088
 C    0.6753727701   -2.1243325797   -0.0118364568
 O   -0.7386047732   -2.1361146035   -0.0024263722
 C   -1.2136290908   -0.8545777581    0.0070975124
 O   -2.3678604466   -0.5720068930    0.0162899486
 H    0.9154638326    1.6939071379    0.0051489647
 H    1.0412452105   -2.6179338610   -0.9180231310
 H    1.0533093542   -2.6265149752    0.8846373249