12

 N   -0.1161601243    1.3164707312    0.2383219487
 C   -0.0656891509    0.0856506948   -0.0559394103
 O    1.1152192696   -0.4854217178   -0.4864427535
 C    1.2487093442   -1.8157087045   -0.8254008790
 O    2.3072059732   -2.2195643311   -1.1869983943
 C   -0.0079979261   -2.7092715760   -0.7107110483
 O    0.0787996786   -3.8779713212   -1.0007509197
 C   -1.2394393517   -2.0636923568   -0.2495411431
 C   -1.2520250600   -0.7585215413    0.0525427354
 H    0.7965823917    1.7579873138    0.1073444202
 H   -2.1200302664   -2.6913267080   -0.1693232070
 H   -2.1406369177   -0.2429289432    0.3965610409