15

 C    0.0979870306    1.3862354613    0.1124749158
 N   -0.0791084924   -0.0496446805    0.1367087140
 C   -1.2950517424   -0.6340865485   -0.0086124092
 O   -2.3520601860   -0.0635698107   -0.1702491302
 O   -1.1598943596   -1.9888119783    0.0540960433
 C   -2.3975252418   -2.7036459910   -0.0895020064
 C   -2.1238647493   -4.1290864011   -0.0052248619
 C   -1.9341532505   -5.3128170643    0.0595729650
 H    0.7546838949    1.6956173964   -0.7085071178
 H   -0.8849944135    1.8351246007   -0.0339110448
 H    0.5188855649    1.7542384654    1.0549948332
 H    0.7121880777   -0.6579491478    0.2630498136
 H   -3.0959233977   -2.3899858444    0.6940877547
 H   -2.8603109673   -2.4478281809   -1.0489595290
 H   -1.7648822873   -6.3596727863    0.1169927998