18

 C    0.0297572634    1.5279963563    0.0093975859
 C   -0.0664731672    0.0350451126    0.0675713989
 C   -1.3501309636   -0.8031423429   -0.0209756577
 C   -0.7202986600   -1.8143991081    0.9986292739
 O   -0.4377208516   -3.1197560445    0.5454237293
 C    0.5450292212   -0.9452708811    1.0633872678
 N    1.0911155246   -0.7691813894   -0.2885709750
 C    1.3623277509   -0.7455341134    2.2127300893
 C    2.0139061955   -0.5786333468    3.2102953359
 H    1.0261203722    1.8544181898    0.3169600120
 H   -0.1458657579    1.8871262924   -1.0114962586
 H   -0.7132229742    1.9955451357    0.6635631888
 H   -2.2351078145   -0.3018880172    0.3798524103
 H   -1.5802371409   -1.2063960683   -1.0129352945
 H   -1.2582544342   -1.8233480480    1.9541950977
 H   -1.2699654387   -3.5916034216    0.4386601378
 H    0.8670686881   -1.5751475482   -0.8711293528
 H    2.6041580269   -0.4338874872    4.0807934409