19

 C   -0.1102436078    1.5090225124   -0.2807122832
 C    0.0497397360    0.0230862653   -0.0493913806
 C    1.3585913258   -0.7424773979   -0.2120379417
 C    2.6165334410    0.0488810787   -0.1059902082
 C    2.7762478567    0.5864337257    1.1034505336
 C    1.6585408989    0.1736279015    2.0594659070
 C    1.0587064567    1.2845881471    2.7973751518
 C    0.5852620500    2.1921713096    3.4281341300
 C    0.6950224458   -0.6193910056    1.1548051700
 H    0.7789794346    2.0723059313    0.0065380487
 H   -0.3102943338    1.7080658493   -1.3397044597
 H   -0.9508070261    1.9010852031    0.3002813974
 H   -0.8061572861   -0.5516205194   -0.3985144427
 H    1.3537690323   -1.6674451680   -0.7789842902
 H    3.2958619407    0.1856028564   -0.9401641313
 H    3.5730253477    1.2506355750    1.4153499397
 H    2.0747222980   -0.5200170406    2.8066464951
 H    0.1589452234    2.9943336197    3.9776713293
 H    0.1854916465   -1.4611819835    1.6080515951