19

 C    0.0491958689    1.5994358261   -0.0498657142
 C    0.1039433063    0.0716289063   -0.0269203179
 C    0.7595363979   -0.5933676444   -1.2293436449
 C    2.2760983562   -0.6102936305   -1.2928894006
 C    1.5364418318   -1.7777212298   -0.7059975357
 N    1.4467298289   -1.8452149483    0.7487766722
 C    0.8739457851   -0.5593618148    1.1957567739
 C    1.9334278778    0.3187797176    1.7246467957
 N    2.7449661233    1.0195467765    2.1564900716
 H    1.0485649099    2.0335363854   -0.1377432943
 H   -0.5459350635    1.9423961476   -0.9015605224
 H   -0.4108676059    1.9979825081    0.8602521240
 H   -0.9228927913   -0.3121050014    0.0352676966
 H    0.1932576348   -0.6370657371   -2.1529087543
 H    2.7196903534   -0.7574342785   -2.2715607431
 H    2.8552891324    0.0343949687   -0.6410852873
 H    1.5662908214   -2.7416801208   -1.1994994830
 H    0.8027661862   -2.5874003339    1.0000716994
 H    0.1867488462   -0.7343079069    2.0289623645