21

 C   -0.5952424412    0.9840561051   -0.0840371370
 O   -0.1276501301   -0.3434151430   -0.2270082764
 C    0.8770721048   -0.4852724559   -1.1986757893
 C    1.2682687255   -1.9608336451   -1.2542652478
 C    0.2001856807   -2.5224392345   -2.2080597637
 C   -0.0287045405   -1.3501839599   -3.1512153081
 C    0.2031599867   -1.4081162200   -4.6324351213
 C   -1.2002692190   -1.2250712675   -4.0712383094
 O    0.4167407450   -0.1657274241   -2.4977960132
 H    0.2188828519    1.6653815118    0.2087417228
 H   -1.0433799088    1.3558778780   -1.0127584350
 H   -1.3497979771    0.9750175957    0.7056387370
 H    1.7032245637    0.2078835686   -0.9833892785
 H    2.2689254247   -2.0541444083   -1.6862776301
 H    1.2637698217   -2.4172800844   -0.2639413674
 H    0.5195151432   -3.4249039300   -2.7335970891
 H   -0.7131257182   -2.7521976236   -1.6511144801
 H    0.6690474649   -0.5423787177   -5.0898666053
 H    0.4632619772   -2.3604864287   -5.0831236591
 H   -1.9001416846   -2.0523124319   -4.1350021115
 H   -1.6473958904   -0.2419854949   -4.1673756974