19

 C    0.1478848159    1.4555063917    0.2565384468
 C   -0.1490850235   -0.0000237298   -0.1275150819
 C    0.6065655312   -0.4658741305   -1.3410034882
 C    2.0453991213   -0.9524074064   -1.3201028330
 C    0.9525691938   -1.9073217604   -1.7494122397
 O    0.6284389587   -3.0409741202   -1.0294890704
 C    0.5209523888   -1.6005826466   -3.1687301479
 O   -0.8291313671   -1.1035883890   -3.1573068948
 C    0.2233225757   -0.2065994352   -2.7890805724
 H    1.2095910891    1.5953511259    0.4856642903
 H   -0.1088771056    2.1413437494   -0.5579979095
 H   -0.4296662627    1.7547172716    1.1365720170
 H    0.0904495995   -0.6637388652    0.7119450422
 H   -1.2214008180   -0.1248650178   -0.3197953827
 H    2.7796207539   -0.5762541895   -2.0278667088
 H    2.4415454205   -1.1506590459   -0.3274652625
 H    1.3767136324   -3.6466275517   -1.0539684517
 H    0.8889585321   -1.9958399166   -4.1086758721
 H    0.3462864241    0.6932175162   -3.3806808708