15

 C   -0.0185544688    1.5116374844    0.0239906030
 N    1.3030863812    2.1794611764   -0.1020901309
 C    2.2118030745    1.4193555350   -0.8235123954
 C    2.1012303115    0.0748965134   -1.1173897979
 C    1.0100566628   -0.6894383283   -0.5525207551
 C    0.0258151479   -0.0076256958    0.0518558837
 N    3.1849213143   -0.2999279298   -1.8552850066
 N    3.9612455120    0.7283413021   -2.0292267842
 N    3.3700674824    1.7926315723   -1.4026172221
 H   -0.4993775019    1.9027409899    0.9244813904
 H   -0.6414909919    1.8396241595   -0.8227989910
 H    1.6681845680    2.5081953240    0.7844022130
 H    1.0377348752   -1.7727518012   -0.5800771950
 H   -0.7984982698   -0.5172482568    0.5395856754
 H    3.8100955725    2.6977752248   -1.4396300275