20

 C    0.0296168551    1.3382781580   -0.1986628263
 O    0.0008177308    0.0132397602    0.2898627022
 C   -1.2381372900   -0.6179248138    0.1392881892
 C   -1.6298180868   -1.3280346176   -1.1871989308
 C   -0.4020264025   -1.9934993875   -1.8023603932
 O    0.1900006205   -2.9454707262   -0.9322130021
 C   -0.0979247278   -2.8363516358    0.4550190964
 C   -1.3697943648   -2.0368208982    0.7209903584
 N   -2.3438481281   -2.3809503795   -0.3787434356
 H    1.0271414227    1.7362109789    0.0003281694
 H   -0.1600883691    1.3845904321   -1.2809142404
 H   -0.7147912881    1.9701141885    0.3097987521
 H   -2.0564068626    0.0318715002    0.4878208905
 H   -2.2248774261   -0.8029159416   -1.9386121396
 H   -0.6884743908   -2.5372592628   -2.7100790064
 H    0.3288243987   -1.2184128842   -2.0806161151
 H   -0.2208957739   -3.8599579185    0.8271447713
 H    0.7405729637   -2.3665898589    0.9885793642
 H   -1.7180724502   -2.1666008290    1.7484451963
 H   -3.2547495406   -2.0071109443   -0.1156433106