19

 C   -0.1090040126    1.6117183848   -0.1170907632
 C    0.0617218770    0.0769746012    0.0104071947
 C    0.7158061680   -0.4575649167   -1.1881725923
 C    1.2450025982   -0.8749394482   -2.1911956339
 C    1.8434664719   -1.3506919146   -3.3224786152
 N    2.3531922783   -1.7530582928   -4.2858397294
 N    0.7471882790   -0.4091319506    1.2122912688
 C    2.1012337492    0.0925970344    1.3929638604
 C   -0.0560667087   -0.2989863855    2.4181379445
 H    0.8576629189    2.1120394905   -0.2095467277
 H   -0.7030488612    1.8535883441   -1.0023031199
 H   -0.6263719673    2.0059242104    0.7616275440
 H   -0.9439836581   -0.3650855788    0.0388162140
 H    2.1502893472    1.1586654167    1.6772053506
 H    2.5908611093   -0.4839669461    2.1840006182
 H    2.6752141275   -0.0452295255    0.4725904118
 H   -1.0367161232   -0.7583970663    2.2576076994
 H    0.4408833202   -0.8424526461    3.2278761023
 H   -0.2148467837    0.7384785292    2.7650430227