21

 C   -0.0250527023    1.5161164361    0.0452390183
 C    0.0314357110    0.0222906993    0.0053180565
 C   -0.0277209503   -0.7671282904   -1.0729806434
 C    0.0365972945   -2.2091461675   -0.7231594440
 C   -0.9242057352   -3.2218199395   -1.3183525574
 C    0.5359492886   -3.2724419399   -1.6737023300
 C    0.4306962292   -2.2471984738    0.7649162228
 O    1.7973457551   -2.5987812499    0.9552321344
 C    0.1229151646   -0.8119314699    1.2682106051
 H    0.8708435714    1.9368099775    0.5201918400
 H   -0.1114547526    1.9448378974   -0.9571118372
 H   -0.8801766232    1.8648536261    0.6390146532
 H   -0.1275534718   -0.4187254710   -2.0965117354
 H   -1.3183746682   -3.9895232152   -0.6600164884
 H   -1.6272833419   -2.8728419247   -2.0677330092
 H    0.8332388005   -2.9644505160   -2.6710179310
 H    1.1436992306   -4.0619806059   -1.2458221611
 H   -0.1260148255   -3.0059832809    1.3207683600
 H    2.3207736427   -2.0295032784    0.3797441240
 H    0.9068891562   -0.4808476265    1.9593924269
 H   -0.8230823434   -0.7711293868    1.8265096158