18

 N   -0.0079724045   -1.1341444175   -0.0471623980
 C   -0.0116134583    0.0221432408   -0.0067702957
 C    0.0032365239    1.4710106423    0.0507418439
 C   -0.1211281875    2.0667280457    1.4995142266
 C    1.4242389818    1.9220994540    1.6175369367
 C    1.4456017799    2.1090123011    0.0776246855
 O    1.3459744075    3.4579933387   -0.3222570908
 C    0.6536078828    4.2883439422    0.6146330478
 C   -0.4889319560    3.5511841000    1.3474131814
 H   -0.6615985443    1.8868643758   -0.7105410881
 H   -0.7609419258    1.5397868935    2.2080198957
 H    1.9787215254    2.6310304300    2.2349527800
 H    1.7155771528    0.9041607119    1.8828818125
 H    2.2291955908    1.6456291426   -0.5222214241
 H    1.3720060360    4.6711816594    1.3515161489
 H    0.2840247851    5.1452694911    0.0462273678
 H   -1.4363215571    3.6406476243    0.8042244441
 H   -0.6350170525    4.0136745540    2.3295633960