19

 O    0.6045993033    0.6229903883   -1.1082143130
 C    0.1546365548    0.1014852703    0.1221710519
 C    1.2050607759   -0.4880419368    1.0325543738
 C    0.6273264657    0.8836925907    1.3119105686
 C   -1.2129037116   -0.5407482760    0.0431267374
 C   -2.3675472734   -0.2782324527    1.0560578418
 C   -2.5581973996    1.1533892381    0.4950985439
 C   -2.4015853423    0.1589585698   -0.6759223546
 O   -3.3173679177   -0.7700484878    0.0327854935
 H    0.7560325269   -0.1191782534   -1.7046043605
 H    0.9236680866   -1.3087351453    1.6846419554
 H    2.2172675891   -0.5329978056    0.6465898905
 H    1.2547563154    1.7425158120    1.1031319207
 H   -0.0361265844    0.9983143212    2.1613676457
 H   -1.1562264184   -1.5990676183   -0.2322968778
 H   -2.4924409391   -0.6519661141    2.0733019580
 H   -3.5640169557    1.5563093297    0.6179765783
 H   -1.7743177022    1.8933778440    0.6557842249
 H   -2.5636302335    0.3095643058   -1.7428870485