18

 C    0.4474159401    1.5018016598    0.1975180399
 C   -0.0987816131    0.1071114514   -0.1040566256
 N    0.5074679674   -0.4816375356   -1.2883541808
 C    1.3323258982   -1.5395155849   -1.3963276529
 N    1.6651208929   -1.7395168625   -2.6586058793
 C    0.9922859533   -0.7463301307   -3.3079340098
 C    1.1074744156   -0.5926185033   -4.7965476155
 O    1.2714023736   -1.8433128795   -5.4306453767
 N    0.2748835348    0.0394757550   -2.5210819043
 H    1.5225739032    1.4670672485    0.3958388624
 H    0.2725398743    2.1670783252   -0.6508115112
 H   -0.0540552836    1.9162628608    1.0767677460
 H    0.0925001120   -0.5804433536    0.7248553133
 H   -1.1802314797    0.1435999880   -0.2654388438
 H    1.6516881654   -2.1238806425   -0.5461834537
 H    0.2027031502   -0.1197522334   -5.1902713971
 H    1.9513218352    0.0817917674   -5.0229564807
 H    1.7916619702   -2.3858332500   -4.8241800300