13

 O   -0.0062834264   -0.0428649551    0.0035148021
 C    0.0056358727    1.1657243984    0.0099025917
 N   -1.0849809721    2.0040390527    0.0278587664
 C   -0.7440833862    3.4053324176    0.0310540756
 C    0.7580999459    3.3661348171    0.0119548757
 C    1.1999557628    2.0980674184   -0.0003535511
 C    2.5288292401    1.6241479048   -0.0196477859
 C    3.6544995089    1.1983797098   -0.0361188373
 H   -2.0235924069    1.6438325466    0.0378164005
 H   -1.1433032873    3.9373458642   -0.8455530033
 H   -1.1210826133    3.9279114439    0.9230390345
 H    1.3647683599    4.2611558255    0.0090234016
 H    4.6452091718    0.8165302462   -0.0506550804