19

 C   -0.0767754153    1.3629711214    0.0635085808
 C    0.0695167627   -0.1588468778    0.0796498534
 C    0.8518980075   -0.7241702058   -1.1438347664
 O    1.9977401674   -1.3813371585   -0.5656090850
 C    1.8622734604   -1.2278452466    0.7793098532
 N    0.8482406186   -0.6121000346    1.2421893922
 N    2.9261822873   -1.7332898208    1.5016473035
 C    2.6741766368   -2.3305270863    2.8011309758
 C    3.0862219058   -3.1805238960    1.6439810872
 H    0.9057396925    1.8430313173    0.0047783690
 H   -0.6736750899    1.6893873935   -0.7954357351
 H   -0.5682714509    1.7066580060    0.9774096364
 H   -0.9317123696   -0.6044826560    0.1327853238
 H    0.2875544363   -1.4612431011   -1.7225585434
 H    1.2106309324    0.0582523376   -1.8204300029
 H    3.3955838264   -2.0762945157    3.5712755696
 H    1.6390202262   -2.3778442004    3.1248290626
 H    2.3294056755   -3.8159511908    1.1924448854
 H    4.1058075100   -3.5428558955    1.5592814300