15

 C    0.1149051786    1.2264503124   -0.3281870240
 N   -0.1158494568   -0.2012597814   -0.1408977354
 C    0.9909883806   -1.0725227820   -0.5112996162
 C   -1.3153420092   -0.5968255804    0.3391954969
 O   -2.2523571191    0.1400294444    0.6100191346
 C   -1.5650718884   -2.0776564014    0.6592950568
 O   -0.7700718949   -2.8589926048    1.1150428708
 C   -2.9819512415   -2.4507824648    0.4919218806
 N   -4.0548048649   -2.8455741195    0.3187783568
 H    0.9563406905    1.5559776397    0.2920811589
 H    0.3543390186    1.4341213656   -1.3770584330
 H   -0.7847723308    1.7678249807   -0.0421220760
 H    1.8512445844   -0.8951991302    0.1448632934
 H    0.7138330928   -2.1192733235   -0.4347225356
 H    1.2952781500   -0.8536006748   -1.5411361887