17

 C   -0.2017033777    1.6282661876    0.1585168209
 C    0.0729718872    0.1400449857    0.0385644256
 N    1.2751558781   -0.2325130537   -0.7868178298
 C    1.8287716132   -1.1099795555    0.2876431517
 C    0.7570307597   -0.5706582096    1.2017971645
 N    0.4597045003   -0.5958683671    2.4294004606
 O    1.3817414590   -1.3598544889    3.1573871849
 C   -1.1579303186   -0.6501470081   -0.4013625732
 O   -2.2517806817   -0.1828050843   -0.5728293667
 H    0.7097745744    2.1540128497    0.4489470624
 H   -0.5532523412    2.0267815092   -0.7970265345
 H   -0.9773720860    1.8081317458    0.9068432256
 H    1.0538112440   -0.7175533564   -1.6516523405
 H    1.7454610175   -2.1912432016    0.1137554759
 H    2.8651235766   -0.8823557892    0.5591252387
 H    1.0521430208   -1.2769268455    4.0591945133
 H   -0.9507570156   -1.7303370780   -0.5880138194