19

 C    0.0286880616    1.5214760108   -0.0623850793
 C    0.0286689696    0.0095249112   -0.0030679999
 C    0.4252526068   -0.7423255583   -1.2775138991
 O    1.6162487628   -1.5431005549   -1.1444015457
 C    0.3313057252   -2.1384050713   -0.8716160769
 C   -0.1099053405   -2.0036468877    0.5773254047
 C    0.6530879875   -0.7897496964    1.1994746727
 C   -0.5964742632   -0.4811568301    2.0610756829
 C   -1.1507906757   -0.8234935329    0.6611538323
 H    1.0331741554    1.8970791243   -0.2871091780
 H   -0.6397109149    1.8797214054   -0.8540090649
 H   -0.2958791028    1.9806929566    0.8751755166
 H    0.2150569035   -0.3599083593   -2.2719613274
 H    0.0351945114   -2.9591260452   -1.5163778999
 H   -0.2701319083   -2.8948611290    1.1844932033
 H    1.6995841792   -0.7778944750    1.5017618168
 H   -0.8206056438   -1.1952169579    2.8582868292
 H   -0.7223210699    0.5427204859    2.4186755083
 H   -2.1953714039   -0.8486282161    0.3411808144