21

 O   -0.1027557498    1.2552304704   -0.9164831937
 C    0.0154692604    0.2493498341    0.0765723403
 C   -1.3069360073   -0.4373138236    0.3090425854
 O   -1.7328834835   -1.2981225890   -0.7638962922
 C   -1.4604791870   -1.8815585024    0.5245576920
 C   -0.3148964916   -2.9043684007    0.5906091609
 C   -0.8979557813   -4.1147031431    1.3583789137
 C   -2.4220057277   -3.9912538331    1.1730812453
 C   -2.6578634132   -2.4750477714    1.2626137627
 H   -0.4623028515    0.8232165651   -1.6998974732
 H    0.7805521674   -0.4925401977   -0.1930897660
 H    0.3436204108    0.7563759986    0.9909160387
 H   -2.0952540225    0.2237437139    0.6766634984
 H   -0.0429257949   -3.1756720568   -0.4339248288
 H    0.5833004517   -2.5050485072    1.0692686904
 H   -0.4967745065   -5.0678466843    1.0046356057
 H   -0.6513641710   -4.0366697529    2.4238309238
 H   -2.7109841370   -4.3532296534    0.1791882178
 H   -2.9911842019   -4.5624436190    1.9110225999
 H   -2.6369585578   -2.1567934467    2.3130351084
 H   -3.5989109557   -2.1344136307    0.8251776704