19

 C   -0.0609757987   -1.2452899988   -0.1445738988
 C   -0.0422804229   -0.0458494066   -0.0557235693
 C   -0.0046572792    1.4049008662    0.0577037332
 C   -0.6148877733    1.9697341731    1.3834714849
 C    0.2544141323    3.1873098859    1.6889512021
 C    1.7406488674    2.9822196427    1.9403838406
 C    2.2093403691    1.6546234652    1.3422347450
 C    1.4198308606    2.0126943552    0.0413765698
 C    1.2399181115    3.4553342812    0.5845711318
 H   -0.0831626918   -2.3035405241   -0.2267180466
 H   -0.5580740275    1.8368349976   -0.7866372502
 H   -1.6641222919    2.2450762046    1.2459080657
 H   -0.5784683106    1.2210340396    2.1801453462
 H   -0.1869176752    4.0350536543    2.2014477100
 H    2.2556329868    3.5523209108    2.7051450986
 H    3.2874333242    1.6572929034    1.1638622164
 H    1.9374827420    0.7232393572    1.8503522521
 H    1.9479640104    1.8659411379   -0.8998197884
 H    1.3766590668    4.3922064245    0.0613358470