17

 O   -0.0698404613   -0.0165621613    0.1805394834
 C   -0.0095351283    1.1692816295    0.0355651796
 O   -1.1503432454    1.9453666587   -0.0739285254
 C   -0.8736628985    3.2567854750   -0.6242533719
 C    0.6265017646    3.4307066564   -0.5326083288
 C    1.2395603930    3.2695257704    0.8168524615
 C    1.1697555345    2.0676794328   -0.0932825280
 C    2.2549589147    2.1037926525   -1.1846562547
 C    1.6800791843    3.4853538577   -1.6594556369
 H   -1.2210777159    3.2781119940   -1.6637012696
 H   -1.4558121173    3.9793155297   -0.0449622725
 H    2.2199330530    3.6902181488    1.0187314901
 H    0.5618800130    3.2739001094    1.6635514026
 H    3.2855533946    2.0960009052   -0.8206532770
 H    2.1406224018    1.3123075715   -1.9264982464
 H    1.2299316829    3.4282325052   -2.6530709198
 H    2.3596035604    4.3416935143   -1.6332608162