17

 C   -0.1176477396    1.3854320794    0.2176674381
 C   -0.1077070353   -0.0624954219    0.0814414050
 C   -0.1049133196   -1.2619962706   -0.0239085516
 C   -0.0997141716   -2.7007331386   -0.1640015214
 O    0.4271105027   -3.4306539597    0.9953841088
 C   -0.7636177181   -4.2252724602    1.1057524825
 C   -1.8468027620   -3.5810571925    1.9878700817
 O   -2.3948607971   -2.8703325259    0.8430882325
 C   -1.4487977454   -3.4684228806   -0.0448550410
 H    0.4459266015    1.6976696103    1.1037551735
 H    0.3356487227    1.8722033116   -0.6526972987
 H   -1.1391506693    1.7668552368    0.3223722183
 H    0.4594471793   -3.0037755558   -1.0602573201
 H   -0.5641980329   -5.2951224277    1.1801040031
 H   -2.5855252790   -4.2732619494    2.4102618796
 H   -1.4673137040   -2.9076879062    2.7626512000
 H   -1.8982880322   -3.8685020688   -0.9550257506