18

 N   -0.3358900296   -1.0661901021   -0.6038725522
 C   -0.1508285841    0.0138754614   -0.2370368185
 C    0.0515766278    1.3965715523    0.1948369317
 N    0.4325002699    1.5851730932    1.6101104872
 C    1.3414681998    2.6934390802    1.2412780592
 C    1.3690351483    2.1530442167   -0.2142453870
 C    2.5275681615    1.2650837712   -0.6052331670
 C    3.9113748352    1.5628332297   -0.1548443400
 N    3.1977645983    0.3840359251    0.3562294607
 H   -0.8317098504    1.9749021825   -0.1129865755
 H   -0.3293387519    1.8073225880    2.2418380310
 H    0.8907832649    3.6936136278    1.2921721043
 H    2.2796912646    2.7075963263    1.8046063142
 H    1.2096344312    2.9041207661   -0.9908040196
 H    2.3991312775    0.8059852516   -1.5842515086
 H    4.7517642074    1.3441011417   -0.8075930244
 H    4.0648611818    2.4161024785    0.5015608680
 H    2.8375030979    0.5439562997    1.2942620167