22

 C    0.2109744932    1.8417384606    0.0206244216
 C    0.0665716414    0.3128012306    0.0488839408
 C    0.6542330812   -0.3722321931   -1.2048244090
 C   -0.0614697412   -0.0238554348   -2.5129433167
 C    0.5026793301   -0.7891819646   -3.7035255495
 O   -0.2192814250   -0.3921790283   -4.8600483180
 C    0.8061325263   -0.2317207031    1.2749454616
 N    0.0642269934   -1.0138313516    2.1128256755
 O    1.9843053788   -0.0021233566    1.4755746036
 H    1.2701998944    2.1114198824    0.0020361703
 H   -0.2817248950    2.2730280563   -0.8540720795
 H   -0.2344802663    2.2943336323    0.9123172042
 H   -0.9986224443    0.0533583603    0.1178063803
 H    1.7169713801   -0.1100087895   -1.2666458792
 H    0.6162010487   -1.4600513143   -1.0564921746
 H   -1.1327576861   -0.2490550333   -2.4335234856
 H    0.0183582665    1.0462072840   -2.7317482379
 H    1.5778426390   -0.5698873255   -3.8087570437
 H    0.4090771333   -1.8738397401   -3.5282842703
 H    0.1467532196   -0.8578029751   -5.6174591549
 H   -0.9212189518   -1.1576425329    1.9847526583
 H    0.5056975939   -1.3785744037    2.9414008028