13

 C    0.0256617125    1.3885966543    0.0718891897
 N    0.1814448903   -0.0552234145    0.0464129221
 C    0.6392176196   -0.6010266434   -0.9793324764
 O    1.0445354752   -0.0419959887   -2.1576677988
 C    1.4582109615   -1.0890309781   -2.9942468219
 C    1.3114810559   -2.2244021974   -2.3188895010
 O    1.5595317122   -3.4982605310   -2.6252484191
 O    0.8097129119   -1.9702812744   -1.0660343646
 H    0.7666994751    1.8273280467    0.7509083278
 H    0.1312685241    1.8693186031   -0.9081259853
 H   -0.9620356376    1.6329966381    0.4759825922
 H    1.8098560160   -0.8430922717   -3.9771598054
 H    1.2726829132   -4.0489448628   -1.8866808793