20

 C   -0.0433454426    1.5271450200   -0.0037502038
 C    0.0009654288   -0.0063050672    0.0019019329
 C    0.7258419344   -0.5366077925    1.2456008319
 N   -1.3709307776   -0.5096004217    0.0151698123
 C   -1.7957670934   -1.2370276678   -0.9252880529
 O   -1.0667342943   -1.6351721346   -2.0322924746
 C   -1.8828639803   -2.4490053657   -2.8745938136
 C   -3.2099781953   -2.5206829985   -2.1756180549
 C   -3.1405741542   -1.8129574583   -1.0487599241
 H    0.9694772180    1.9428476331    0.0213558094
 H   -0.5448454862    1.8997038612   -0.9019566010
 H   -0.5933816973    1.8950058770    0.8683009392
 H    0.5459478723   -0.3430700465   -0.8899280129
 H    0.1980699966   -0.2284393355    2.1537987733
 H    0.7706071691   -1.6297475943    1.2347128767
 H    1.7500670027   -0.1514961063    1.2892051850
 H   -1.9488624117   -1.9879418952   -3.8699277519
 H   -1.4100445529   -3.4336525362   -2.9951601741
 H   -4.0560402720   -3.0711553832   -2.5642172125
 H   -3.9049659139   -1.6475060778   -0.3045107141