20

 N   -0.0061223070   -1.1670835386   -0.0679529446
 C   -0.0214195394   -0.0113056543   -0.0247228712
 C   -0.0346818711    1.4408297642    0.0364498420
 C   -0.2022585786    2.1193293507    1.4390194418
 C    0.7030315255    3.2562630659    0.8780748916
 C    1.3339057735    2.1870361226   -0.0533174311
 C   -0.1146469560    4.2505378157    0.0376886437
 C   -1.3048022935    3.5388294735   -0.6485820926
 C   -1.0123766519    2.0604711678   -0.9933506855
 H   -1.2151324847    2.3555112721    1.7720934460
 H    0.3069243906    1.5414732015    2.2126859222
 H    1.3685911372    3.7631612230    1.5788740469
 H    2.1293452394    1.6237468079    0.4391822775
 H    1.6626176465    2.4949911294   -1.0500256492
 H   -0.4932174929    5.0648148034    0.6651426465
 H    0.5485569029    4.7120747364   -0.7040046562
 H   -2.1625894978    3.5682430445    0.0305807813
 H   -1.6173002062    4.0797289118   -1.5464104308
 H   -0.5658990986    1.9619680984   -1.9890993835
 H   -1.9482707380    1.4936299841   -1.0119623049