17

 C    0.7107106191    1.3073800112   -0.0957042989
 C   -0.1295256529    0.0187189771    0.0008678377
 O   -1.5025195048    0.3319394612    0.0786400307
 C    0.1053083688   -0.8992681454   -1.2122749275
 N    1.4132003739   -1.5515924767   -1.2382112141
 C    1.9290314029   -1.8345935847   -0.1169780643
 N    1.3742445162   -1.5361697873    1.1340346440
 C    0.2738682369   -0.7236145753    1.2783817986
 O   -0.3086347122   -0.5692516729    2.3326363028
 H    1.7727120278    1.0940518474   -0.2487027550
 H    0.3456310437    1.8920008462   -0.9445257174
 H    0.5952959755    1.9051714183    0.8127178433
 H   -1.7151032623    0.3459374371    1.0240015159
 H   -0.6724407391   -1.6754696786   -1.2175319589
 H   -0.0211130031   -0.3231060735   -2.1336893957
 H    2.8787831723   -2.3646956076   -0.0624846082
 H    1.7460785474   -1.9627720863    1.9715382870