21

 C    0.0224285232    1.5093682722   -0.0464836561
 C    0.0456997961    0.0046757995   -0.0521654517
 C    0.6674731249   -0.9556931769   -1.0968055661
 C    0.0589849195   -1.8998691619   -0.0360963815
 C    0.5889707784   -0.9430219095    1.0808660646
 C   -0.4489973675   -0.9403254152    2.1899866643
 O   -1.6581219473   -0.9475781628    1.4201043650
 C   -1.1864432923   -0.9642495376    0.0732660087
 C   -2.3514551850   -0.9801863865   -0.8787391979
 H    1.0352183164    1.9254655001   -0.0069075482
 H   -0.4631416036    1.8995661568   -0.9479137504
 H   -0.5325339378    1.8870626277    0.8193361058
 H    0.2263443045   -0.9664883905   -2.0973566558
 H    1.7591858764   -0.9492817835   -1.1599723253
 H    0.0682325891   -2.9906258084   -0.0161356628
 H    1.6500363327   -0.9334792879    1.3333164301
 H   -0.4034916010   -1.8280608564    2.8340153861
 H   -0.4083469137   -0.0459923855    2.8254473193
 H   -2.9752671183   -0.0934227985   -0.7296204726
 H   -2.0185576557   -0.9986708361   -1.9192148367
 H   -2.9748248791   -1.8613566692   -0.6990339688