15

 O   -0.1320590208    1.4018099088   -0.0353378968
 C    0.0663630339    0.0500512543   -0.0382134623
 C    0.0070342854   -0.7200309298   -1.1901693301
 N    0.1339220802   -2.0184260046   -0.7496870999
 C    0.6593778417   -3.3728258870   -0.9991888042
 C    0.7986556148   -3.5126551436    0.5642523673
 C    0.3509418078   -2.0619350397    0.5927394058
 C    0.3158822472   -0.7831577303    1.1030893491
 H   -0.0483841826    1.7173803842    0.8686197346
 H   -0.2141835840   -0.4408237115   -2.2058402570
 H   -0.0463185759   -4.0415220881   -1.5005303203
 H    1.6162224250   -3.3807323926   -1.5300109422
 H    0.1274644563   -4.2420026545    1.0263191570
 H    1.8196027435   -3.7050500755    0.9042390863
 H    0.4358524574   -0.4564856501    2.1249580628