17

 N   -0.0087967311   -1.0880777585    0.0552380072
 C   -0.0056369954    0.0676732918    0.0112879428
 C   -0.0122654268    1.5105132856   -0.0776478169
 C    0.6105296310    2.1075312565   -1.3371062460
 C    1.3344415345    2.2073783252   -0.0039957729
 C    1.3534473884    3.4974880573    0.7253936410
 C    0.2329029592    4.1136396221    1.0958030069
 C   -1.1302293191    3.5510920985    0.8087097029
 N   -1.1139452216    2.0929581373    0.6468519763
 H    1.0000215848    1.4279750815   -2.0865142385
 H    0.1606114316    3.0155332871   -1.7221978322
 H    2.2018500323    1.5690546353    0.1198834991
 H    2.3247980312    3.9322961128    0.9400521593
 H    0.2677085207    5.0724917113    1.6025667313
 H   -1.8082026551    3.7817216790    1.6393621017
 H   -1.5487926231    4.0710472824   -0.0737341173
 H   -1.9920321517    1.7750495549    0.2536366553