15

 C   -0.0332102063    1.3590944255    0.0739866306
 O    0.0267766955   -0.0724819563    0.0040162298
 C    0.6117046782   -0.5608029920   -1.1062596747
 O    1.0630658762    0.1186033736   -1.9965805726
 C    0.6278514235   -2.0011851635   -1.0915440937
 C    0.6854795797   -3.2096406299   -1.1640066673
 C    0.7409380858   -4.5628968523   -1.2276465658
 C    0.7909241728   -5.7713518468   -1.2851756425
 C    0.8499486445   -7.2186145942   -1.3535999394
 H    0.9717894289    1.7880137113    0.0532791617
 H   -0.6048138338    1.7619876621   -0.7658772429
 H   -0.5275951206    1.5852589840    1.0183276239
 H    1.4354354804   -7.5513295466   -2.2176584773
 H    1.3119259566   -7.6354733736   -0.4517671533
 H   -0.1547217611   -7.6468240913   -1.4424542764