18

 N   -0.0522688748    1.3841185974    0.3369149639
 C    0.1078349671    0.1005614171   -0.0769369551
 O    1.1578607314   -0.3353634352   -0.5063604303
 C   -1.1798865374   -0.7682207798   -0.0374790561
 C   -0.8383227571   -2.2788240572   -0.0288289721
 C   -0.4667472966   -2.8186028121   -1.4145692551
 O   -0.2092517022   -4.2139751236   -1.3824112895
 C   -2.0698857289   -0.3952369462    1.0584510908
 C   -2.7928566888   -0.0844623194    1.9685590423
 H    0.7677601429    1.9674746082    0.3758073612
 H   -0.8711808494    1.6553024867    0.8555740282
 H   -1.7019415007   -0.5404277124   -0.9803251841
 H   -0.0099958208   -2.4497366907    0.6670061230
 H   -1.7012369301   -2.8382152508    0.3426474465
 H   -1.3154625388   -2.6885751565   -2.0976205891
 H    0.3817690126   -2.2554494623   -1.8182451572
 H    0.6420371446   -4.3414221460   -0.9522327861
 H   -3.4400291429    0.1713005630    2.7710459487