19

 C   -0.0532299793    1.5682172866    0.3013555783
 C    0.0374909831    0.0733462519   -0.0375212750
 C   -1.3095777908   -0.5569448155   -0.1879684284
 O   -2.1088747757   -0.8173566963    0.9685937638
 C   -1.8469776732   -1.8946100847    0.0664914361
 C   -2.8195991297   -1.7553384827   -1.1821740152
 C   -3.2949216919   -2.8550357433   -2.0702274977
 O   -3.6392262409   -0.6079167364   -0.9565953410
 C   -2.3022418342   -0.4063158436   -1.4208616005
 H    0.9440567880    2.0052280051    0.4047595592
 H   -0.5834895581    2.1215310934   -0.4806897593
 H   -0.5930754296    1.7172427827    1.2406746280
 H    0.5998517761   -0.0674129432   -0.9697017490
 H    0.5847273691   -0.4590969771    0.7481879772
 H   -1.3869241635   -2.7960177148    0.4555993713
 H   -4.0337097565   -3.4789843406   -1.5545242541
 H   -3.7603876908   -2.4450409850   -2.9703602863
 H   -2.4615760477   -3.4997767211   -2.3693114826
 H   -2.1507910144    0.1570428445   -2.3346796248