17

 C   -0.3356115900    1.0780901862   -0.5266019828
 O    0.6164854252    1.5225428667    0.4387785087
 C    0.4121800651    0.1103657367    0.2880657863
 C   -0.1955462278   -0.5954425073    1.4424966235
 C   -1.3933161786   -0.2182211747    2.3419709315
 C   -0.9255405767   -1.5646522604    2.9376243073
 C   -0.5209842993   -2.1271742965    1.5401963030
 O    0.8263575567   -2.5133625624    1.9403084454
 C    0.5729903393   -1.2584979515    2.6408719863
 H   -1.3765025588    1.2908315884   -0.2874326436
 H   -0.0563672941    1.2318200665   -1.5681239980
 H    1.2481134482   -0.4161503677   -0.1741339355
 H   -1.2660181145    0.6671749204    2.9691886012
 H   -2.3790378699   -0.2138303803    1.8679134262
 H   -1.3195178934   -2.1339487430    3.7784006453
 H   -1.0711698441   -2.7696602622    0.8523675514
 H    1.3507607026   -0.8454135991    3.2824562339