14

 N   -0.0276285287    1.3091947950    0.1268818479
 C   -0.0533339431   -0.0516946213    0.0501088847
 N   -1.2017118173   -0.6844830038    0.0318607535
 N   -1.1275927834   -2.0282338306    0.0087855496
 C    0.0198283073   -2.7436051850   -0.0005391816
 C    1.2397477195   -2.1193583793   -0.0001251839
 O    2.4311844900   -2.7748910989   -0.0213308950
 C    1.2895684495   -0.6792299083    0.0138335538
 O    2.3070140809    0.0145280583   -0.0115038885
 H    0.8767677679    1.7037778612   -0.0903337081
 H   -0.8531264014    1.8171008521   -0.1424137330
 H   -2.0217160457   -2.4884053064    0.0025035105
 H   -0.0956692715   -3.8225363467   -0.0142067856
 H    2.2791679161   -3.7255615463   -0.0383679144