19

 O    0.6217785717    0.7695602076   -1.4272012746
 C    0.1346578504   -0.0210444110   -0.3730051023
 C    1.0993831543   -1.0334658471    0.1557271516
 C    0.7226139210    0.1678153416    1.0026277705
 C   -1.3151072954   -0.3924039660   -0.5823986058
 O   -1.9504484251   -1.0440766408    0.5547519816
 C   -3.0446843114   -0.1235259259    0.4782658275
 C   -2.6114743678    1.2762934442    0.7677018049
 C   -2.4003871234    0.6915818812   -0.6179748520
 H    0.2214514705    1.6426293366   -1.3411915852
 H    0.7103584905   -2.0013994076    0.4514631160
 H    2.0837227763   -1.0437394558   -0.2975200937
 H    1.4622595929    0.9532391438    1.1121278249
 H    0.0900253202   -0.0091316316    1.8635296254
 H   -1.3951312901   -1.0397355075   -1.4655150564
 H   -4.0453001617   -0.5192338619    0.6045836635
 H   -3.4169173319    2.0029758342    0.8175219826
 H   -1.7799995814    1.4659749331    1.4370349992
 H   -2.8312196796    1.1166360230   -1.5138551477