16

 O   -0.8211764319    1.2622047129   -0.1339927332
 C    0.3294704199    0.9032475997   -0.0261837258
 C    1.4737483381    1.8167638518    0.0277358154
 C    1.4494308207    3.1971125228    0.7435222007
 C    1.7027485524    3.1099437243   -0.7326890201
 C    3.1859354533    2.8577276373   -0.3844063395
 C    2.9508583710    3.2476371328    1.1164647225
 C    3.3496841504    1.8024792948    1.4675564552
 N    2.9052203971    1.4090642549    0.0770837751
 H    0.6110540770   -0.1716012243    0.0304917762
 H    0.5715248631    3.5395542995    1.2727255968
 H    1.1699295438    3.4901809756   -1.5927797129
 H    4.0726205695    3.0548281641   -0.9821415090
 H    3.3430017729    4.1402087450    1.6018505624
 H    4.4312399220    1.6638167024    1.5539515602
 H    2.8353322307    1.2863648663    2.2834997360