18

 C    0.0503266571    1.5720959259    0.0100571646
 C    0.0047820618    0.0420982386    0.0023051187
 C   -1.4230454898   -0.5117049270    0.0128756444
 C   -1.4563750564   -2.0533149321    0.0048912014
 C   -2.7997334974   -2.6110804539    0.0146395447
 C   -3.9188211335   -3.0673527607    0.0229664780
 C   -5.2640939166   -3.5769057174    0.0330171786
 O   -5.5569498446   -4.7512388815    0.0295026668
 H    1.0812268455    1.9385958925    0.0022482104
 H   -0.4579194864    1.9881724963   -0.8667068814
 H   -0.4411712415    1.9787208221    0.9006945505
 H    0.5340140706   -0.3370910574   -0.8820157204
 H    0.5506444067   -0.3464770811    0.8723265059
 H   -1.9590054324   -0.1483774227    0.8977290916
 H   -1.9756650971   -0.1389541890   -0.8576995704
 H   -0.9233543160   -2.4329933257   -0.8775277287
 H   -0.9066839647   -2.4424675532    0.8728499995
 H   -6.0457695054   -2.7894858636    0.0447096157