19

 O   -0.5381061646    0.2130528825    0.3918437735
 C   -0.2670245606    1.3598506076    0.1618807923
 C    1.1438702818    1.9116276904    0.0007827827
 C    1.6593656196    2.5503054421    1.3284941831
 C    2.5822635898    1.3180519673    1.3738487770
 O    2.1394166623    0.8773968700    0.0711173783
 C    1.2352394324    2.7407043175   -1.2607151910
 C    2.5723890177    3.0050267743   -1.9002098493
 C    1.5919102228    2.0704321254   -2.5643493257
 H   -1.0584558133    2.1429668401    0.0705839413
 H    2.1691820198    3.5025086482    1.1761580546
 H    0.9339449276    2.6461206782    2.1384673518
 H    3.6587296229    1.5179766116    1.3912127700
 H    2.3362678277    0.5827945550    2.1480231167
 H    0.5021974373    3.5423942955   -1.3050097227
 H    2.7423321537    3.9809389414   -2.3408483160
 H    3.4413832761    2.5502885343   -1.4391364202
 H    1.8229766794    1.0121863121   -2.5260266973
 H    1.0839181475    2.3971278465   -3.4643973593