15

 C   -0.3740292100    1.3415336154    0.2478259521
 N   -0.0987682153   -0.0818474168    0.1323872212
 C   -0.0539118291   -0.7511265627   -1.0951447663
 O   -0.2314767006   -0.2544150329   -2.1793500192
 C    0.2619066444   -2.1976261936   -0.7071002720
 N    0.3717912414   -2.2210312493    0.7484629254
 C    0.1586993075   -1.0116397274    1.1327543937
 C    0.1976327174   -0.6814122978    2.5833353539
 O    0.0118424459    0.4182913775    3.0414881463
 H    0.4608469773    1.8672004956    0.7153930011
 H   -0.5204615795    1.7072967277   -0.7703029997
 H   -1.2729216597    1.5217570443    0.8406729795
 H   -0.5265587835   -2.8771365994   -1.0496424985
 H    1.1941364451   -2.5347646313   -1.1740338168
 H    0.4198162587   -1.5714229193    3.2026974394