17

 O    0.0206899723    1.4381242331    0.1059054025
 C    0.0262801530    0.0266748088   -0.0725857814
 C   -1.3567480382   -0.5443019313   -0.0680565124
 C   -2.1099771383   -1.0167535189    1.1714181102
 C   -1.9251721615   -1.9438382543    0.0150712943
 O   -2.9066343467   -1.6996799182   -0.9960185300
 C   -2.3890433951   -0.3712165477   -1.2041433332
 C   -3.3613890660    0.7648588299   -1.0089745358
 O   -4.4657885610    0.6617029367   -0.5428659310
 H   -0.3861359181    1.6213083583    0.9598130459
 H    0.5078652171   -0.1392715016   -1.0425830026
 H    0.6404321532   -0.4786983711    0.6891081418
 H   -1.4689692437   -1.2072413847    2.0278030995
 H   -3.1055799387   -0.6483918676    1.3994463307
 H   -1.4583234104   -2.9212440455    0.0427631067
 H   -1.9041398921   -0.2858663932   -2.1868612819
 H   -2.9287632562    1.7514658173   -1.2957475235