19

 C   -0.2390908658    1.5184077950    0.0161584433
 C   -0.1379141287    0.0007750662   -0.1513530622
 C    1.0633585224   -0.4297622172   -1.0057474632
 C    1.1484712505   -1.9299963438   -1.1483566799
 O    0.1831556190   -2.5676549310   -1.9977245808
 C    1.5660569654   -2.6553830160   -2.3608793021
 C    1.9881896968   -2.0137442365   -3.6580274970
 H    0.6554127837    1.9258604706    0.5009102653
 H   -0.3446873979    2.0179352248   -0.9534171228
 H   -1.1036998476    1.7945607423    0.6276128483
 H   -0.0692936743   -0.4752214487    0.8357856587
 H   -1.0522644388   -0.3870477853   -0.6153044669
 H    0.9953760449    0.0414507387   -1.9915012439
 H    1.9936664779   -0.0696112429   -0.5444649612
 H    1.2922828082   -2.4534525554   -0.1986309307
 H    1.9893563979   -3.6506116976   -2.2028035856
 H    1.5444758429   -1.0251207186   -3.7887499275
 H    3.0787885992   -1.9175979127   -3.6993996360
 H    1.6764384241   -2.6366485718   -4.5031352657