14

 C   -0.3044653567    1.3452039902   -0.0316430013
 O    0.1270577207   -0.0079680427    0.1163216183
 C    0.7163989187   -0.5135817983   -1.0010415316
 C   -0.0654977339   -1.0252028446   -2.2309301002
 C    0.8558321725   -1.9283476974   -1.4862811571
 O    2.2164174917   -1.6738541691   -1.9412062169
 C    2.1763802927   -0.3888799374   -1.4031370911
 O    3.0638974382    0.3928828093   -1.3166231006
 H    0.5431753390    2.0076248464   -0.2407407065
 H   -1.0430608110    1.4366238117   -0.8386032332
 H   -0.7634028244    1.6288784055    0.9166128782
 H   -1.1233763347   -1.1533624590   -2.0182263170
 H    0.1849054574   -0.7136454344   -3.2398361221
 H    0.6546345799   -2.8786210003   -1.0144275188