19

 C    0.0205881370    1.3651985892   -0.2045275906
 O   -0.1047439687   -0.0358834213   -0.1294448176
 C    0.7469481684   -0.6983375304   -1.0135213171
 C    0.5533676653   -2.1996371856   -0.8717534596
 O   -0.1923502350   -2.7529593798   -0.1144135432
 O    1.3830291436   -2.8245128008   -1.7420223803
 C    1.3300865150   -4.2410306330   -1.7479214419
 C    0.6772074571   -4.9097258949   -2.9190816448
 C    2.1877138851   -4.9042994739   -2.7730156761
 H    1.0392944195    1.6993047926    0.0488921081
 H   -0.2248202166    1.7449077648   -1.2091039700
 H   -0.6811996670    1.7901555016    0.5161442212
 H    0.5535367297   -0.4224554825   -2.0645134303
 H    1.8089242505   -0.4671732854   -0.8218545939
 H    1.2170688494   -4.6657712587   -0.7586442801
 H    0.1304325602   -5.8291396722   -2.7437540482
 H    0.2536893993   -4.2640374180   -3.6797409804
 H    2.7459436080   -4.2552732053   -3.4379746033
 H    2.6963725295   -5.8218175462   -2.5001475120