14

 C   -0.4376942609    1.4016030372    0.2213264327
 C    0.3952842221    0.1670695237   -0.1690185843
 C    1.0710985750   -0.4498849302    0.9672016999
 C    1.6163580339   -0.9433482441    1.9188628070
 C    2.2859832554   -1.5496150618    3.0668944132
 C    1.4467753313   -2.5262340424    3.7754347082
 N    0.7974449914   -3.2953727942    4.3409928674
 H    0.1951436855    2.1727738045    0.6685985584
 H   -0.9245906715    1.8244565145   -0.6620528868
 H   -1.2103593986    1.1349916902    0.9471154252
 H   -0.2516363159   -0.5787505444   -0.6476622146
 H    1.1416288551    0.4474688861   -0.9229853476
 H    3.2074914514   -2.0575060043    2.7536860915
 H    2.5929911758   -0.7801802548    3.7872601999