12

 N   -0.0558546842    1.3582614623   -0.3376947476
 C   -0.0624098223    0.2033899268    0.1584098317
 O    0.9603723558   -0.2668375447    0.9552422738
 N    1.3496419568   -1.7261806710    0.7901396553
 N    0.5547470847   -2.5253399026    1.2308799078
 C   -0.7368241203   -2.1921593489    1.7462407169
 N   -1.5837942159   -1.4459334556    1.1777429594
 C   -1.2484053934   -0.7119996705    0.0200333652
 N   -1.9165148732   -0.7490210049   -1.0562374271
 H    0.8369256251    1.8254871351   -0.1654526253
 H   -0.9916903523   -2.7677634954    2.6324949728
 H   -2.7099674107   -1.3879663605   -0.9517925030