18

 N   -0.2166903790   -1.1587401064    0.2220541336
 C   -0.1418799199   -0.0070120160    0.1364659291
 C   -0.0403445823    1.4207159127    0.0245692112
 C    0.5192746265    2.2276400307    1.1872817739
 C    1.3323311693    2.0863182446   -0.0652024644
 C    2.5921761788    1.2664931033   -0.0860632770
 C    3.1894249867    0.9003184320   -1.4667696131
 O    4.4313811199    1.5638669539   -1.1569808539
 C    3.9290368385    2.0232926076    0.1116201550
 H   -0.8412330739    1.8740138198   -0.5492474572
 H    0.0368903751    3.1739513970    1.4019085940
 H    0.8346849351    1.6691413596    2.0613183452
 H    1.3497551678    2.9528272430   -0.7218985969
 H    2.4915932248    0.4001621419    0.5713087666
 H    3.3282221970   -0.1681260886   -1.6644762854
 H    2.6808487277    1.3587325260   -2.3259481948
 H    3.8387166053    3.1179118814    0.1487290548
 H    4.5537936726    1.6915533373    0.9491603991