17

 C   -0.0955189813    1.5604761688   -0.0265820811
 C   -0.0498654428    0.0358604223   -0.0396522541
 O    0.5059254352   -0.4784698560   -1.2371537628
 C    0.7139072708   -0.5155269698    1.1978639330
 O    0.1563309670   -0.0287039610    2.4157917894
 C    0.7812905255   -1.9746564509    1.1799801608
 C    0.7836749425   -3.1849917949    1.2061204051
 C    0.7913773513   -4.5450855803    1.2317734663
 C    0.7967755544   -5.7523273304    1.2570722925
 H    0.9183716415    1.9765218620   -0.0948093457
 H   -0.6731721998    1.9254604950   -0.8796178831
 H   -0.5440542684    1.9283113986    0.8985332712
 H   -1.0694953775   -0.3671841900   -0.0031324686
 H    1.3543609670   -0.0449105995   -1.3831768463
 H    1.7345151959   -0.1072163077    1.1672110552
 H   -0.6174317355   -0.5671344910    2.6166772127
 H    0.8031244542   -6.8138588855    1.2763313854