16

 C   -0.0661569783    1.4854255473   -0.1220184365
 O    1.1155757650    2.1568701286    0.3382596004
 C    2.1860861725    1.3302544285    0.6581673924
 O    2.0103025353    0.7642351054    1.9927100576
 C    0.9643391135   -0.0709183147    2.1965518499
 N    0.0450262054   -0.4684162841    1.4202365652
 C    0.0443473313   -0.0374445217    0.0100266640
 C    1.3231634553   -0.4766491396   -0.6732513126
 C    2.4059678481    0.2222722577   -0.3405378213
 H   -0.9031705664    1.8558714395    0.4789213393
 H   -0.2361270680    1.7557980913   -1.1723256486
 H    3.0542991457    1.9778755878    0.7803848740
 H    0.9839069637   -0.4203254753    3.2283135209
 H   -0.8341614877   -0.4834372461   -0.4635594574
 H    1.3341580685   -1.3155411408   -1.3605114803
 H    3.4051387859    0.0291090662   -0.7127570870