16

 O   -0.0506273536    0.0368925365   -0.1304670897
 C   -0.0847081076    1.2254000624   -0.0083682005
 C   -1.1681856115    2.2606543061   -0.0794847818
 C   -1.0565868522    3.1664716588    1.1417665571
 C   -0.0859488269    3.3650933986    0.0306601323
 C    1.0346822392    2.3131578605    0.0844955544
 C    2.0312686777    2.3370110143    1.2530595189
 C    3.0024154683    1.2462695060    1.1923628789
 N    3.7863666866    0.3996461411    1.1372117985
 H   -2.0737105470    2.2200504046   -0.6705888170
 H   -1.8538461408    3.8986451444    1.2151960184
 H   -0.7503020690    2.7583986261    2.1002363819
 H   -0.0410932505    4.2774026176   -0.5489097756
 H    1.5842097729    2.2798055177   -0.8630130620
 H    2.5823690443    3.2854362707    1.2454003105
 H    1.5099591402    2.2865654843    2.2145517056