20

 O    0.1086798454    1.3009577462    0.7665778899
 C    0.0759116296   -0.0296102422    0.3687806370
 C    0.0596103226   -0.4237257211   -1.0859578956
 C   -1.1044472766   -0.8124514567   -0.2129884527
 C   -0.7160831172   -2.0466244401    0.6091184413
 C    0.3773534685   -1.1927440514    1.3318098921
 N    1.6902301811   -1.7793755929    1.5471965850
 C    2.7988429527   -1.4367411609    0.6618887583
 C    2.7389753350   -0.8982607129    2.0488470458
 H    0.8491802098    1.7334322596    0.3296727431
 H   -0.1309361993    0.4120208254   -1.7531342123
 H    0.7210017136   -1.1847123556   -1.4938683010
 H   -2.1098951328   -0.4641101956   -0.4091243024
 H   -1.4876868550   -2.4180288025    1.2855559555
 H   -0.3257015679   -2.8831501076    0.0219537303
 H   -0.0035063363   -0.9043682172    2.3170327165
 H    3.4722003327   -2.2533842884    0.4155764109
 H    2.6237185220   -0.7315098001   -0.1455943426
 H    2.5044240093    0.1591718927    2.1593538334
 H    3.3709701630   -1.3093796486    2.8317894676