18

 O    0.3830356313    1.5536860959    0.2025153807
 C    0.0510556603    0.1913513759   -0.0749638845
 C    0.5936589240   -0.2594712469   -1.4433383582
 C    0.0656554763    0.6282392509   -2.5781848169
 N    0.5859082669    0.2519306994   -3.8843857944
 C    0.0669964636   -0.7783190461   -4.6008340563
 O   -0.8671075454   -1.4664198673   -4.2443732295
 C    0.5019022976   -0.6997902239    0.9956966035
 C    0.9224118565   -1.4143616706    1.8662012064
 H    1.2957346229    1.5693289004    0.5114077411
 H   -1.0458685696    0.1760260690   -0.1127930329
 H    1.6901709972   -0.2320370249   -1.4188358547
 H    0.2957475154   -1.2959084199   -1.6278184865
 H   -1.0253543336    0.5513652845   -2.6225170363
 H    0.3221920462    1.6721847791   -2.3865618812
 H    1.3876716354    0.7362430422   -4.2537041506
 H    0.5917658544   -0.9196201384   -5.5670544245
 H    1.2715160807   -2.0497508592    2.6425575749