21

 C    0.2031398090    1.4030288615   -0.0945845778
 C   -0.0205375354   -0.0977495138   -0.3013824983
 C   -1.4255447838   -0.5982054623    0.1098578695
 C   -2.5374062231    0.0030403488   -0.7569463325
 C   -1.4229507387   -2.1201230409    0.1085029375
 C   -2.4768679929   -2.9684227660   -0.4998989777
 O   -1.2309278215   -2.7949067773   -1.1518414997
 C   -0.6704150782   -2.8027843750    1.2166997241
 O   -0.3270552766   -2.2725118450    2.2418232053
 H    1.2360077797    1.6733969814   -0.3346882614
 H   -0.4472880412    2.0124519801   -0.7291592204
 H    0.0195334904    1.6895133517    0.9469207452
 H    0.1510737500   -0.3637956854   -1.3516022176
 H    0.7278460087   -0.6434295641    0.2833613039
 H   -1.5882404756   -0.3068825996    1.1552190653
 H   -2.4762263861    1.0935935305   -0.7633224244
 H   -2.4547034933   -0.3423377147   -1.7933074856
 H   -3.5306276068   -0.2618881599   -0.3821712909
 H   -2.6649447304   -3.9671163552   -0.1053043119
 H   -3.3307092675   -2.4848599944   -0.9665697686
 H   -0.4577418668   -3.8737749005    0.9993950262