21

 C   -0.1290924706    1.5062182898   -0.0970748315
 C   -0.0568944347    0.0522946901   -0.0537743445
 C    0.0064136449   -1.1497390403   -0.0084636017
 C    0.0697259538   -2.6115304186    0.0178205410
 C   -1.3248017388   -3.2148225969    0.2819935999
 C    0.7104568274   -3.1386216290   -1.2898932370
 C    0.9820413375   -4.6530981886   -1.2869416655
 C    1.8119015959   -5.0650283049   -2.4820215157
 O    1.4955378887   -5.8978421983   -3.2912292588
 H    0.4826437619    1.9595122812    0.6908638886
 H    0.2284001580    1.8945866729   -1.0572176037
 H   -1.1575685037    1.8585600850    0.0391290684
 H    0.7278799878   -2.9103495045    0.8474287039
 H   -1.7519907014   -2.8023206359    1.1993711776
 H   -2.0063636757   -2.9817429432   -0.5421276278
 H   -1.2715781979   -4.3017550677    0.3900242458
 H    0.0598438455   -2.8805474811   -2.1336966690
 H    1.6531333327   -2.6023297589   -1.4498935641
 H    1.5569709559   -4.9125202111   -0.3848413724
 H    0.0629440460   -5.2437611482   -1.2878255043
 H    2.7801857468   -4.5170874920   -2.5738666693