21

 O   -0.3591180333    1.4995907982    0.8225788222
 C   -0.0551445485    0.2478430217    0.2087806287
 C    0.7528955719   -0.6491149556    1.1589533885
 C   -0.2860006082   -1.0995653408    2.2078255404
 C   -1.6088165846   -1.2301892931    1.4158347538
 C   -2.8293984789   -0.4628030511    1.9514295313
 O   -3.5884297902   -0.1206977725    0.8041738142
 C   -2.6641905801    0.2714468630   -0.2112858156
 C   -1.3709088005   -0.5370243021    0.0362737127
 H    0.4724063140    1.9303963138    1.0434951876
 H    0.4568689552    0.4117227507   -0.7504425435
 H    1.1356033378   -1.5124266051    0.6005286977
 H    1.6194711690   -0.1331970884    1.5889496602
 H    0.0036000253   -2.0284563575    2.7054143940
 H   -0.3850065837   -0.3334507857    2.9834376373
 H   -1.8812126496   -2.2786540594    1.2693486435
 H   -3.4738460729   -1.0499066576    2.6120808556
 H   -2.4997023654    0.4399557911    2.4910665109
 H   -3.1301062277    0.0502916847   -1.1755945957
 H   -2.4617936484    1.3472526962   -0.1536696520
 H   -1.2174555912   -1.2811793203   -0.7495714120