19

 C    0.0582628906    1.5651204383    0.2270839721
 C    0.0079654172    0.0704834813   -0.0060000405
 C    0.4742234307   -0.6025341907   -1.2721439893
 C    1.1001787193    0.1501073269   -2.4364063367
 O    2.2614205558   -0.4986820569   -2.9195723061
 C    1.3196335702   -0.7248332588   -0.0131044496
 O    2.5307940493   -0.0322631988    0.0027193818
 C    1.3740543531   -1.9948097087    0.7280588227
 O    2.3708978839   -2.3356567420    1.3292052077
 H    1.0180915895    1.9889427251   -0.0714586375
 H   -0.7382456299    2.0757432797   -0.3239991410
 H   -0.0782403535    1.7821035062    1.2909937464
 H   -0.8209805960   -0.4291867051    0.4904843121
 H   -0.0590810259   -1.5048965262   -1.5606805934
 H    0.3904684168    0.1801246375   -3.2694715906
 H    1.3117989542    1.1884082488   -2.1529578019
 H    2.9005494274   -0.4534864845   -2.1974158365
 H    3.0864305623   -0.5370135938    0.6208376305
 H    0.4514924748   -2.6092561383    0.7185712800