18

 C   -0.0463237896    1.5818781249   -0.1238647785
 C    1.4300334556    2.0020685657   -0.2839932484
 C    2.2005458577    0.7153017921    0.0505331463
 O    1.3665124424   -0.3321819142   -0.3188502096
 C    0.0213937134    0.0393504210    0.0294262819
 C   -0.2805904538   -0.4480967723    1.4454599338
 N    0.5189439328    0.0859864280    2.5282942201
 C    1.7053673142    0.5070180529    2.4529225491
 O    2.5924473861    0.6760780478    1.4327023303
 H   -0.5046777314    2.0381278921    0.7562042657
 H   -0.6414693666    1.8650402047   -0.9938678299
 H    1.6505712357    2.2808176096   -1.3175354086
 H    1.7305369752    2.8286008931    0.3613397325
 H    3.1468244945    0.6051599281   -0.4808050179
 H   -0.6370945869   -0.4793833947   -0.6737157738
 H   -1.3356159453   -0.2442727874    1.6710325826
 H   -0.1687503092   -1.5408360803    1.4614631316
 H    2.2139531752    0.7933073589    3.3742374028