19

 C   -0.0279065562    1.5254183200   -0.0641035636
 C    0.0177223832    0.0039274851    0.0074115770
 O    0.5035967595   -0.4379549412   -1.2562648164
 C    0.9360323070   -1.7788495710   -1.3383707031
 C    1.9309625246   -2.1105758714   -0.2336749318
 O    2.8822760896   -1.0180573594   -0.0570957445
 C    2.3229848281   -0.7414864252    1.2254096497
 C    1.3778250832   -1.9135819317    1.1859521938
 C    0.8297602366   -0.5069734947    1.1902760703
 H    0.9833242979    1.9271795439   -0.1724840377
 H   -0.6220627294    1.8436191641   -0.9248926606
 H   -0.4780381278    1.9411034473    0.8428346491
 H   -1.0097768742   -0.3818579300    0.1455710218
 H    0.0943912919   -2.4923152825   -1.2832369894
 H    1.3996464546   -1.8747056733   -2.3252733820
 H    2.4472855085   -3.0589705763   -0.4090717357
 H    2.9884671014   -0.3649899545    1.9936416432
 H    1.1454316502   -2.6869198189    1.9053593538
 H    0.4295304714   -0.1969436303    2.1535439862