20

 C    0.2946520017    1.3431206213   -0.7523183800
 C   -0.0411105245    0.0317189617   -0.0432411922
 C   -1.4431654525   -0.4620518247   -0.4870059235
 O   -2.4292483181   -0.3870949007    0.5260481419
 C    1.1320266599   -1.0027813516    0.1174066723
 N    1.7933968555    0.0042388937    1.0369075658
 C    0.3373978920   -0.0533675877    1.4798038076
 C    0.4427092964   -1.5948183908    1.3937449440
 O   -0.7412617034   -2.3633643509    1.3770337218
 H    1.2653091175    1.7365891525   -0.4546580075
 H    0.2934425046    1.1947643704   -1.8388089450
 H   -0.4768132631    2.0890685531   -0.5291070594
 H   -1.7964310440    0.1896490111   -1.2919573779
 H   -1.3779040400   -1.4761450574   -0.9033059772
 H   -2.2552858044   -1.1396769458    1.1047721043
 H    1.6964287222   -1.5214308412   -0.6614489216
 H    2.3765136819   -0.4863737022    1.7231938032
 H   -0.0367652832    0.5545744440    2.3041421419
 H    1.1582569864   -2.0243951493    2.1087624665
 H   -0.5239538449   -3.2720204555    1.1467067250