17

 C   -0.1975732078    1.4142731854    0.0078832993
 N   -0.0186811505   -0.0225153707    0.0327479033
 N    0.1838613746   -0.7381775529   -1.0632307818
 N    0.3005273273   -1.9810210841   -0.6700650013
 C    0.1610583002   -1.9729423454    0.6818040608
 N   -0.0421674460   -0.7430550116    1.1508983491
 C    0.2257142565   -3.1715027010    1.5268258480
 C   -0.3137246808   -4.4881992377    1.0000050791
 C    1.1650601931   -4.3021480210    1.1507712215
 H    0.5832909430    1.8955776938    0.6007183504
 H   -0.1305498333    1.7316153648   -1.0319360922
 H   -1.1754129448    1.6735381836    0.4195659222
 H    0.0919571049   -2.9631849123    2.5814292934
 H   -0.8349781017   -5.1281854054    1.7028670350
 H   -0.7219976363   -4.4774144324   -0.0037907466
 H    1.7492754816   -4.1664964682    0.2481647160
 H    1.6769318602   -4.8121553249    1.9589673538