18

 C   -0.0260849892    1.3904419833   -0.0839047159
 N    0.0122490892   -0.0448005501    0.0524426539
 C   -1.1604373662   -0.8808737940   -0.0098102320
 C   -0.5821025656   -2.2937981899   -0.0105638904
 O   -1.1847847110   -3.3410850959   -0.0098384019
 N    0.7876700199   -2.1349905724   -0.0170489714
 C    1.7172785070   -3.2420056688   -0.0274597030
 C    1.1745545180   -0.7775079355   -0.0133229216
 N    2.3464381071   -0.2804750285   -0.0550820082
 H    0.9971164788    1.7612614759   -0.0190245028
 H   -0.4550200618    1.6952208490   -1.0489791159
 H   -0.6244823546    1.8417001453    0.7164301888
 H   -1.8321771151   -0.7476862068    0.8482748546
 H   -1.7537744006   -0.7238372555   -0.9228170084
 H    1.1252696061   -4.1581886979   -0.0169233996
 H    2.3404139070   -3.2235148007   -0.9277414811
 H    2.3657227167   -3.2176252491    0.8543670327
 H    3.0625289243   -0.9995836285   -0.0862300476