18

 C    0.0062015916    1.4930882176    0.0977837293
 C    0.0676652756    0.0023186337    0.0645218452
 C   -0.7651951533   -0.9621080496    0.8535514600
 C    0.7418191468   -1.0665544099    0.9189670249
 C    1.2524656977   -1.6267806752   -0.4058950371
 O    0.5104977983   -0.6246067518   -1.1493106879
 N    1.4664967732   -0.9854912140    2.1302523243
 C    1.1990368958   -1.7350686366    3.2460813279
 O    0.2986699892   -2.5327739482    3.3604245096
 H    0.9553084564    1.9343426419   -0.2227724902
 H   -0.7798910504    1.8586287472   -0.5722112156
 H   -0.2242374568    1.8432200946    1.1080733253
 H   -1.2136825645   -0.5654691033    1.7577948182
 H   -1.3414950543   -1.7336618132    0.3513075451
 H    2.3321243004   -1.4953014989   -0.5506226884
 H    0.9636285280   -2.6502872668   -0.6710911710
 H    2.2862412566   -0.3970762021    2.1607633983
 H    1.9174612497   -1.5065213455    4.0598278721