17

 C    0.0853522593    1.5394146214   -0.0060479877
 C   -0.0053872735    0.0159210230   -0.0133387482
 O   -1.3537948197   -0.4293266163    0.1194767464
 C    0.6765512080   -0.6521325446   -1.2376018195
 C    1.2073850168   -1.9968937989   -0.7252242840
 O    1.3643597605   -3.0055128408   -1.3609924305
 C    1.4281371179   -1.8380991708    0.7581948937
 O    2.1207938039   -0.6018554776    1.0483590239
 C    0.7084521658   -0.6246589220    1.1783774937
 H    1.1292219226    1.8644524564    0.0214502639
 H   -0.3758369771    1.9610532232   -0.9069116367
 H   -0.4336183871    1.9453180648    0.8673799508
 H   -1.8795115976   -0.0049058338   -0.5667270846
 H   -0.0206191862   -0.8083974276   -2.0631497232
 H    1.5180413439   -0.0572370163   -1.6065337604
 H    1.6485110867   -2.6851106413    1.3984411634
 H    0.3009731560   -0.5029042986    2.1785474790