20

 C    0.2170881433    1.0328336315   -0.4877132439
 N    0.0295091036   -0.1254265541    0.3851894760
 C    0.5379649452    0.0934412265    1.7388378347
 C   -1.2332863353   -0.7067574479    0.3218867263
 C   -1.6465460176   -1.9240282919   -0.1320807865
 C   -0.7745759628   -2.9939379486   -0.7085225470
 C   -3.0716953155   -1.9534530160    0.0603673402
 C   -3.4120674924   -0.7613305189    0.6120774041
 O   -2.3171054440    0.0191715064    0.7838317776
 H    1.2838471153    1.2753239913   -0.5413133145
 H   -0.1331954699    0.7892320222   -1.4935694972
 H   -0.3216020229    1.9287826855   -0.1383795177
 H    0.0254529638    0.9151695322    2.2651831338
 H    0.4160136199   -0.8210763026    2.3241262367
 H    1.6054730156    0.3334433344    1.6890143197
 H   -0.8345631232   -3.9210390778   -0.1266747620
 H   -1.0651032172   -3.2418608557   -1.7360416788
 H    0.2667710523   -2.6629317588   -0.7180391295
 H   -3.7432860678   -2.7624447054   -0.1841588592
 H   -4.3501515807   -0.3334862324    0.9273598669