14

 N    0.0375907270    1.3904173427    0.2929229967
 C    0.1380043376    0.0844264623   -0.0488108564
 O    1.1522093006   -0.4816028996   -0.3863830561
 C   -1.2223426038   -0.6669256240   -0.0008029591
 O   -2.2405066778    0.0631728987    0.6943172683
 C   -1.7932865967   -0.7951184116   -1.4448593070
 O   -1.2364972496   -0.4354191246   -2.4386900133
 C   -1.0635937770   -2.0086494229    0.5413546563
 C   -1.0108714796   -3.1161049371    1.0051514191
 H    0.8495351086    1.9778035637    0.2028772193
 H   -0.8559198276    1.7822460353    0.5357511074
 H   -2.2930093377   -0.2841310195    1.5917050871
 H   -2.8112652688   -1.2368187157   -1.4362394702
 H   -0.9307543052   -4.0949279277    1.4112582177