11

 C    0.0263647900    1.4355580213    0.0987046388
 N    0.3393522679    0.0154937414    0.1188662380
 C    0.6574030752   -0.5640704152   -0.9348154129
 O    0.9680939608   -1.9141591751   -0.9889000320
 C    1.2526138949   -2.1506566846   -2.2823091661
 N    1.1703230421   -1.1492275877   -3.0689351594
 O    0.7791752463   -0.0812898703   -2.2148728778
 H    0.7031458867    1.9590116014    0.7821736295
 H    0.0998286637    1.9007162892   -0.8909014391
 H   -0.9901071304    1.5815011235    0.4790318900
 H    1.5283104629   -3.1514480938   -2.5756797290