19

 C   -0.0868625691    1.4046060922   -0.0106841968
 C   -0.0022848119   -0.0883478738    0.0732600852
 C    0.2037908187   -1.0011107616   -1.1724777085
 C    0.9517026528   -2.1845951082   -0.5237168188
 C    1.9513204125   -1.5857980167    0.4978630035
 C    0.6893127582   -0.9661361001    1.1468000473
 C   -0.1851898617   -2.1467996821    0.5719160176
 C   -1.0187679634   -1.1327463537   -0.2854333042
 O   -2.3609082296   -0.9651645650   -0.5189816845
 H    0.9064512976    1.8593638745   -0.1051610046
 H   -0.6796733177    1.7124114201   -0.8783046163
 H   -0.5652765838    1.8280627359    0.8797786341
 H    0.3035444059   -0.5749475208   -2.1630945408
 H    1.1843062088   -3.0593889066   -1.1309538487
 H    2.3904684863   -2.3610283976    1.1340947912
 H    2.7379325924   -0.9180568550    0.1319098929
 H    0.6591484663   -0.6362555287    2.1853665103
 H   -0.5291772434   -3.0033029475    1.1468008538
 H   -2.6448699488   -1.6266016952   -1.1603729128