19

 C   -0.0378481315    1.4989414146    0.0209638674
 N   -0.0503040376    0.0530221230    0.1253995933
 C   -1.3040496108   -0.6196579217    0.5207001894
 C   -0.4533542111   -1.6840175665    1.2542950496
 O   -0.1844992296   -2.8517303107    0.5154257696
 C    0.6733197177   -0.6050180537    1.2295428971
 C    2.1026827598   -1.0749799638    0.9387983995
 C    3.0285647613    0.0349418399    0.7289633930
 N    3.7457867514    0.9272588555    0.5686442850
 H    0.9782579679    1.8504811844   -0.1747163214
 H   -0.6728925875    1.8109889179   -0.8145116380
 H   -0.4073216210    1.9948960037    0.9377544680
 H   -1.9198630724   -0.0271295843    1.2172508098
 H   -1.9342572278   -0.9676890251   -0.3057951855
 H   -0.7899989773   -2.0095261854    2.2387686177
 H   -0.0744426579   -2.5959701644   -0.4076316834
 H    0.6617401178   -0.0094712886    2.1580783032
 H    2.4629349595   -1.6809054859    1.7782764232
 H    2.1079192091   -1.7185818088    0.0547956826