19

 C    0.0219450339    1.5114734847   -0.0115564856
 C    0.0267215341    0.0558646183    0.0314719138
 C    0.0428891499   -1.1477074827    0.0674947980
 C    0.0278157153   -2.6051065066    0.1103573208
 C   -1.3865907499   -3.1917220714   -0.0594873405
 C   -1.3847826540   -4.7292402967    0.0348594118
 O   -0.8271221573   -5.1881371821    1.2655829639
 C   -2.7282803715   -5.2722284626   -0.1834588901
 C   -3.8461303859   -5.6924731936   -0.3220016735
 H    0.6438970045    1.8887595771   -0.8310566053
 H   -0.9907583456    1.9029124915   -0.1599548999
 H    0.4078708092    1.9405824183    0.9199361870
 H    0.6812924762   -3.0066870053   -0.6765836226
 H    0.4440171746   -2.9638521330    1.0584033625
 H   -2.0523187727   -2.7873287061    0.7116733056
 H   -1.8057358118   -2.8933458240   -1.0258785216
 H   -0.7107114532   -5.1266081045   -0.7351016044
 H   -1.4833974734   -5.0336237712    1.9545487733
 H   -4.8264731725   -6.0783056601   -0.4571450433