22

 C    0.9979379883   -0.1016012336    1.2736099005
 C    0.0639433862    0.0719004327    0.0697502925
 C    0.6485446541   -0.4898833308   -1.2309620601
 C    0.7308338084   -2.0151968202   -1.3182665695
 C   -0.5141036609   -2.5061632523   -1.9773845348
 C   -1.3725311192   -1.2918433621   -2.3101999664
 C   -0.1951596715   -0.3138310734   -2.5227122088
 C    0.6538895259   -1.1458118375   -3.5013467330
 N    0.7561234252   -2.4233357784   -2.7473285509
 H    1.1938174440   -1.1583832196    1.4821757990
 H    1.9638316887    0.3852589466    1.0984714876
 H    0.5630478795    0.3379713812    2.1765098108
 H   -0.8979628818   -0.4046319280    0.2895272918
 H   -0.1454828142    1.1401446433   -0.0710083136
 H    1.6425927308   -0.0461598273   -1.3800043277
 H    1.3171356573   -2.6144705872   -0.6323628891
 H   -0.9258231613   -3.4951304854   -1.8170145980
 H   -1.9686064053   -1.4304673098   -3.2180860972
 H   -2.0462026553   -1.0087112724   -1.4976468124
 H   -0.4425225308    0.7070610856   -2.8110974890
 H    0.1703520059   -1.3204467995   -4.4674674512
 H    1.6530436162   -0.7348940919   -3.6751032006