21

 O    0.1716862920    1.4283613178   -0.0509237877
 C    0.0787631756    0.0087631648   -0.0121550976
 C    0.7556137099   -0.5737715075    1.2478951471
 C    0.0995292533   -0.0872025463    2.5645775906
 C   -1.4014892435    0.0890276694    2.4690752426
 C   -2.0348108550   -0.1668078357    1.3302869563
 C   -3.3580315497    0.1576285473    0.6676598626
 C   -2.5536168635    0.2758929919   -0.6748428577
 C   -1.3721843999   -0.4845632969    0.0053515858
 H   -0.3433117111    1.7670234101    0.6912303804
 H    0.6072575116   -0.3303658060   -0.9091024145
 H    0.6982566659   -1.6674095316    1.1895409032
 H    1.8169717136   -0.3077593199    1.2492748284
 H    0.3565988315   -0.7797360392    3.3763135205
 H    0.5427606586    0.8734853719    2.8646030941
 H   -1.9213826131    0.4898792711    3.3369865661
 H   -4.0452394439   -0.6959634530    0.6502449242
 H   -3.9063953343    1.0354145189    1.0208721022
 H   -2.9971050991   -0.1805433889   -1.5620759034
 H   -2.2765926812    1.3084640401   -0.8964500422
 H   -1.4022567477   -1.5538730984   -0.2372046009