18

 C   -0.8143462958    1.2800272901   -0.1024107307
 C   -0.0062995134   -0.0093345419   -0.0991430655
 C    1.4042221614   -0.0387794891   -0.7787320097
 C    1.9755223487   -0.7453495027    0.4686845204
 O    2.6118140550    0.1773933545    1.3882188509
 C    1.4167972462    0.2711310436    2.1878138550
 C    1.0217812869    1.6499377366    2.4901336261
 N    0.7240246650    2.7295806967    2.7757533852
 C    0.6093776418   -0.6146171077    1.2025872495
 H   -0.2364590053    2.1342124520    0.2559305812
 H   -1.1460315213    1.5059794460   -1.1216975747
 H   -1.7075395072    1.1933496418    0.5254978152
 H   -0.6198555616   -0.8055690342   -0.5348259426
 H    1.4556407399   -0.6054259676   -1.7113844470
 H    1.8629394825    0.9413037954   -0.9308005404
 H    2.5456345846   -1.6694090483    0.3557456897
 H    1.5586063904   -0.2383002163    3.1514157770
 H    0.0700755319   -1.4363709588    1.6713849204