15

 C    0.0179893604    1.4101910648    0.0089425091
 N    0.0267306575   -0.0449259349    0.0045188224
 C   -1.0893051128   -0.6381468771    0.0110230957
 C   -1.2742529585   -2.1444069357    0.0078434489
 O   -2.6949071723   -2.3474628221    0.0177643496
 C   -3.3413352192   -1.1462532308    0.0262855883
 N   -4.5863174222   -0.9460803451    0.0362528629
 N   -2.3817207901   -0.1447056170    0.0220959180
 H    1.0456364003    1.7799276582    0.0010195878
 H   -0.4918733467    1.8259045978   -0.8737517226
 H   -0.4761770779    1.8204103514    0.9030456041
 H   -0.8449386352   -2.6034500227   -0.8874132313
 H   -0.8317260519   -2.6088224170    0.8938510094
 H   -5.0903143326   -1.8301334646    0.0373792531
 H   -2.6473779390    0.8247100548    0.0273085946