21

 C   -0.1608249227    1.3983189379   -0.0369951274
 O    0.0673668843    0.0067882105    0.0098212650
 C    0.7120704034   -0.5242554455   -1.1306291010
 C   -0.1071096102   -0.5324201889   -2.4571131880
 C    0.2796814625   -2.0266565866   -2.6375614746
 C    0.7862476205   -2.0796557342   -1.1641229079
 C    2.2535283988   -2.4825884601   -0.9444052728
 C    2.9860441882   -1.1742199027   -1.1466780377
 C    2.1674433708   -0.1276489890   -1.2575332390
 H    0.7741184387    1.9773029348   -0.0294200550
 H   -0.7408876939    1.6910858972   -0.9250526972
 H   -0.7352350298    1.6587023031    0.8555813638
 H   -1.1732198738   -0.4042324233   -2.2489176715
 H    0.1903338787    0.1625767304   -3.2463924401
 H   -0.5336887755   -2.7079378669   -2.8948350716
 H    1.0907850109   -2.1688236307   -3.3566404340
 H    0.0794197934   -2.5577349879   -0.4850069634
 H    2.4424773997   -2.8906911438    0.0576288389
 H    2.5760826311   -3.2529690720   -1.6565313097
 H    4.0693861544   -1.1184827064   -1.1898785565
 H    2.4864189205    0.8978446940   -1.4088788004