18

 O    0.0827174883    1.4354044336    0.3255226508
 C    0.0431516867    0.0593185663    0.0442342122
 C   -1.4047380208   -0.5014305391   -0.0449406306
 C   -2.1025429989   -0.1090194997   -1.3561088038
 O   -2.0602816263    1.3168370328   -1.4798515847
 C   -2.8482549037    1.8794502013   -2.4214267729
 N   -2.7357521576    3.1086771686   -2.6726890036
 C   -1.4140243298   -1.9555545729    0.0707453883
 C   -1.3944867244   -3.1555243697    0.1373760799
 H   -0.4282639636    1.8875282978   -0.3569530315
 H    0.5778884539   -0.1982388162   -0.8853321065
 H    0.5595499021   -0.4443940582    0.8659248158
 H   -1.9644599346   -0.0606717027    0.7900555142
 H   -1.5806580123   -0.5680750999   -2.2052268802
 H   -3.1420401087   -0.4578390239   -1.3560319919
 H   -3.5481577903    1.1697461122   -2.8824403522
 H   -3.4106819717    3.3876957771   -3.3813887983
 H   -1.3835063585   -4.2146113272    0.2165199351