13

 C   -0.0327215380    1.4434487489    0.0652200366
 N   -0.0113060767   -0.0087406696    0.0294480758
 C   -0.0292176004   -0.8066220083   -1.0665990997
 N    0.0006030853   -2.0912765577   -0.7651024494
 C    0.0400981611   -2.1387882292    0.5945433875
 C    0.0343292123   -0.8610554466    1.1235509265
 C    0.0643680734   -0.3909568623    2.4515385020
 N    0.0882995079    0.0114327740    3.5387647750
 H    0.8690998352    1.8295852073    0.5472792486
 H   -0.0778640941    1.8161882978   -0.9589276492
 H   -0.9070327803    1.8010572204    0.6150417061
 H   -0.0645874467   -0.3938393448   -2.0643560885
 H    0.0707788909   -3.0699005398    1.1391102686