19

 C   -0.1852353336    1.5175979107   -0.0585220424
 C   -0.0171294136    0.0318460894    0.0160660132
 C    0.1964245857   -0.8277413782   -1.0130255969
 O    0.2999760984   -2.1138073725   -0.5626069431
 C    0.1486158004   -2.0772849982    0.7922028046
 C   -0.0476031887   -0.7923021131    1.1968592924
 C    0.2213028664   -3.3524670918    1.5140487656
 C   -0.3222993061   -4.6286496089    0.8994456165
 C    1.1607705654   -4.4536033342    1.0594231456
 H    0.5810421496    2.0380367933    0.5273709326
 H   -0.1136789101    1.8726074819   -1.0904385412
 H   -1.1585280935    1.8316391466    0.3357024480
 H    0.2963442342   -0.6952061848   -2.0779006378
 H   -0.1970822645   -0.4621324788    2.2137624618
 H    0.0921080161   -3.2363259960    2.5844754405
 H   -0.8386989971   -5.3217527623    1.5541264882
 H   -0.7333427498   -4.5529640179   -0.1004090920
 H    1.7442353653   -4.2605527166    0.1668467297
 H    1.6732276756   -5.0252829986    1.8250845347