18

 C   -0.0375325571    1.7476549316    0.2016260972
 C   -0.0760409265    0.2312802096   -0.0175592039
 C    0.7167965400   -0.5412999553    1.0677308177
 C    2.1372152944   -0.2172777554    1.0908205495
 C    3.3069507496    0.0608815292    1.0876420830
 C   -1.5031197631   -0.2717738724   -0.0428730432
 C   -2.2358890324   -0.5031333303   -1.2929479777
 O   -1.7092816973   -1.5971741983   -0.5379355398
 H    0.9946061162    2.1052433088    0.2331633293
 H   -0.5617333919    2.2747731756   -0.6014545043
 H   -0.5159171817    2.0205294380    1.1498382216
 H    0.3782435656   -0.0052958273   -0.9870062210
 H    0.2773024936   -0.3329290961    2.0532236027
 H    0.5867008689   -1.6153998856    0.8908682601
 H    4.3424049882    0.2951799418    1.0966477142
 H   -2.0889564278   -0.0419111735    0.8511492475
 H   -3.3221423595   -0.4270452984   -1.3111184658
 H   -1.7415635492   -0.3133544520   -2.2450722870