18

 C   -0.0777890711    1.5154436986    0.0394791578
 C    0.0518321471    0.0066998637    0.0316111053
 C   -1.0622842608   -0.7287977905   -0.6932937394
 C   -1.1480479415   -2.2423920172   -0.4820809962
 O   -1.7124376184   -2.9533688248   -1.2900457878
 C   -0.5809183025   -2.7759371311    0.7703929445
 C    0.2240814738   -2.0421882801    1.5554381600
 C    0.6821890545   -0.6830111403    1.2030863754
 N    1.4307843181   -0.4783477046   -0.0731066320
 H    0.7782773338    1.9703021533    0.5431525578
 H   -0.1108405976    1.9039437325   -0.9846062266
 H   -0.9951194366    1.8280901606    0.5495831741
 H   -2.0283438620   -0.3261132310   -0.3571626573
 H   -1.0198803146   -0.5396774287   -1.7714288887
 H   -0.8444884344   -3.7998005916    1.0137253615
 H    0.5992694989   -2.4598350915    2.4867323518
 H    1.0702533322   -0.0842686830    2.0221437236
 H    1.4658791009   -1.3656591944   -0.5729325539