16

 O    0.2284515632    1.2023633308   -0.7428765424
 C    0.0533536206   -0.1853403413   -0.5996781604
 C   -1.0825022616   -0.4746912371    0.4004606101
 O   -2.2589951052    0.2333701987   -0.0050873881
 C   -1.3206031491   -1.9072911637    0.5577633687
 C   -1.5144553006   -3.0925095238    0.6278120665
 C   -1.7522974731   -4.5296068877    0.7390731593
 C   -1.9947018292   -5.1722016161   -0.5595990043
 N   -2.1890797245   -5.6839106691   -1.5759685951
 H   -0.6588845395    1.5688383934   -0.8521588160
 H   -0.1869104869   -0.6778510034   -1.5572862918
 H    0.9942312532   -0.6071402817   -0.2332330078
 H   -0.8077476358   -0.0302718553    1.3639050409
 H   -2.6724363944   -0.2712922567   -0.7157679567
 H   -0.8926937656   -5.0214794016    1.2121773233
 H   -2.6144586515   -4.7283441451    1.3885274938