14

 O    0.0018944933   -0.0170032572   -0.1158140471
 C    0.0241576808    1.1888617158   -0.0038181436
 N   -1.0705825527    1.9994512745    0.1987308092
 C   -0.8303740317    3.4235992500    0.0364718248
 C    0.6940736734    3.5160888638    0.0119860012
 C    1.4251783718    2.9488138211    1.1910881506
 C    1.2245756572    2.0990295925   -0.0487988979
 H   -1.9931279985    1.5969288358    0.2296537561
 H   -1.2562105735    3.8015846652   -0.9035383192
 H   -1.2688845925    4.0026224451    0.8590945513
 H    1.1459561892    4.3174858797   -0.5585615656
 H    2.4310325866    3.3109283307    1.3721097113
 H    0.8678904440    2.6920254849    2.0865730041
 H    2.0738320426    1.7869518481   -0.6409539253