19

 C   -0.0359380338    1.5299713955    0.0371466489
 N   -0.0487466606    0.0868213252    0.1012139699
 C   -1.3006880138   -0.6006879894    0.4789565512
 C   -0.4590546704   -1.6044014010    1.3045102041
 C    0.6996416109   -0.5901723475    1.1793389133
 C    1.8972161581   -1.4081617633    0.7062212751
 O    1.3526075046   -2.6254427903    0.1717054434
 C    0.0421418063   -2.7983724665    0.5252347728
 N   -0.6492993795   -3.8135524790    0.2323936179
 H    0.9793522391    1.8860509630   -0.1680614340
 H   -0.6789697169    1.8693215538   -0.7814834852
 H   -0.3871905965    2.0118528213    0.9698023100
 H   -1.9526759870    0.0073067795    1.1257501379
 H   -1.8862201645   -1.0004041479   -0.3540116852
 H   -0.8398844305   -1.8886524261    2.2833045132
 H    0.9134693483    0.0373943023    2.0543391415
 H    2.4590633750   -0.9085126702   -0.0875405731
 H    2.5762769912   -1.6569665825    1.5313485797
 H   -0.0928185599   -4.4856796369   -0.2987732815