17

 O    0.4738013012    0.7604782141   -0.0306670334
 C   -0.3235100775   -0.2816040665   -0.5528300907
 C   -1.6702921524   -0.3730427676    0.1767511980
 O   -1.3637307165   -0.5531692756    1.5537976944
 C   -2.3301006995   -1.2669777126    2.3087597464
 C   -3.6260338132   -0.5952833678    2.4167115428
 C   -4.6918616618   -0.0446665617    2.4900381887
 C   -2.4739744913    0.9094112179   -0.0565384706
 O   -3.0344942386    1.1422698290   -1.0944935534
 H    0.5625407116    0.5896400076    0.9141254537
 H   -0.5051281016   -0.0572299210   -1.6076030454
 H    0.1801686907   -1.2575660052   -0.4827455748
 H   -2.2423341713   -1.2210236055   -0.2257983231
 H   -2.4765798646   -2.2720612965    1.8831080695
 H   -1.8902221865   -1.3945554338    3.3031621208
 H   -5.6336069149    0.4430780555    2.5556310958
 H   -2.4659216238    1.6182896498    0.7968923713