17

 N    0.3385739885   -1.2928487198   -0.2763089404
 C    0.1604291644   -0.1580045049   -0.1471790997
 C   -0.0616300208    1.2734422355    0.0111403394
 C   -0.2508151268    1.7727765303    1.4732523470
 O    0.7674097476    2.7712731425    1.3033130573
 C    1.2200017813    2.1661188858    0.0771765195
 C   -1.0762820338    1.7665594168   -1.0142104585
 C   -2.5144374919    1.9119301637   -0.6875617048
 N   -1.6696139753    3.0996298901   -0.9014022723
 H   -1.2222484833    2.2075482956    1.7297323994
 H    0.0185237521    1.0215233425    2.2246644936
 H    2.1512852284    1.6039241320    0.2104182860
 H    1.3277334576    2.8943055403   -0.7316785214
 H   -0.8013614149    1.4965824676   -2.0319149433
 H   -3.2620736103    1.7352495685   -1.4545941804
 H   -2.8394972724    1.6708053052    0.3213031848
 H   -1.4181780002    3.5376456884   -0.0178562363