16

 C    0.2771704217    0.9728374115    0.7592018537
 C   -0.2618311449    0.3929559794   -0.5615175904
 C   -1.5299242208   -0.3089447742   -0.3983031218
 C   -2.5732942528   -0.8831195503   -0.2336240200
 C   -3.8518673610   -1.5837662492   -0.0576465423
 C   -3.6810962970   -2.9749705277    0.3860605047
 C   -3.5479253141   -4.1162901852    0.7284402394
 C   -4.7359545232   -0.8447032408    0.8727607346
 N   -5.4358862045   -0.2618786349    1.5816825712
 H    1.2259417508    1.4881166127    0.5850155766
 H   -0.4307704410    1.6868016195    1.1877737518
 H    0.4437277485    0.1796631098    1.4925778605
 H   -0.3890420373    1.1981325344   -1.2958405635
 H    0.4749422393   -0.2966956899   -0.9921196958
 H   -4.3769053657   -1.6002660151   -1.0255783883
 H   -3.4260432479   -5.1248410600    1.0393720597