17

 C    0.0020941520    1.5388954304    0.0791994326
 C    0.0031996592    0.0101344240    0.0048812190
 O    0.6670034210   -0.4634681839    1.1651960677
 C   -1.3972718700   -0.4809033508   -0.0180532635
 N   -2.4898187208   -0.8566130621   -0.0277086931
 C    0.7405558506   -0.5151980396   -1.2745680485
 N    2.0817339500    0.0740473598   -1.3116659192
 C    0.7411911397   -1.9858144672   -1.2659282002
 C    0.7931314351   -3.1867152893   -1.2087106006
 H    1.0308843801    1.8971159945    0.0715069263
 H   -0.5282207038    1.9626734471   -0.7768918868
 H   -0.4954809671    1.8556425582    0.9977670804
 H    0.6577047248   -1.4300782831    1.1341090425
 H    0.1858877477   -0.1588876786   -2.1503534370
 H    2.5905564142   -0.2379938877   -0.4883765046
 H    2.5831542631   -0.2827243833   -2.1189814857
 H    0.8207495644   -4.2488799286   -1.1886337991