15

 O   -0.0359182494   -0.0041458131    0.0023784093
 C    0.0416123997    1.1994505761    0.0056992873
 C    1.3205871347    1.9616593759   -0.0002556939
 C    2.7679409359    1.4014383984   -0.0177084139
 C    2.9170572538    2.9525169065   -0.0059752755
 C    1.7828405098    3.0103392971   -1.0698655181
 C    1.8021433720    2.9921005200    1.0788009388
 H   -0.8751037674    1.8354990243    0.0146749211
 H    3.0914862418    0.8675506825    0.8785173797
 H    3.0755265405    0.8826695347   -0.9283400828
 H    3.8458460819    3.5230314961   -0.0094839506
 H    2.0112366232    2.6110522369   -2.0612412743
 H    1.2079005261    3.9381089927   -1.1286006606
 H    1.2283796689    3.9185840037    1.1635174911
 H    2.0479758185    2.5759303881    2.0589835922