20

 C   -0.1144152279    1.6953237346   -0.0012516692
 C    0.0201914607    0.1811654351    0.0144154206
 C    1.1246592962   -0.5608121415   -0.8059744603
 C    2.4359361328    0.0373607572   -0.2622906159
 C    2.1028566378    0.0234995862    1.2677214265
 C    0.6864904559   -0.5790214272    1.2067296259
 C    0.9224625445   -1.7561800736    0.1933208054
 C   -0.2262001166   -2.6061773909   -0.0644373826
 N   -1.1274787727   -3.3026088780   -0.2669491031
 H    0.8249421899    2.2139731307    0.2085107594
 H   -0.4697191534    2.0382188313   -0.9790333095
 H   -0.8461541677    2.0226120739    0.7452779190
 H   -0.9523960964   -0.2703039025   -0.2013975279
 H    1.0392843368   -0.7146544675   -1.8814165682
 H    3.3033083865   -0.5802089970   -0.5106074544
 H    2.6237461882    1.0413189167   -0.6499565482
 H    2.7908287723   -0.6015697133    1.8433704912
 H    2.1088037171    1.0198770536    1.7157004941
 H    0.1623971138   -0.7511035684    2.1465408401
 H    1.7988695921   -2.3845535493    0.3784336370