23

 C   -0.0451622261    1.5037825297    0.0773606954
 C   -0.0142306239    0.0013592023    0.0385773301
 C   -1.2630016463   -0.8925110065   -0.0505974176
 C   -0.6580928253   -1.8582571325    1.0283200330
 C   -1.3632855497   -1.6746119377    2.3762334732
 C   -0.5640489666   -3.3437457728    0.6770284428
 C    0.6429611249   -1.0282326012    1.0020424492
 C    1.1916035893   -0.7919337501   -0.3671170587
 O    1.1821277200   -1.7968165521   -1.3472535082
 H    0.9451257227    1.9174468986    0.2958203004
 H   -0.3734208966    1.9208526754   -0.8835061987
 H   -0.7359193236    1.8718312062    0.8449138629
 H   -2.1759487986   -0.3961691283    0.2887577472
 H   -1.4459880426   -1.3339697949   -1.0348464404
 H   -2.3763788429   -2.0914396272    2.3442623346
 H   -0.8163915350   -2.1866984959    3.1767413003
 H   -1.4400291808   -0.6166868427    2.6493022124
 H   -0.0756849602   -3.4927853501   -0.2859905835
 H    0.0089997102   -3.8852656147    1.4392388830
 H   -1.5639027403   -3.7934576903    0.6390672720
 H    1.2562433240   -0.8496045596    1.8809804752
 H    2.1150241649   -0.2083067177   -0.3550915988
 H    1.0764616425   -1.3709350378   -2.2046366959