17

 O   -0.1071104128    1.3271439917    0.7673400689
 C   -0.0324579650    0.1683860348   -0.0558833326
 C   -1.3524560633   -0.4369380705   -0.1719046528
 C   -2.4295981954   -0.9596308164   -0.2804181053
 C   -3.7323562072   -1.5904885912   -0.3932821611
 C   -3.7353592840   -3.1013577406   -0.0885216816
 O   -2.7478011449   -3.7822544460   -0.1103455341
 C   -5.1218215644   -3.6549791417    0.2288727995
 O   -5.0738177142   -5.0543992165    0.2757008614
 H    0.7840426881    1.6841436501    0.8383155520
 H    0.3392073839    0.4189464328   -1.0629891473
 H    0.6633912312   -0.5759280666    0.3638409686
 H   -4.4624134117   -1.0902858898    0.2573669158
 H   -4.1312084109   -1.4790639328   -1.4130484433
 H   -5.4309248863   -3.2050452282    1.1897463445
 H   -5.8264279402   -3.2733787192   -0.5313396693
 H   -5.9447201531   -5.3759584699    0.5261925767