15

 O   -0.0287236934    0.1011256565   -0.7414583011
 C    0.0092451138    1.1069474247   -0.1025803834
 O   -1.1207455694    1.6410364214    0.4319854835
 C   -1.1664944997    2.9882881003    0.8740926108
 C   -0.5864680175    3.4109624844    2.1874719106
 C    0.6168723674    2.5234947445    2.5032793643
 C    1.1775057478    2.8347102947    1.0781904561
 O    1.1729926291    1.7496216513    0.1428342765
 C    0.0520563142    3.8324278173    0.8388009996
 H   -2.1078474099    3.4369084590    0.5805680078
 H   -1.1457331057    4.0137518358    2.8914098676
 H    1.2615744951    2.9414635133    3.2786113360
 H    0.4156385966    1.4728637417    2.7287080886
 H    2.1937570219    3.2221193488    1.0592218466
 H    0.1206460799    4.7846072764    0.3298240165