17

 C   -0.0607582184   -1.2290455811   -0.0938760776
 C   -0.0389687449   -0.0309222099   -0.0071086010
 C    0.0051318796    1.4243280575    0.0494277890
 O   -0.5575807308    1.8966748685    1.2905172521
 C    0.1819549988    3.0445778250    1.6565276857
 C    1.6523576734    2.9020182391    1.9936164307
 C    2.1908833452    1.6325164304    1.3335271359
 C    1.4212972385    2.0319281518    0.0335533080
 C    1.1835401760    3.4443971031    0.6330598834
 H   -0.0893288632   -2.2886217573   -0.1601095169
 H   -0.5820499900    1.8343141397   -0.7884654851
 H   -0.4077361649    3.7780517900    2.1926998785
 H    2.1024415582    3.4419019285    2.8191183659
 H    3.2716228979    1.6839938871    1.1840500917
 H    1.9291457783    0.6708750541    1.7843983628
 H    1.9411666777    1.9281489127   -0.9169158948
 H    1.2890392384    4.4085121408    0.1541710516