21

 C   -0.9547300498    1.3806652649    0.0248661068
 C   -0.1486698090    0.0920302075   -0.0051797952
 O   -0.9975265506   -1.0360615143   -0.1981189618
 C    1.1059669857    0.0375513211   -0.9326521838
 C    1.9321762832   -0.6166731418    0.2126474025
 C    3.1861869829    0.1470545182    0.6827180483
 C    2.6330749641    1.1076267285    1.7118043795
 C    1.3482526151    0.8826483342    1.9938167266
 C    0.7741018064   -0.2614806915    1.2055349894
 H   -0.3195190859    2.2403608635    0.2559528342
 H   -1.4230195583    1.5640360270   -0.9509420101
 H   -1.7494840594    1.3188579607    0.7753104660
 H   -1.4555604550   -0.9175263809   -1.0377234921
 H    0.9725826126   -0.5566101770   -1.8405428500
 H    1.4803095656    1.0280164197   -1.2091121282
 H    2.1050860487   -1.6818567589    0.0598437086
 H    3.9395593521   -0.5161959850    1.1297110973
 H    3.6886569384    0.6631359148   -0.1464834827
 H    3.2429425441    1.8767197361    2.1749244903
 H    0.7674170134    1.4436161306    2.7186832217
 H    0.3490747756   -1.0525130373    1.8308114325