20

 C   -0.0972459041    1.6065090153    0.0630162475
 C    0.0248936461    0.0912792347    0.0018855626
 C    0.8217040694   -0.6107743533   -1.1622229664
 C    2.2267851814   -0.0008448334   -1.0025199947
 N    2.3342833298    0.0288453960    0.4942012325
 C    3.5446637223   -0.5825842394    1.0219193158
 C    1.0752417735   -0.6356551259    0.9022351134
 C    0.9530295365   -1.7690051433   -0.1414512962
 O    0.8960747979   -2.9617686182   -0.1681119398
 H    0.8821460258    2.0866710496    0.0975176073
 H   -0.6482880405    1.9887693987   -0.8024714615
 H   -0.6456044505    1.9050305600    0.9624814816
 H   -0.9546035127   -0.3841309047    0.1143200382
 H    0.4223140379   -0.7453561388   -2.1651835307
 H    2.9930935846   -0.6411057063   -1.4579943658
 H    2.3258591733    1.0044807169   -1.4267118590
 H    4.4145350167   -0.0128130758    0.6801905945
 H    3.5274677948   -0.5425302429    2.1156478635
 H    3.6849086385   -1.6357910134    0.7191863921
 H    0.9675783593   -0.7627811959    1.9778374452