18

 O    0.3744336370    0.4365283772    1.5359455770
 C    0.4441652787    1.5959045798    1.2620749994
 O    0.6452664629    2.0266213141   -0.0030642773
 C    0.7605534128    3.4435417442   -0.2001099666
 C    2.1963655927    3.8794205837    0.0173803778
 C    2.6762399155    5.3525627134    0.0061281345
 C    2.0055016477    5.4673875516    1.3908951776
 N    2.6777571928    4.0804080747    1.4772610862
 C    3.8713978779    4.7950089180    0.8125497767
 H    0.3447357349    2.4221528442    1.9894920148
 H    0.4731656825    3.6149747949   -1.2412285545
 H    0.0418694601    3.9670996682    0.4372353270
 H    2.8412594230    3.1721853586   -0.5154552606
 H    2.6779755582    6.0667507562   -0.8245521806
 H    2.4247975911    6.1858179463    2.0995276438
 H    0.9175776211    5.4555104495    1.4652238117
 H    4.5639872539    4.1137900234    0.3119759697
 H    4.3943081473    5.4767016417    1.4873510635