17

 C   -0.3023792599    1.4790108145   -0.0199906905
 C    0.0094634498   -0.0136155470    0.0163331613
 C    1.1996236376   -0.4437183768   -0.8899403478
 C    2.1299356280   -0.4916814876    0.3644110027
 C    0.8432445015   -0.4660183315    1.2504895013
 C    3.0038408586   -1.7048655162    0.4973102912
 O    4.1918374928   -1.6979962115    0.6948736659
 H    0.6002548440    2.0808508823    0.1369892114
 H   -0.7301184054    1.7682513796   -0.9860881733
 H   -1.0216227706    1.7498544044    0.7605811925
 H   -0.9114767123   -0.5822165806   -0.1429327347
 H    1.0556841643   -1.4376331933   -1.3261212691
 H    1.4990084860    0.2430613571   -1.6853631973
 H    2.7448019134    0.4029007123    0.4761039520
 H    0.8664383542    0.2036049036    2.1136446783
 H    0.5691849380   -1.4680834396    1.5962832947
 H    2.4456508400   -2.6686418398    0.3948685415