15

 O   -0.1680920093    0.0191762775   -0.6566966140
 C   -0.0998037761    1.1596232427   -0.2574908713
 C   -1.2780108487    1.9272060100    0.3307955814
 N   -1.5365904252    3.1823107057   -0.3490147738
 C   -0.8103284130    4.3374317626   -0.1628862497
 O   -1.2721407620    5.4327375429   -0.4352978318
 C    0.5780124610    4.1829099599    0.3201961424
 C    1.3936110656    3.1214002286    0.1995978180
 N    1.1065446775    1.8429902012   -0.2542805044
 H   -2.1480276571    1.2800068098    0.2280486571
 H   -1.0908846810    2.0827461225    1.4036823861
 H   -2.4730368219    3.3462553860   -0.6875929963
 H    1.0139255451    5.1063520931    0.6800441808
 H    2.4403603763    3.2384514011    0.4652498135
 H    1.8862841387    1.2617051863   -0.5293419680