19

 O   -0.6352029125    1.4580534511   -0.7019139447
 C   -0.0548478953    0.3013879707   -0.1130498476
 C   -1.2066394354   -0.4959319125    0.4952057246
 C   -0.7868618632   -1.8095823220    1.1906206699
 C   -0.4810759267   -2.9321190129    0.2137352329
 O   -1.1737457897   -3.9176393600    0.1133417408
 C    0.7663775504   -2.8026320271   -0.6714358658
 O    1.4475053568   -1.5726702856   -0.6103965040
 C    0.7467340209   -0.4738050421   -1.1679618221
 H    0.0752066167    2.0405634879   -0.9896726711
 H    0.6425001086    0.5781551121    0.6947155025
 H   -1.7027497024    0.1472216552    1.2282076347
 H   -1.9474908401   -0.7015786117   -0.2872867739
 H    0.0963085324   -1.6267470940    1.8157410734
 H   -1.5973153360   -2.1657337878    1.8303110160
 H    1.4758502202   -3.5697561613   -0.3402633883
 H    0.4717763107   -3.0573294150   -1.7008565937
 H    0.0783350118   -0.7942913921   -1.9812727287
 H    1.5019451629    0.1927484872   -1.6041034150