18

 O   -0.0296589097    1.3460939492   -0.0979430685
 N    0.0663219667   -0.0559614435   -0.0479849743
 C   -1.0774635635   -0.6116224882    0.0723276161
 C   -2.3906932181    0.1225322845    0.1890250142
 C   -3.4399026002   -0.6854607294    0.9062669277
 C   -3.2299747285   -1.9010844947    1.4062787833
 C   -1.9197930713   -2.6423287288    1.2823326252
 O   -2.1180772558   -4.0342935701    1.0477938293
 C   -1.1104610539   -2.1141656703    0.0930137549
 H    0.8954933817    1.6070841342   -0.1511492916
 H   -2.2237961199    1.0778672395    0.6988719493
 H   -2.7463081144    0.3992317199   -0.8153197873
 H   -4.4092729176   -0.2085836572    1.0294569042
 H   -4.0255973944   -2.4166297200    1.9409839496
 H   -1.3324787790   -2.5023434871    2.2061868390
 H   -2.5631398318   -4.4064984343    1.8157641426
 H   -1.6138483051   -2.4805233795   -0.8119058409
 H   -0.0946431853   -2.5128617141    0.0987923474