21

 C    0.0366417322    1.5368395496   -0.1759495574
 C    0.0813815109    0.0388972292    0.0172386611
 N    1.4024122535   -0.6107673284   -0.0044209766
 C    0.6006152809   -0.6503629577    1.2321917996
 C    1.1520079054    0.0725494660    2.4457921573
 N    2.0615853753   -0.7439980345    3.2327389524
 C    3.3899837967   -1.0174523024    2.7061251539
 C    1.7057385497   -1.2176544473    4.4606316998
 O    2.3960051474   -1.9032045488    5.1859621604
 H    0.8929778258    2.0286003145    0.2899400210
 H    0.0568256440    1.7809054517   -1.2433425360
 H   -0.8815739311    1.9587949265    0.2467400186
 H   -0.7255203783   -0.4912604201   -0.4881600471
 H    1.3601627792   -1.5031705901   -0.4883315941
 H    0.1230563869   -1.5971550898    1.4840473199
 H    1.6701498391    0.9845668160    2.1301500477
 H    0.3214720834    0.3705243991    3.0961393903
 H    3.9394211964   -0.0815579453    2.5479539214
 H    3.9150486459   -1.6309630294    3.4381187165
 H    3.3342361796   -1.5420038587    1.7484953138
 H    0.6805886572   -0.8984636801    4.7372236974