18

 C   -0.1692722787    1.4082589424    0.0772539718
 N   -0.2028615585   -0.0437058541    0.1440296368
 C    0.5892472101   -0.6473504734    0.9131237050
 O    1.4874005545   -0.0316507110    1.7668416681
 C    2.4752991107   -0.9646138605    2.2221682304
 C    1.9260250914   -2.3541577505    1.9236066488
 O    2.8395597752   -3.3585423710    1.6275949129
 C    0.5709474350   -2.6610238941    2.4784011248
 C    0.7172927098   -2.1189586919    1.0569499556
 H    0.7602726579    1.8509464948    0.4536229321
 H   -0.3204526135    1.7185056383   -0.9615859508
 H   -1.0026566101    1.8229020389    0.6583760647
 H    3.4113166089   -0.8206636738    1.6685805134
 H    2.6541777772   -0.7710765414    3.2853351372
 H    3.0905037156   -3.7919090721    2.4503620298
 H    0.3028397183   -3.7098527951    2.5398347874
 H    0.1429040900   -2.0229442055    3.2453039124
 H    0.4568905860   -2.7537195401    0.2222715296