14

 C   -0.0363811590    1.4868421764    0.0305484354
 C   -0.0096779979   -0.0094826942    0.0088431655
 N   -0.0422936156   -0.5621495895   -1.1487573177
 O   -0.0161539378   -1.9897662729   -1.1539734043
 C    0.0394652019   -2.6444137424    0.0207341036
 O    0.0562705048   -3.9604849018   -0.1670547168
 N    0.0736647894   -2.1521044416    1.1956906326
 C    0.0513722105   -0.7628876884    1.2857987203
 N    0.0795399782   -0.1021566217    2.3776447439
 H    0.8524449119    1.8618470123    0.5453612360
 H   -0.0809946500    1.8825517471   -0.9847474525
 H   -0.8982042088    1.8296562956    0.6097031990
 H    0.0242632023   -4.1364080451   -1.1176385380
 H    0.1205724102   -0.7566895038    3.1624234831