20

 C   -0.2980066693    1.4629677706    0.0498889162
 C    0.0996349054   -0.0105090337    0.0613669967
 C    0.9345025778   -0.4752517212   -1.1535934455
 C    1.5195551759   -1.8367997355   -0.7232874347
 C    1.5580855436   -1.7535211963    0.7860312194
 N    2.0069435678   -2.5935145702    1.6295207524
 O    2.5574184135   -3.7170661686    0.9891089873
 C    0.9654073953   -0.4400729828    1.2604360630
 O    2.0025471721    0.5281963378    1.4312619280
 H    0.5879003139    2.1021890870    0.0612230904
 H   -0.8830160985    1.6975840501   -0.8454894681
 H   -0.9076101584    1.7180060119    0.9230918171
 H   -0.8085664848   -0.6285561785    0.1039243346
 H    0.3409491223   -0.5379974449   -2.0693483073
 H    1.7418303346    0.2427436429   -1.3296391040
 H    0.8736019563   -2.6738284096   -1.0168536815
 H    2.5062779784   -2.0542149874   -1.1419373911
 H    2.8326159376   -4.2633874200    1.7331984692
 H    0.3906924614   -0.5565473707    2.1878927928
 H    2.6511152351    0.1411912891    2.0290613849