25

 C   -0.2093323785    1.4438220377   -0.0245654344
 C    0.0324692279   -0.0615683472    0.0115503725
 C    1.2325339918   -0.5753719593   -0.8408049146
 C    2.1272788042   -0.3619416962    0.4163549888
 C    0.8275086748   -0.5904118437    1.2439845438
 C    0.5469410850   -2.0935752467    1.4072844573
 C    1.0701310404   -2.9055546972    0.1926269235
 C    0.3600310054   -4.2530305363    0.0449487405
 C    1.0375737181   -2.0753565814   -1.1181520955
 H    0.7063131086    2.0158590221    0.1573987839
 H   -0.6020911716    1.7534471637   -0.9997042369
 H   -0.9393790243    1.7409331266    0.7368675866
 H   -0.9156580814   -0.5818200006   -0.1764018145
 H    1.4791552712   -0.0212638039   -1.7515715008
 H    2.9730180750   -1.0358335992    0.5757998740
 H    2.4850634550    0.6664093252    0.4932834884
 H    0.7137025972   -0.0496872062    2.1884521194
 H    1.0135250071   -2.4807763072    2.3214978847
 H   -0.5352188963   -2.2404881640    1.5277606223
 H    2.1265427400   -3.1197204249    0.3963185337
 H   -0.7078211240   -4.1141446293   -0.1615134267
 H    0.7840495499   -4.8384132110   -0.7784486347
 H    0.4464975412   -4.8509466921    0.9589877638
 H    0.0796306025   -2.2176573241   -1.6370583351
 H    1.8135483510   -2.4510695549   -1.7964696499