17

 C    0.0493861161    1.5614805273   -0.0991199327
 C   -0.0696504435    0.0355952717    0.0610580213
 C    0.6582242253   -0.4861128265    1.2687554859
 C    0.0197006765   -0.9507319411    2.3629228860
 N    0.7380104960   -1.4101563741    3.4461781715
 C    2.1001150891   -1.3946211305    3.3996580520
 N    2.7984310694   -0.9814720277    2.4032795268
 C    2.1389046254   -0.4959475378    1.2515476256
 O    2.7739114293   -0.1085645948    0.2874103391
 H    1.0992400914    1.8486012316   -0.1836045095
 H   -0.4737664213    1.8929167673   -1.0012321467
 H   -0.3881383664    2.0835052048    0.7582963545
 H   -1.1256612672   -0.2548936246    0.1142583415
 H    0.3597069465   -0.4426620596   -0.8261126512
 H   -1.0596587262   -0.9927868314    2.4569009366
 H    0.2642791955   -1.7574503805    4.2640995524
 H    2.5938636343   -1.7708171642    4.2950183468