21

 O    0.0020218298    1.3949726762   -0.1823711600
 C    0.0108963005   -0.0183349478    0.0076862437
 C    0.6846924981   -0.4544481530    1.3366809762
 C   -0.3820422050   -0.5968771928    2.4281442710
 C   -1.3194301569    0.6480764242    2.4091990467
 C   -2.1684816432   -0.1211586127    1.3840789897
 C   -1.5962152116   -1.4736594366    1.9097592628
 C   -1.4622799796   -1.9873489214    0.4665802913
 C   -1.4412884569   -0.4926631746    0.0281785971
 H    0.9152446505    1.6988605624   -0.1820318325
 H    0.5272351566   -0.4969914887   -0.8398618063
 H    1.2143996022   -1.4032869487    1.1947634246
 H    1.4394238363    0.2870817183    1.6270981733
 H    0.0537322192   -0.8879729318    3.3867002000
 H   -1.8686898242    0.7510392678    3.3506669786
 H   -0.8878653941    1.6093686525    2.1257225895
 H   -3.2368581187    0.0755904903    1.2806812831
 H   -2.0875520293   -2.0778992774    2.6741902928
 H   -0.6118009832   -2.6184803152    0.1851135763
 H   -2.3837516700   -2.4857111053    0.1516089149
 H   -1.9538993105   -0.2181886458   -0.8953480129