19

 C   -0.6461222559    1.5791556174    0.1683214187
 C   -1.0962402084    0.1402508704    0.4388869120
 C   -1.3951102358   -0.6252317902   -0.8524821667
 O   -0.2681648208   -0.6373340873   -1.7317223765
 C   -1.8524607802   -2.0701653143   -0.6871155376
 N   -1.3584776005   -2.8510769500    0.4479260669
 C   -2.8118775965   -2.6298625301    0.3207324530
 C   -3.4739690675   -1.8649028098    1.3501984074
 N   -4.0557037037   -1.2798496880    2.1603045370
 H   -0.4039235575    2.0906900410    1.1040945050
 H    0.2357064232    1.6025080604   -0.4768441880
 H   -1.4360143920    2.1519583369   -0.3300016498
 H   -0.3275046858   -0.4073116589    0.9981209771
 H   -1.9859682343    0.1470765666    1.0748323054
 H   -2.1738648746   -0.0966161307   -1.4172224581
 H    0.4734013421   -1.0059726696   -1.2370601223
 H   -1.8977124289   -2.5747574181   -1.6516689400
 H   -1.1333949658   -3.8058362328    0.1823131935
 H   -3.4239500873   -3.4576866329   -0.0304429673