21

 C   -0.0872325149    1.5066029397    0.0051651974
 C    0.0292057443   -0.0269411498    0.0268147173
 C    0.6029721146   -0.5406527735   -1.2969279816
 O   -0.2050311239   -0.0338059804   -2.3509296013
 C    0.8433079794   -0.5257574972    1.2440121397
 C    1.0726928390   -2.0455275148    1.2639013002
 O    2.1486510682    0.0491584695    1.3120722019
 C    0.1140727005   -0.2113637072    2.5591573215
 O   -1.0750638138   -0.0950921735    2.6952691366
 H    0.8902592493    1.9850647628   -0.1413757035
 H   -0.7134269839    1.8158865273   -0.8323673678
 H   -0.5327542605    1.8890489664    0.9270479404
 H   -0.9808802143   -0.4355827955    0.1433259611
 H    1.6475643866   -0.2056278110   -1.3944979082
 H    0.6034536032   -1.6392682426   -1.3100465221
 H    0.1689276306   -0.3328422780   -3.1844310727
 H    1.7854192221   -2.3252379528    0.4849356749
 H    1.5001081011   -2.3504485368    2.2244157395
 H    0.1335473710   -2.5832729963    1.1120737681
 H    2.0589709337    1.0078318581    1.2824989144
 H    0.8214337977   -0.1231811445    3.4171885942