20

 C   -0.2949839032    1.2336007450   -0.0372062181
 N   -0.2098625434   -0.2101175578   -0.2104077093
 C    0.6365112700   -0.6827724687   -0.9981887601
 O    1.5812802525   -0.0494564858   -1.7970348890
 C    2.1004304072   -1.3291953725   -2.2651956908
 C    1.0380690390   -2.0856495595   -1.4292435631
 C    1.5044625680   -3.0375153483   -0.3613118095
 C    0.5322778800   -4.0022331635    0.2658246506
 C    1.6093968488   -4.5160583664   -0.6552623722
 H    0.4617935930    1.7984182123   -0.5940542534
 H   -1.2877182045    1.5750694380   -0.3516667633
 H   -0.1996657986    1.4714913717    1.0278923352
 H    2.0236593141   -1.4109249552   -3.3522351577
 H    3.1370603742   -1.4715329400   -1.9466529831
 H    0.2688134092   -2.5577897484   -2.0485434429
 H    2.2608488666   -2.6246380435    0.3011481772
 H    0.6229294565   -4.1979277085    1.3279582200
 H   -0.4898521921   -3.9939783579   -0.0964680932
 H    1.3147036388   -4.8602096189   -1.6413848821
 H    2.4393292439   -5.0653547221   -0.2251887151