15

 O   -0.7006660927    0.9302274955    0.7496654749
 C    0.1804057729    0.9631650923   -0.0643263926
 C    1.4000191463    1.9062386384    0.0180031376
 O    2.5911390164    1.1339345564   -0.0439054975
 C    2.8789306984    0.4694323331    1.1866543737
 C    4.1158881247   -0.2818095176    1.0479819916
 C    5.1339783793   -0.9118498296    0.9610887722
 C    1.3600511688    2.8190889012   -1.1148697159
 C    1.2555580139    3.5476296425   -2.0642238232
 H    0.2167069501    0.2901256652   -0.9474805130
 H    1.3304210091    2.4613616070    0.9658949631
 H    2.9743412038    1.2090066172    1.9978683392
 H    2.0599762952   -0.2100417950    1.4697839779
 H    6.0356840075   -1.4670347183    0.8785325307
 H    1.1842926464    4.2046894720   -2.8961517989