13

 C   -0.0149284490    1.4897750797    0.1813008451
 N    1.3202570956    1.9537412579   -0.2452335077
 C    2.3387263731    1.1647214396   -0.6623765413
 N    2.3459694739   -0.1303356368   -0.7688554531
 C    1.1406335777   -0.6575583126   -0.3924869256
 C    0.0264800723    0.0032478676    0.0475812938
 N   -0.9269389789   -0.9304707463    0.3038236703
 N   -0.4894702859   -2.0904430608    0.0586514610
 O    0.8839129321   -1.9564978918   -0.4075827731
 H   -0.2105542623    1.8143053311    1.2134641043
 H   -0.7888116376    1.9479477387   -0.4512608849
 H    1.4886260694    2.9462592146   -0.2240949357
 H    3.2407144296    1.7105547191   -0.9318866230