18

 C    0.0659566328    1.6367998513    0.1567511548
 C    0.4437402405    0.1771988043   -0.1220326716
 C    0.8797735539   -0.5528628453    1.1314865196
 C   -0.0869070208   -1.1409552294    2.1397728475
 O   -1.4068046646   -1.3796993764    1.6998362514
 C   -1.3959626063   -2.3254069362    0.7224761459
 N   -2.4421440492   -2.7032381862    0.1400044964
 O   -0.1145280196   -2.7499898846    0.4802447276
 C    0.7768684332   -2.0511693291    1.3258228323
 H    0.9017589525    2.1867636558    0.6029556549
 H   -0.2158700877    2.1497481476   -0.7674359762
 H   -0.7814366871    1.6948145257    0.8466413399
 H   -0.4028206536   -0.3360134004   -0.5862265266
 H    1.2620391295    0.1334099048   -0.8508635657
 H    1.7649728664   -0.1388966450    1.6124578301
 H   -0.0231712795   -0.9720738363    3.2067111565
 H   -2.2208529635   -3.4092528853   -0.5575279556
 H    1.5882404932   -2.6689565351    1.6882735388