23

 C   -0.2584267909    1.4868154194   -0.1228733134
 C    0.1750481671    0.0313019778    0.0913449877
 C    0.7462028946   -0.5937455636   -1.1633727340
 C    0.9229789476   -2.0762053880   -1.3813670950
 C    0.1216182400   -3.0632340967   -0.5272996083
 C   -1.3167731718   -2.7689546105   -0.8929093730
 C   -1.4269261982   -1.8263722356   -1.8371771374
 C   -2.6881825261   -1.3020392152   -2.4506045929
 C   -0.0804558719   -1.3065604897   -2.2315983344
 H    0.5812326094    2.1057593940   -0.4587116463
 H   -1.0425071140    1.5555098460   -0.8844058019
 H   -0.6475310018    1.9267021135    0.8008592620
 H    0.9342692260   -0.0096666927    0.8840636386
 H   -0.6768336302   -0.5540283137    0.4503572316
 H    1.5580861747   -0.0064568782   -1.5909078276
 H    1.8638416926   -2.4125164135   -1.8022212014
 H    0.3939594662   -4.1006787638   -0.7637579939
 H    0.3099266584   -2.9384948508    0.5480529325
 H   -2.1545119663   -3.2611185880   -0.4092963853
 H   -3.5711351211   -1.8118336323   -2.0555018687
 H   -2.8041992110   -0.2260594761   -2.2694975869
 H   -2.6808792582   -1.4330114480   -3.5403988189
 H    0.1044368748   -1.0578411245   -3.2725155431