20

 C    1.5139699545   -0.9885317834   -1.1169567443
 C    0.3920560530   -0.4482791284   -0.2215496537
 C    0.6112669319   -0.6820137644    1.2691325565
 C   -0.6061634573   -0.9026952233    2.1427053477
 C    0.3146606409   -2.0542930424    1.8209058577
 C    1.7631635355    0.1394155496    1.8480322880
 O    1.5470569076    1.5347079261    1.7138415156
 C    2.0554204574   -0.2016159057    3.2582156057
 N    2.2680849470   -0.4481133851    4.3671278019
 H    1.6778804250   -2.0575757172   -0.9464211514
 H    1.2629783067   -0.8506331201   -2.1728338568
 H    2.4636342093   -0.4722386108   -0.9430723943
 H    0.2636621225    0.6253485207   -0.3985431285
 H   -0.5533325861   -0.9257346266   -0.5031829682
 H   -0.5916456777   -0.5314346579    3.1624791113
 H   -1.5798211719   -0.8659387954    1.6666390750
 H   -0.0268007422   -2.8033936685    1.1144590411
 H    0.9276505622   -2.4440907876    2.6253864500
 H    2.6772590250   -0.0592333262    1.2774118724
 H    0.7026639567    1.7383453368    2.1345538342