18

 C   -0.0280720794    1.5315654666    0.0048605598
 C   -0.0306168816    0.0350557310   -0.0049340171
 C   -0.0490215100   -0.7882501535   -1.0852638331
 O   -0.0483457705   -2.0958974847   -0.7083897194
 C   -0.0252694748   -2.1069901757    0.6494563887
 C   -0.0222746791   -0.8403778697    1.1470316521
 C    0.0051611729   -0.4243415774    2.5681254672
 C   -1.2579548542   -0.1481453945    3.3102993250
 N   -0.4430221457   -1.3304048927    3.6388269334
 H    0.8812964978    1.9314438660    0.4688180152
 H   -0.0855747740    1.9328213535   -1.0105873457
 H   -0.8765367122    1.9300713409    0.5724404597
 H   -0.0682497145   -0.6061010076   -2.1476729033
 H    0.0044536562   -3.0813870968    1.1092422283
 H    0.8769130315    0.1619058377    2.8559106847
 H   -1.2792867921    0.6214594287    4.0767046351
 H   -2.1940034978   -0.2954838415    2.7787755258
 H   -0.8764342126   -2.1524215302    3.2249581237