19

 O   -0.2193594361    1.4035876575    0.0016817786
 C    0.0123614824    0.0011739778   -0.0042681105
 C   -1.3602128908   -0.6619059134    0.0008044090
 C   -1.3375672779   -2.1695656202    0.0381151671
 N   -0.1966200800   -2.7279808566   -0.1287645739
 O   -0.2643240144   -4.1292302682   -0.0747666480
 C   -2.6059236684   -2.9238409694    0.2295760037
 C   -3.4916074623   -2.6288176651    1.3977003573
 N   -3.9242962337   -2.2865491924    0.0430353074
 H    0.6330830627    1.8461505280   -0.0379508194
 H    0.5767835379   -0.3152097816   -0.8910288828
 H    0.5842377512   -0.3210403983    0.8773681458
 H   -1.9203050883   -0.2747141925    0.8628001588
 H   -1.9083876019   -0.3236856818   -0.8890229593
 H    0.6450076025   -4.3809979269   -0.2652750332
 H   -2.5642810581   -3.9476888973   -0.1208826604
 H   -4.0309589102   -3.4460224997    1.8677134796
 H   -3.1945214286   -1.8314535461    2.0739795595
 H   -3.8183566860   -1.2874115140   -0.1125105493