17

 C   -0.0938564762    1.5135991658    0.0328750674
 C    0.0472418805    0.0236569782   -0.0173024999
 C    0.0466527476   -0.9007136974   -1.1583017174
 O    1.1339450754   -1.7885309598   -1.1786202302
 C    1.8330811255   -1.6212385099    0.0627760901
 C    0.8347725572   -0.8962873195    0.9716398887
 C   -0.4795587856   -1.7064590897    1.1047329817
 O   -0.9171123257   -2.4042526999    1.9780709510
 C   -1.0692578734   -1.0926660934   -0.1137734709
 H    0.8740862729    2.0035404378   -0.1217115187
 H   -0.7752411331    1.8695999437   -0.7457328716
 H   -0.4868147287    1.8444719778    1.0000079965
 H   -0.2806807883   -0.6004560409   -2.1472600271
 H    2.1166175482   -2.6090556267    0.4373830592
 H    2.7430297925   -1.0236645830   -0.0924493837
 H    1.2425056741   -0.4785318985    1.8911518093
 H   -2.1178718828   -1.0111736946   -0.3765296445