20

 C   -0.0377681840    1.7654105414   -0.2493541748
 C   -0.0149826701    0.2472101533   -0.1358508696
 C   -1.4004950942   -0.3726532072    0.0785424889
 C   -1.9986422759   -0.0055233105    1.4522152825
 C   -3.2448416961   -0.7171350655    1.7205858720
 N   -4.2311503914   -1.2873078186    1.9151400639
 C    0.8473354192   -0.4912832555   -1.1944523091
 C    1.6984424304   -0.9406393414    0.0079185547
 O    0.8880158616   -0.1788628247    0.9284330339
 H    0.9742724371    2.1474619092   -0.4073519796
 H   -0.6636213674    2.0821858204   -1.0907934522
 H   -0.4266774460    2.2286919460    0.6624225251
 H   -2.0768404262   -0.0612775626   -0.7254882719
 H   -1.3123660851   -1.4621577220    0.0204962478
 H   -1.2688227811   -0.2520731626    2.2306711040
 H   -2.1959464618    1.0691868289    1.5237432392
 H    0.3381980785   -1.2841248256   -1.7448885167
 H    1.3562407123    0.1662421713   -1.9010879926
 H    1.6726322779   -2.0138553372    0.2315917070
 H    2.7417517622   -0.6055334272    0.0123242973