19

 C    0.0628581613    1.5697876972    0.0023307754
 C    0.0049083262    0.0747183913    0.1418487018
 O   -1.2815793023   -0.4292137083   -0.0736992547
 C   -1.4416885794   -1.6823740137    0.6048319750
 C   -0.2867334154   -1.8032569249    1.6294756180
 C    0.7045490388   -0.7462254992    1.1778183401
 C    1.1987681884   -0.7980635142   -0.2787353643
 C    1.0823313672   -1.9604795715   -1.1037300225
 C    1.0140029557   -2.9347783738   -1.8079061527
 H    1.0758571891    1.9392537665    0.1819703891
 H   -0.2396558466    1.8725763499   -1.0049714303
 H   -0.6153940913    2.0448016949    0.7183193013
 H   -2.4302250816   -1.6823161848    1.0750215764
 H   -1.4013035477   -2.4956100265   -0.1247110929
 H   -0.6234029169   -1.5685438065    2.6439538900
 H    0.1319341011   -2.8136247494    1.6387233315
 H    1.3700285866   -0.3030530595    1.9100113574
 H    2.1114526603   -0.2302571621   -0.4438531428
 H    0.9422799667   -3.7857764953   -2.4384459357