17

 C    0.0152353354    1.4356170949   -0.0859901310
 C    0.0105574460   -0.0589587892   -0.0465169717
 N    0.6083121514   -0.9364121866   -1.1110484097
 C    0.0705813036   -1.9224446703   -0.1105402857
 C    0.1438278137   -3.3432717617   -0.2408087595
 C    0.1795261649   -4.5428193634   -0.3313820880
 C    0.5063649724   -1.0037434914    1.0926247650
 N   -0.8241592612   -0.9846292659    1.7728376191
 C   -1.1647537139   -1.0309348083    0.3185251947
 H    1.0360063168    1.8143237366   -0.1958374269
 H   -0.5798615155    1.8115779971   -0.9253094773
 H   -0.4103034749    1.8308964126    0.8411607982
 H    0.0154203015   -0.9343926524   -1.9466378211
 H    0.2206439395   -5.6006934562   -0.4163317753
 H    1.4642317957   -0.9996434672    1.6127713129
 H   -1.0104837304   -1.8903650965    2.2106708285
 H   -2.1860152051   -1.0608526621   -0.0683354920