27

 C   -0.1059109110    1.5638645855    0.1424021601
 C   -0.0402681780    0.0273382401    0.0580708729
 C    0.5885202486   -0.5294251004    1.3485167183
 C   -1.4739395206   -0.5219727752   -0.0725988672
 C    0.7546523783   -0.4226233609   -1.1951293102
 C    2.2216282815   -0.0155883750   -1.3109934575
 C    3.3361547752   -0.7893246253   -0.5406357899
 C    4.2352557862   -0.6804708287   -1.7996546298
 C    2.9597727716   -0.3845605067   -2.6315793005
 H    0.8830778785    2.0084681933    0.2903535679
 H   -0.5341947795    1.9931817275   -0.7704675500
 H   -0.7335552218    1.8779887588    0.9836817059
 H   -0.0222184810   -0.2670422678    2.2197271586
 H    0.6652606717   -1.6218264435    1.3138742176
 H    1.5918579706   -0.1280811907    1.5163243199
 H   -1.9633018403   -0.1434583894   -0.9770010642
 H   -1.4749812633   -1.6164803875   -0.1262896820
 H   -2.0876481804   -0.2293333068    0.7865856870
 H    0.6945962381   -1.5182091158   -1.2700806333
 H    0.2288267142   -0.0350931074   -2.0801587343
 H    2.3363722708    1.0591657234   -1.1312859328
 H    3.7124791064   -0.3619409430    0.3922392841
 H    3.0366813415   -1.8251663576   -0.3486881077
 H    4.8973553174    0.1891136674   -1.7505030215
 H    4.8323821640   -1.5527915337   -2.0760149242
 H    2.5456549033   -1.2995445429   -3.0692808664
 H    3.0174483280    0.3767401824   -3.4142031409