18

 C   -0.7035500141    1.2625465379   -0.0446005114
 C    0.1993864733    0.0332761260    0.0067855958
 C    1.2244377729   -0.0369977522   -1.1681712031
 N    2.3449953503   -0.6934212567   -0.5257415349
 N    3.4961757347   -1.2204468218   -0.9919444119
 C    4.0912427868   -1.5687012023    0.1463515180
 N    3.4023608093   -1.2886362839    1.2937713180
 C    2.3040994039   -0.7309096211    0.8160997573
 C    1.0513718906   -0.0856442929    1.3146555986
 H   -0.1164447295    2.1852695308    0.0217924074
 H   -1.2782855639    1.2963956988   -0.9759779913
 H   -1.4165984990    1.2588337876    0.7855775589
 H   -0.4220579695   -0.8666284725   -0.0579010551
 H    0.8585201212   -0.6144450650   -2.0203003148
 H    1.5151307290    0.9588293841   -1.5249157629
 H    5.0588231304   -2.0487555095    0.1483037140
 H    1.2682436561    0.9026019460    1.7395515370
 H    0.5452243176   -0.6663054333    2.0893395503