16

 O   -0.2627197121   -0.1313114820    0.3672251472
 C   -0.0541171363    0.9471371641   -0.1277974555
 C    1.2396965570    1.7137586353   -0.0862785297
 C    1.5541641502    2.7007426983    1.0874435523
 C    1.8001766792    1.4180993483    1.9129776085
 N    2.4767220288    1.0621343080    0.5650476501
 C    3.0198921890    2.5216241168    0.6552077869
 C    3.5866488943    3.1163614368   -0.6103650220
 O    3.0590196282    3.9874133903   -1.2554231229
 H   -0.8503826514    1.4833341566   -0.6948288209
 H    1.4269683098    2.1124636983   -1.0873826956
 H    1.0279222117    3.6203652525    1.3560352011
 H    2.5091652453    1.4814541559    2.7417849084
 H    0.9599461583    0.7696319794    2.1487569499
 H    3.7796121797    2.5968802713    1.4438485938
 H    4.5735268883    2.6940985203   -0.9041770717