20

 C   -0.2048131889    1.5686898153    0.0281300379
 C    0.0353973020    0.0590217871   -0.0358541862
 O    0.6886419304   -0.3384613540   -1.2439267236
 C    2.0728687748   -0.0410767356   -1.3435508321
 C    2.8729630812   -0.1512686706   -0.0596180465
 C    2.2445767865    0.0672424363    1.2540741433
 C    0.8112689513   -0.4803448332    1.1683030481
 C    1.4704007941   -1.8651817399    0.9368795551
 N    2.8583359919   -1.2764216014    0.9058452879
 H    0.7353846104    2.1218104497    0.1200078180
 H   -0.7169347118    1.9091391059   -0.8758645220
 H   -0.8273952943    1.8205443080    0.8930377146
 H   -0.9327804161   -0.4527506924   -0.0924281054
 H    2.4654697061   -0.7271983534   -2.1027802132
 H    2.2234081115    0.9832305180   -1.7248026051
 H    3.8879539294    0.2226236990   -0.1765950343
 H    2.6510323977    0.7061569270    2.0311067664
 H    0.2281799220   -0.3972471316    2.0868592142
 H    1.3998620545   -2.5219674253    1.8064552485
 H    1.1838464573   -2.4131794788    0.0365510644