17

 O   -0.0023542471   -0.0083280264    0.0296976678
 C   -0.0125371477    1.1807424030   -0.0328550917
 C   -1.0454732417    2.3377709628    0.0142926468
 C   -0.0314761183    2.9872145676    0.9998762463
 C    1.0245897277    2.3360269399    0.0347682398
 C    0.6563646922    3.0432222018   -1.2600170937
 C    1.3343201843    4.2347702512   -1.8502415929
 C    1.3408363728    2.8917822939   -2.5762594215
 O   -0.7847603434    3.0222496704   -1.2212585306
 H   -2.1132939770    2.2353136365    0.1857910252
 H   -0.0471367277    4.0777077826    1.0305864516
 H   -0.0404849738    2.5492681809    1.9994772097
 H    2.0746482644    2.1958940315    0.2762070815
 H    0.6929578343    5.0118235417   -2.2518222266
 H    2.2573475620    4.5883128721   -1.4023562385
 H    2.2680119685    2.3300456184   -2.6217070011
 H    0.7062962704    2.7965157923   -3.4501941822