19

 C   -0.3018396986    1.3055564670    0.0110880787
 O    0.0284245423   -0.0630572371    0.0667465130
 C    0.5774293787   -0.5457963049   -1.1338557129
 C    0.8316910241   -2.0269358789   -0.9707967228
 O   -0.4059960375   -2.8173986078   -1.0613368949
 C    0.0609867990   -3.5227534546   -2.1398627320
 O   -0.5055813194   -4.3600928148   -2.7656272329
 C    1.4254386066   -2.8250916497   -2.1590783041
 C    1.8346247908   -2.1369722856   -3.4570207975
 H    0.5823500382    1.9306790822   -0.1915956898
 H   -1.0548421761    1.5117835529   -0.7651052862
 H   -0.7133976812    1.5795537043    0.9849077767
 H   -0.1049549423   -0.3689567597   -1.9808489665
 H    1.5314341749   -0.0381281379   -1.3641774805
 H    1.3072449473   -2.2118175648   -0.0044674181
 H    2.2117413835   -3.5124102510   -1.8327962432
 H    1.0639236432   -1.4520432663   -3.8209087617
 H    2.7637087589   -1.5735868947   -3.3293103287
 H    2.0002870474   -2.8896328185   -4.2327634966