18

 C   -0.2949806603    1.3829858830    0.2107138399
 C    0.0997332053   -0.0507906084   -0.1955375897
 C    0.8713272510   -0.0185027221   -1.5023278543
 O    0.5080116038   -0.5223493139   -2.5327827442
 C    0.9625095064   -0.6781876109    0.8872476769
 O    0.3153761365   -1.0029525122    2.1187135664
 C    0.8700998891   -2.0763718897    1.3418169613
 C   -0.0816120774   -3.1087076057    0.7959525960
 H    0.5873003004    2.0265707614    0.3021924293
 H   -0.9675823858    1.8294620784   -0.5267780411
 H   -0.7999301961    1.3615166021    1.1796695255
 H   -0.7986756073   -0.6487778714   -0.3605936190
 H    1.8364279780    0.5409424332   -1.4478827457
 H    1.9257443433   -0.1772114968    1.0216421509
 H    1.7780294458   -2.4952251589    1.7815532569
 H   -0.9867766002   -2.6567294159    0.3866991050
 H    0.4038171023   -3.6945457613    0.0082564838
 H   -0.3794935349   -3.7987981908    1.5920781322