19

 C    0.0970364115    1.3674754132    0.2549872775
 N    0.0790473869   -0.0874286966    0.2686660955
 C   -1.0110238496   -0.6653131195    0.0005999818
 N   -2.3280531145   -0.2609368222   -0.2595049674
 C   -2.8559465176   -1.6284883911   -0.3737011507
 C   -2.7349154368   -2.2606097241   -1.7832730406
 C   -1.3095878156   -2.7862730923   -1.4349751551
 C   -1.3810294882   -2.1380143833   -0.0272368454
 O   -0.9728968175   -2.9423242032    1.0215675897
 H    0.8599812225    1.7281107874    0.9512007098
 H    0.3670528643    1.7452557087   -0.7407053804
 H   -0.8670853513    1.8183043125    0.5368397802
 H   -2.5909149588    0.5083955805   -0.8608537728
 H   -3.7427633617   -1.8273054045    0.2289757300
 H   -3.4580796400   -3.0578219851   -1.9695467872
 H   -2.7942515113   -1.5418510921   -2.6044653004
 H   -1.2829017841   -3.8734389269   -1.3326688276
 H   -0.4763922220   -2.4712979677   -2.0665989471
 H   -0.5637529863   -2.3740839838    1.6845629901