21

 C    0.0572859037    1.4995091808    0.1386146540
 C    0.0008928082    0.0093292367    0.0030724325
 C   -0.0381623675   -0.7294032359   -1.1205615050
 C   -0.0543735238   -0.2623166021   -2.5438859050
 C   -0.0307445326   -2.1920578207   -0.8059124040
 C    1.2146509406   -2.7119783704   -0.0882389822
 C    0.0233766183   -2.2942518476    0.7090449013
 O   -0.6095967590   -3.3055687625    1.4322265384
 C   -0.0165875679   -0.8646168662    1.2450995515
 H    0.9727120218    1.8197842711    0.6533216942
 H    0.0245787361    2.0097699261   -0.8269509875
 H   -0.7813497639    1.8715608205    0.7423519060
 H   -0.0667673016    0.8266469258   -2.6302952927
 H    0.8220071095   -0.6351968784   -3.0892785494
 H   -0.9349668670   -0.6500181115   -3.0723827683
 H   -0.5979449648   -2.8920094969   -1.4114460088
 H    1.3843525887   -3.7824798192   -0.1323439017
 H    2.1077745482   -2.0948030327   -0.0884250187
 H   -1.5513910528   -3.1028243861    1.4618649904
 H    0.8196095975   -0.6512530787    1.9234667657
 H   -0.9332345418   -0.7003898322    1.8339289894