13

 N   -0.0524732488    1.2954044609    0.0272223285
 C    0.0275516934    0.0328620881    0.0254074930
 N    1.1321646043   -0.8169090960   -0.0385787267
 C    0.6957231045   -2.1338295791   -0.0305236750
 N   -0.5649168439   -2.3147918927    0.0237694314
 C   -1.1615076834   -0.9544768477    0.0686952844
 C   -2.0125499160   -0.7698769011    1.2361665050
 C   -2.7104838697   -0.6171251862    2.2005470666
 H    0.8647257775    1.7416852379   -0.0201203683
 H    2.0920540275   -0.5155705047   -0.0507643804
 H    1.4238960723   -2.9375060129   -0.0774961797
 H   -1.7605326727   -0.8130497237   -0.8405048887
 H   -3.3309220849   -0.4775979227    3.0509299000