15

 N    0.2525477948    1.3583907832   -0.0034755806
 C   -0.0119201237   -0.0672060251    0.0444617946
 C   -1.4861816552   -0.4570253408   -0.0299089160
 O   -2.4060747099    0.3167907086   -0.1200726819
 O   -1.6320163569   -1.7968728185    0.0190291269
 C   -2.9974927252   -2.2625051293   -0.0447790010
 C   -3.0009328694   -3.7132121425    0.0177765433
 C   -3.0383622642   -4.9120589799    0.0673209629
 H   -0.1481439711    1.7429816948   -0.8546015012
 H   -0.2521487332    1.8161614020    0.7505990599
 H    0.5103046480   -0.5742125401   -0.7752190563
 H    0.4012592322   -0.4953825807    0.9651699574
 H   -3.5651997658   -1.8265790669    0.7842842578
 H   -3.4572303942   -1.9025492481   -0.9714606633
 H   -3.0686855160   -5.9728686868    0.1112454876