18

 O    0.1141356625    1.3918902175    0.0025631335
 C    0.0236169179   -0.0025380782   -0.0349764934
 C   -0.4611983789   -0.7169780185    1.2352025705
 O   -0.8600843599    0.1212882430    2.2937913976
 C   -1.3126977063   -0.6588895456    0.0171864709
 C   -2.7441680375   -0.1982590803   -0.2604053547
 C   -2.4579965899   -0.7377428879   -1.6818443465
 N   -1.8292725980   -1.8376591016   -0.7945955757
 C   -3.1025618723   -1.6670132309    0.0655055412
 H   -0.3239407469    1.6624749235    0.8216203970
 H    0.8247659425   -0.4522129908   -0.6148232088
 H   -0.0091688065   -1.6653755623    1.5223368875
 H   -0.0881549456    0.2791539427    2.8496593154
 H   -3.2400668768    0.7258363205    0.0482635312
 H   -3.3053536897   -1.0973997351   -2.2719573878
 H   -1.7292676990   -0.2053623499   -2.2960413282
 H   -2.9814607058   -2.0097698525    1.0951719173
 H   -3.9950947399   -2.0917826834   -0.4022999371