24

 C    0.0335786445    1.6626086128   -0.0864649976
 C   -0.0101614821    0.1346995349    0.0220679754
 C    0.6697068955   -0.5477608724   -1.1719420892
 C    0.6886368530   -2.0972952051   -1.1743966195
 C    1.4601369980   -2.6470506741    0.0382236855
 C   -0.7386050418   -2.6719530225   -1.1998596410
 C    1.4295505751   -2.5123995323   -2.4818316804
 C    1.5499941551   -3.9571103528   -2.6664168309
 N    1.6381797542   -5.1020609773   -2.7999140269
 H    1.0657067779    2.0282019982   -0.1258982546
 H   -0.4743598424    2.0107136559   -0.9927332960
 H   -0.4545063355    2.1354031574    0.7711565909
 H    0.4745122694   -0.1733026626    0.9556297573
 H   -1.0542486337   -0.1906640783    0.0950897008
 H    0.1778653157   -0.2059323456   -2.0938701829
 H    1.7070060512   -0.1886187889   -1.2330557279
 H    0.9482137428   -2.4088994008    0.9743314774
 H    1.5540072844   -3.7357809161   -0.0182343257
 H    2.4699761109   -2.2243971722    0.0905944326
 H   -1.3141047738   -2.2672995151   -2.0402225019
 H   -0.7202741713   -3.7615434047   -1.2987932033
 H   -1.2777107222   -2.4340606440   -0.2790709711
 H    0.9046638292   -2.1001317575   -3.3515992047
 H    2.4381258061   -2.0826315070   -2.4881451265