13

 C   -0.0119108884    1.4822951670    0.1215379982
 O    1.2510746578    2.0312982257   -0.3315641261
 C    2.2672919672    1.2437170792   -0.7597944378
 N    2.3263340817   -0.0255961580   -0.8480326057
 C    1.1504690330   -0.6583205035   -0.4324694352
 C    0.0563309115    0.0017230579    0.0188698520
 O   -0.9208617090   -0.8414875576    0.3477932933
 N   -0.4622776434   -2.1537367177    0.1050898880
 C    0.7593202249   -2.0238191029   -0.3540584876
 H   -0.1732700874    1.8274007484    1.1508105588
 H   -0.8041771292    1.9130714611   -0.5039882785
 H    3.1082611395    1.8673950587   -1.0481388843
 H    1.3212723018   -2.9093998884   -0.6141688954