19

 C   -0.1100647014    1.5869992584    0.0284268508
 C    0.0400608778    0.0606715844    0.0337704859
 O    0.6880662090   -0.4210833306   -1.1429562499
 C    2.0456044858   -0.0455804591   -1.2697164648
 C    2.8326814837   -0.2117725738   -0.0018089547
 C    2.2385801969   -0.4250477454    1.1711191118
 C    0.7614089099   -0.4542766641    1.2726224872
 C    0.0915954869   -0.4089042482    2.5821738677
 O    0.2097717777   -1.6438705246    1.8856237999
 H    0.8520414413    2.0911611226    0.1601392048
 H   -0.5470055652    1.9112373968   -0.9200877744
 H   -0.7686253288    1.9104255360    0.8396025192
 H   -0.9497657463   -0.4048189607    0.0082949892
 H    2.4583679864   -0.6916365664   -2.0536460686
 H    2.1439244592    0.9912868581   -1.6395167654
 H    3.9148074622   -0.1560036869   -0.0847165979
 H    2.8096502128   -0.5906572572    2.0798322593
 H    0.6882149766   -0.3158565122    3.4899763753
 H   -0.9185531246   -0.0047412269    2.6557232545