19

 C    0.2671098887    1.4212750625    0.2317239929
 C    0.0868879410   -0.0550752922    0.0584191913
 C    0.0482546179   -0.7601876981   -1.1233334014
 N   -0.1548873085   -2.0845123019   -0.8357319270
 C   -0.2430518899   -2.2555735666    0.5269256556
 C   -0.0975179447   -1.0130002178    1.1067490491
 N   -0.1996045509   -0.6821914656    2.4750248845
 C    0.2927488218   -1.6336245309    3.4600233704
 C    1.0268685689   -0.3621232226    3.2096454445
 H    1.2008584520    1.6667468551    0.7530660670
 H    0.2877465069    1.9312897748   -0.7359240541
 H   -0.5464908329    1.8546845011    0.8244950824
 H    0.1487298955   -0.4187493326   -2.1417607974
 H   -0.2368292183   -2.8190137398   -1.5146342582
 H   -0.4314023192   -3.2225449065    0.9628480498
 H   -0.3198133092   -1.7519554906    4.3491635171
 H    0.7572309992   -2.5471121218    3.0940646617
 H    1.9693690139   -0.4351723307    2.6717756404
 H    0.9519923376    0.4656692043    3.9086732813