13

 N   -0.0819688099    1.2566426477    0.1379834268
 C   -0.0325933817    0.0088785226   -0.0202559038
 O    1.1102080389   -0.7586751802   -0.0954652147
 C    0.7294895751   -2.0733055920   -0.4615784046
 C   -0.3527034106   -2.7497687056    0.3669089725
 O   -1.0529520418   -1.7738516841    1.1250011100
 C   -1.1927668734   -0.9544837564   -0.0903294273
 C   -0.6819907113   -2.1195334037   -0.9688208651
 H    0.8573372753    1.6539224122    0.2023870669
 H    1.5318078686   -2.6437726052   -0.9094479694
 H   -0.3287495400   -3.7692569825    0.7330536672
 H   -2.1831639035   -0.5231274947   -0.2014498915
 H   -1.0508527057   -2.4822761882   -1.9176343870