16

 O   -0.0108728620   -0.0244183526   -0.2542218789
 C   -0.0131172698    1.1758517798   -0.0642721923
 N   -1.1655980042    1.8800255248    0.1869005838
 C   -1.2472071802    3.3295813180    0.0793544811
 C   -0.0493291169    3.9644803626    0.7855619698
 C    1.2243314824    3.2783389326    0.3879204084
 C    1.2501123829    1.9980077859   -0.0283443400
 C    2.4556531425    1.3406125712   -0.3969902871
 C    3.4831519500    0.8005834699   -0.7145945842
 H   -2.0046067998    1.3377037914    0.0400443473
 H   -1.2611162086    3.6511865223   -0.9738379925
 H   -2.1838946101    3.6615805347    0.5355324791
 H   -0.0004371376    5.0317206747    0.5458474893
 H   -0.1726442528    3.8963652767    1.8767587223
 H    2.1557993757    3.8303914636    0.4711726662
 H    4.3811969985    0.3080258245   -0.9943344121