17

 N    0.1466856030    0.9831279664    0.8614795427
 C    0.1311382613    0.0164848192   -0.1032102972
 O    1.0896675208   -0.2713417097   -0.7892859348
 C   -1.1989443567   -0.7365474378   -0.1960936031
 O   -2.2425443937    0.1858140647    0.0847993912
 C   -1.4364115097   -1.6041407584   -1.4785878426
 C   -1.6450787520   -2.8262886252   -0.5687855844
 N   -0.3660422881   -3.0139902615    0.1490338043
 C   -1.3414100985   -2.0244500571    0.6517858159
 H    0.9535461915    1.5856502700    0.8913315851
 H   -0.7327614753    1.3339329999    1.2032963311
 H   -3.0599623841   -0.3142454083    0.1906119661
 H   -2.3367281273   -1.2716946116   -2.0003409579
 H   -0.5907694628   -1.6719150423   -2.1627221431
 H   -2.3329279903   -3.6514679461   -0.7044325775
 H   -0.4610046447   -3.8419243353    0.7376468845
 H   -1.7282167833   -2.0696897069    1.6640001597