19

 C   -0.0641045291    1.5470873265    0.0221120707
 C    0.0044486803    0.0188807724   -0.0072482430
 O   -1.3087830530   -0.5523013211    0.0408871792
 C    0.7615433454   -0.4802755762   -1.2325772633
 C    1.8627502051   -1.2106894585   -1.0662819374
 C    2.2703630767   -1.4696051183    0.3684484871
 C    1.0469241608   -2.0219561599    1.1449334357
 C    0.7278204516   -0.5183427459    1.2479607982
 O    2.1427932402   -0.2149827432    1.1146598999
 H    0.9389254646    1.9665272577    0.1319422179
 H   -0.4976971237    1.9381801956   -0.9063230877
 H   -0.6863709440    1.8789829127    0.8596690925
 H   -1.8358280826   -0.1487922780   -0.6568968792
 H    0.3657933385   -0.2215990616   -2.2122531197
 H    2.4366317047   -1.6216816547   -1.8902756818
 H    3.2536167821   -1.9273607320    0.4900373503
 H    0.3475259755   -2.6710011968    0.6197144613
 H    1.3252447562   -2.4352281733    2.1158261399
 H    0.2886146007   -0.1203966854    2.1665858893