23

 C   -0.7234075745    1.3654115691   -0.5212697837
 C    0.0703022858    0.1624459255   -0.0418820037
 O    0.4041313357    0.0425664721    1.1173522015
 C    0.3976154559   -0.8887954634   -1.0810539264
 C    1.4986915974   -1.9209540774   -0.7486565640
 C    0.6008093210   -3.0493866785   -1.3128443877
 C   -0.6327894651   -2.0937919353   -1.2544820536
 C   -1.4895133322   -2.3480037927   -0.0122100618
 C   -1.4944238667   -2.0348137404   -2.5111804273
 H   -0.1075982413    1.9652238122   -1.2022145319
 H   -1.6037883474    1.0488689776   -1.0918691191
 H   -1.0274926812    1.9792738519    0.3275116437
 H    0.5513335382   -0.4108307472   -2.0540086909
 H    2.4689966353   -1.7687419939   -1.2258309434
 H    1.6439585091   -1.9863532683    0.3313649439
 H    0.8607807622   -3.3151995539   -2.3417632450
 H    0.5268288527   -3.9695596854   -0.7266848041
 H   -0.8906840029   -2.3518193229    0.9022563675
 H   -2.2675098518   -1.5849179986    0.1054810731
 H   -1.9888288284   -3.3196311504   -0.0981222281
 H   -2.0392918856   -2.9759063736   -2.6516561029
 H   -2.2389949363   -1.2317059333   -2.4514055618
 H   -0.8862125401   -1.8642910131   -3.4057542543