19

 C   -0.0541731026    1.5209752153    0.0169428844
 C   -0.0714166536    0.0209344138    0.0465375039
 C   -0.3887927267   -0.8137951606   -1.2640272691
 C    0.6042837951   -1.8928140835   -1.3715747084
 C    0.7191666896   -2.4779568668   -0.1546595652
 C    1.8420818968   -1.8868071289    0.7133786743
 C    0.6729249764   -0.8823475095    1.1008468959
 C   -0.3975944397   -1.9613518987    0.7820987067
 C   -1.2319432834   -0.9581313080   -0.0214679322
 H    0.9330279764    1.9044576499   -0.2691090580
 H   -0.7797868072    1.9062708524   -0.7072815739
 H   -0.3068814974    1.9527107388    0.9927317716
 H   -0.7629171011   -0.2311976389   -2.0998275727
 H    1.4423800697   -1.8043219078   -2.0576385403
 H    2.1360294580   -2.4533311060    1.6048935053
 H    2.7285841349   -1.5182291939    0.1933399399
 H    0.7104048308   -0.4217618628    2.0916415514
 H   -0.8112705796   -2.6165700070    1.5455870159
 H   -2.3000473964   -0.7868892278    0.0098738804