21

 C    0.2293744849    1.6629320111    0.1307845590
 C    1.7531987208    1.3497160133   -0.0244906240
 C    1.4318604796   -0.1513229991   -0.0105205137
 C   -0.0649357365    0.1563457143    0.1419927484
 C    0.4554754847   -0.5307952147   -1.0958949302
 C    0.4298962167    0.0354410475   -2.4903003615
 C    1.2263452909   -0.7214956817   -3.5818171828
 O    0.0447860599   -0.9028912836   -4.3875275223
 C   -0.7929702457   -0.3074425996   -3.3767114396
 H    0.0076575586    2.1378536941    1.0887008160
 H   -0.2476229211    2.2515051554   -0.6597197479
 H    2.2592956779    1.7361975554   -0.9151864001
 H    2.3236847252    1.6618177927    0.8526915092
 H    2.0250732768   -0.9047743744    0.4946368853
 H   -0.7952929515   -0.3250453223    0.7820052023
 H    0.2377943343   -1.5988611556   -1.0777530463
 H    0.6490595472    1.1041188995   -2.4897876492
 H    2.0012229591   -0.1522107087   -4.1093274327
 H    1.6524428485   -1.6800359011   -3.2540513960
 H   -1.4869456692   -1.0363142329   -2.9351943462
 H   -1.3707120510    0.5392018505   -3.7668333177