20

 C   -0.2966488025    1.4183493200   -0.0724630728
 C    0.0431506998   -0.0491915833    0.1707509096
 C    1.1127169518   -0.6294257014   -0.8016125360
 C    2.1860121779   -0.4625990203    0.3166934358
 C    1.0356081491   -0.2916721791    1.3469283612
 C    3.1691272636   -1.5856275307    0.5040856350
 C    3.5765752431   -2.0831142126    1.8237111201
 O    2.6565308290   -2.8214735241    1.0152006514
 H    0.6084662633    2.0336978882   -0.1385399912
 H   -0.8519585881    1.5458801368   -1.0083107431
 H   -0.9111173810    1.8214378046    0.7402171849
 H   -0.8805456651   -0.6321005932    0.2296775309
 H    0.9364747234   -1.6843593277   -1.0284555065
 H    1.2764240038   -0.0885693441   -1.7379882678
 H    2.7484215990    0.4680976660    0.1827615660
 H    1.1365044759    0.5106387442    2.0832950697
 H    0.8331811788   -1.2326558433    1.8645949958
 H    3.8752335973   -1.7193534561   -0.3189035882
 H    4.5557951740   -2.5414055048    1.9552680180
 H    3.1497262469   -1.6346525590    2.7196827372