23

 C   -0.0438107430    1.5350379020   -0.0022973376
 C    1.3713070068    2.1658478641   -0.0147211382
 C    2.5069226960    1.1091532543   -0.0285925623
 C    2.7139056263    0.4656085697    1.3767535356
 C    1.8411667172   -0.7650516020    1.6673545165
 C    0.3390633731   -0.5947797458    1.3926340207
 C   -0.0175634200   -0.0160527882   -0.0108458392
 C    0.9605053750   -0.4717625137   -1.0734869781
 C    2.1796141152    0.0712837911   -1.0818894772
 H   -0.6164396712    1.8769912075    0.8670216647
 H   -0.5978333745    1.8693033308   -0.8851538901
 H    1.4814248796    2.7925763192   -0.9053334928
 H    1.5111683904    2.8286943411    0.8464642652
 H    3.4359979277    1.6263173409   -0.2899977433
 H    3.7634602478    0.1663216432    1.4821969187
 H    2.5416563594    1.2390136994    2.1367780653
 H    2.2094805373   -1.5988597418    1.0608921917
 H    1.9818371775   -1.0645119865    2.7127916584
 H   -0.1372269640   -1.5757803357    1.5068668990
 H   -0.1134647709    0.0524258713    2.1553852421
 H   -1.0264248000   -0.3620391498   -0.2587635015
 H    0.6616896985   -1.2233675822   -1.7984180033
 H    2.9297688356   -0.2129481688   -1.8141448242