15

 O    0.0989268318    1.4549967241   -0.1728755408
 C    0.0247421000    0.0744423403   -0.0042956151
 C    0.3835092338   -0.8563342341   -1.1868880073
 N   -0.7936463183   -1.6973848307   -0.8512918615
 C   -1.3700970924   -0.6414402957    0.0330969942
 C   -1.0917416901   -1.0515326295    1.4900766070
 O   -1.7332980436   -1.5566137253    2.3615873043
 C    0.3513393183   -0.4900683532    1.4161359737
 H    0.9968850943    1.7421570481    0.0260503935
 H    0.2949949910   -0.3127239826   -2.1361990836
 H    1.3425382819   -1.3865176987   -1.1581774379
 H   -1.3843320223   -1.9535669884   -1.6316910963
 H   -2.3181302362   -0.1858211074   -0.2594629842
 H    1.1507607492   -1.2317666474    1.4866641310
 H    0.5178149326    0.2974617505    2.1580635930