19

 C    0.2715211199    1.5516186212   -0.1247572524
 C    0.1442218998    0.0485684764    0.0082960425
 O    0.8279169983   -0.5929237607   -1.0989404306
 C    1.1864625483   -1.8937592668   -0.6985074212
 C    2.5294203218   -1.9186763483   -0.0278595977
 O    3.3196847252   -0.7619818713   -0.1118347901
 C    1.2586399825   -1.9302806796    0.8102005953
 C    0.7429971569   -0.5750584135    1.3067298998
 O    1.7134945033    0.2136646641    1.9618305209
 H    1.3121885891    1.8665815875   -0.0199529001
 H   -0.1081753104    1.8820116404   -1.0951768769
 H   -0.3052011688    2.0451906412    0.6625622346
 H   -0.9137759468   -0.2487502653   -0.0494310863
 H    0.8122098863   -2.6936708196   -1.3293034216
 H    3.1191212139   -2.8300916903   -0.0467330252
 H    2.8938586647   -0.2112165179   -0.7880931829
 H    1.0302997492   -2.8266120471    1.3736818992
 H   -0.0627324287   -0.7164413193    2.0340983694
 H    2.5370833456    0.1109976888    1.4625574534