21

 C   -0.0102015593    1.5440051885    0.0382153724
 C    0.0278346656    0.0098308475   -0.0201837013
 C    0.5148196714   -0.4563616881   -1.4066536912
 O    0.0539516468   -1.7415984770   -1.7803779988
 C    0.7060659887   -2.8327919121   -1.1739999726
 C    0.4221051415   -2.9871421583    0.3364070998
 C    1.2335278069   -2.0146161823    1.1764543280
 O    2.1583660642   -2.4005221663    1.8553856284
 C    0.8811893116   -0.5265964439    1.1426381688
 H    0.9833566423    1.9699891885   -0.1457308922
 H   -0.6940603428    1.9523349159   -0.7124170882
 H   -0.3397044593    1.8941491348    1.0214598018
 H   -0.9995551322   -0.3624473817    0.0805967994
 H    0.1188072100    0.2188222388   -2.1721540499
 H    1.6163942655   -0.4074608499   -1.4616442876
 H    0.3332429763   -3.7206528027   -1.6929264474
 H    1.7946780241   -2.7803098772   -1.3415710741
 H   -0.6531201793   -2.8466696887    0.4969751656
 H    0.7010193486   -3.9958384374    0.6532834081
 H    1.8349706534    0.0122698413    1.1956038715
 H    0.3753460660   -0.3132010398    2.0947947395