17

 O    0.0213409113    0.0466820069    0.3255859876
 C   -0.0116231577    1.2386871748    0.0974415201
 C   -1.2871354506    1.9867805557   -0.0412563368
 C   -1.4800654207    3.3772993582    0.5655063955
 C   -1.3121761152    3.2418449584   -0.9129136791
 C   -0.0490454777    3.6817559893   -1.6373842778
 C    1.2484459207    3.1696844158   -1.0521942438
 O    1.4381698078    3.3007535503    0.3515714062
 C    1.2740555810    1.9735526310   -0.1793340583
 H   -2.1503485984    1.3312760272   -0.0539886816
 H   -2.4743951941    3.5849974863    0.9453069057
 H   -0.6662954078    3.7885086033    1.1448190415
 H   -2.2138366344    3.3631778198   -1.5056864894
 H   -0.0920357941    3.3362103901   -2.6785092685
 H   -0.0081584234    4.7782262822   -1.6799981262
 H    2.1423050216    3.3799362661   -1.6405377171
 H    2.1591401818    1.3430730647   -0.1314072379