17

 C    0.0090104590    1.5338361937   -0.1430748811
 C   -0.0333155078    0.0085049166    0.0665966208
 C   -1.4193435941   -0.5564568601    0.0778797925
 N   -2.0930344941   -0.8564095621    1.1535851051
 C   -3.3359582960   -1.3043498350    0.7228913639
 C   -3.4202840288   -1.2764774113   -0.6305230307
 N   -2.1871384166   -0.7935855110   -1.0669689373
 C   -1.8183617725   -0.6220711555   -2.4002539543
 O   -2.5460740330   -0.8539857838   -3.3287205011
 H    1.0393538765    1.8970801129   -0.0905783609
 H   -0.3996185135    1.8231211732   -1.1165264460
 H   -0.5744647420    2.0419551311    0.6294921995
 H    0.5834041930   -0.4916040272   -0.6893278932
 H    0.3978924284   -0.2385760075    1.0398213611
 H   -4.0870581446   -1.6212659683    1.4299084322
 H   -4.1850581947   -1.5410645684   -1.3391675704
 H   -0.7860291589   -0.2519070773   -2.5068956600