17

 C   -0.4571474472    1.1097296157    0.1794973204
 O    0.4555428288    0.0626036639   -0.1131426523
 C    0.9130462830   -0.5856759833    1.0101448789
 C    0.0956457767   -1.7174240231    1.6255034233
 C   -1.1761739548   -2.0819869667    1.0855871878
 C   -2.2586003961   -2.3911696782    0.6621342155
 C    1.3998575748   -1.9986884855    0.8327130502
 C    1.3574072628   -2.6417746979   -0.4441731100
 C    1.3544175920   -3.2084178023   -1.5038467390
 H    0.0085255853    1.8776994664    0.8149466667
 H   -0.7354445139    1.5589601114   -0.7756608187
 H   -1.3555750449    0.7269016436    0.6779983122
 H    1.4634814931    0.0414037576    1.7150291063
 H    0.1933590924   -1.8399116934    2.7006452564
 H   -3.2073420242   -2.6703791329    0.2762361796
 H    2.2430886644   -2.2801353057    1.4570779594
 H    1.3405533477   -3.6976093296   -2.4458337465