18

 O   -0.6056121480    0.9336155207   -0.5929750050
 C    0.0713860207   -0.2493096856   -0.2165510259
 C    1.0216960779   -0.7815024765   -1.3051782228
 O    0.2456304857   -1.2201570646   -2.3972207605
 C    0.6138362888   -0.7008373240   -3.6423486292
 C   -0.4948561474   -0.5245086981   -4.6260542504
 C    0.1686588632    0.6915976068   -4.0098736501
 C    0.8058305717   -0.0676538686    1.0514599401
 N    1.4091742340    0.1054030492    2.0216786958
 H    0.0382440399    1.6502090260   -0.6394820896
 H   -0.7109606270   -1.0000116424   -0.0631586461
 H    1.7181693556    0.0160610808   -1.5958340287
 H    1.6094292196   -1.6156735902   -0.8973346450
 H    1.5799152330   -1.0499178811   -4.0059785816
 H   -0.3038754498   -0.7585376288   -5.6669426051
 H   -1.4898521011   -0.7719131306   -4.2752365535
 H   -0.3997348333    1.2235841054   -3.2558885085
 H    0.8191285566    1.3030787317   -4.6255425039