20

 C   -0.2212968440    1.2817695126    0.0713989632
 O   -0.1550719151   -0.1271179373   -0.1806650985
 C    0.7339363584   -0.5036129139   -1.1228571520
 O    1.4294703575    0.2727936030   -1.7299808307
 C    0.7326900471   -2.0061507935   -1.2945687743
 C    1.6591228458   -2.4659151008   -2.4177452541
 N    1.6829218558   -3.9225852639   -2.4780493055
 C    0.6897565726   -4.5496216054   -3.3464187801
 C    2.1253914475   -4.5051369780   -3.7384525152
 H    0.7454108339    1.6591863148    0.4146582264
 H   -0.5059376675    1.8237180534   -0.8341152663
 H   -0.9773001008    1.4095943299    0.8462388430
 H    1.0329500060   -2.4666291810   -0.3465338216
 H   -0.2973022099   -2.3365315003   -1.4707858197
 H    1.3431600348   -2.0092978280   -3.3717669745
 H    2.6757163498   -2.1111290534   -2.2219418374
 H    0.2448004811   -5.4681839702   -2.9749750692
 H    0.0074492657   -3.9003496303   -3.8940309169
 H    2.3977664887   -3.8273159094   -4.5461484482
 H    2.7490484925   -5.3907762682   -3.6573092883