17

 C    0.2464070453    1.2719166865   -0.1731903901
 O   -0.4251256335    0.1245248670    0.3162855289
 C    0.3664454466   -0.6161733677    1.1924794487
 C    0.1158472548   -2.0227372879    1.6068808162
 C   -0.0978338140   -3.0238471910    0.4578801342
 C   -0.0783374327   -2.4620438008   -0.9080926531
 N    1.2084643140   -2.6806580463   -0.1949190748
 C    1.4250394234   -1.6421816926    0.8811388348
 H    1.1408204364    1.0021202964   -0.7515588324
 H   -0.4554969166    1.8037544085   -0.8188433920
 H    0.5504538833    1.9375654303    0.6487418956
 H    0.6953322215   -0.0192275824    2.0506067723
 H   -0.0466089252   -2.2974498301    2.6415572625
 H   -0.3449868707   -4.0599804471    0.6658548999
 H   -0.1920590789   -3.1756719282   -1.7201657802
 H   -0.4426455335   -1.4645983846   -1.0998687929
 H    2.4385331401   -1.5588682397    1.2564665724