25

 C   -0.0162899316    1.5712356766   -0.0683287328
 C    0.1051426262    0.0491879506   -0.0034865286
 C    0.8110859175   -0.5911822168   -1.2233625226
 C    1.2533968327   -1.9836435983   -0.7501730996
 C    0.7515120489   -3.1947503240   -1.5010617243
 C    2.5848861809   -2.0256402368   -0.0461973596
 C    1.3106985783   -1.9218336783    0.7650682017
 C    0.8259364959   -0.5471457194    1.2508925040
 C    1.9276354830    0.3344667591    1.8563116072
 H    0.9656919618    2.0532808312   -0.1176538626
 H   -0.5771340959    1.8770448163   -0.9582298201
 H   -0.5419941079    1.9722542162    0.8052198497
 H   -0.9110936319   -0.3672221081    0.0143799438
 H    0.1367217666   -0.6541406884   -2.0837407813
 H    1.6683068488    0.0156815592   -1.5430753005
 H    1.1492826151   -3.2265938483   -2.5227571392
 H    1.0516430054   -4.1224673636   -1.0024568379
 H   -0.3429407220   -3.1949345680   -1.5733073417
 H    3.1076294821   -2.9770898455   -0.0136883288
 H    3.2454882689   -1.1676225331   -0.1215900643
 H    1.0369289762   -2.7917349244    1.3543618580
 H    0.0792489045   -0.7055669861    2.0380046744
 H    2.6881597290    0.6184466779    1.1222664135
 H    1.5130782863    1.2583268308    2.2715512535
 H    2.4375425112   -0.1964241886    2.6665864382