18

 O   -0.3144582268    1.5527501911   -0.0347783967
 C   -0.0882164481    0.1604101915    0.0348519892
 C   -1.3964779651   -0.6142213531    0.0149360604
 O   -2.0388617938   -0.2895199229   -1.2056027601
 C   -3.3538106229   -0.7897860366   -1.3137403957
 C   -3.9147728690   -0.3709222641   -2.6439206733
 C   -5.3581955781   -0.2000864751   -2.8421486453
 O   -4.4977618437    0.9308357284   -2.7159884880
 H   -0.9271008045    1.6828026822   -0.7687522497
 H    0.5461491896   -0.1894453648   -0.7955817138
 H    0.4443583751   -0.0378504945    0.9708665779
 H   -1.2150969758   -1.6994622950    0.0876121730
 H   -2.0245008834   -0.3110902278    0.8676043141
 H   -3.3527806796   -1.8912665908   -1.2414390861
 H   -3.9921255151   -0.3987033937   -0.5057784560
 H   -3.2964427631   -0.6335396186   -3.5027107593
 H   -5.7874694236   -0.3609050164   -3.8297399209
 H   -6.0410684321   -0.3632536198   -2.0088400694