19

 O    0.3058321269    1.1678636165   -0.6930142775
 C    0.0678904496   -0.1032836457   -0.1309562079
 C    0.2724742800   -0.3229173668    1.3956519505
 C   -1.0740692668   -1.0902539350    1.4534360543
 C   -2.3138679631   -0.2508379672    1.8933146407
 O   -2.0491173500    1.1285993227    2.2348597787
 C   -2.4439274548    1.5743371669    0.9099800480
 C   -2.6133697998    0.1259061916    0.4200510700
 C   -1.3735027692   -0.7047861738   -0.0414926358
 H    0.2995457425    1.8144367679    0.0181195087
 H    0.6830387586   -0.8076777744   -0.7026493403
 H    1.1638937885   -0.8906590836    1.6687941352
 H    0.2450210381    0.6011051318    1.9808439834
 H   -1.0494383463   -2.1235583342    1.7999974071
 H   -3.0217534867   -0.7172110347    2.5845502725
 H   -3.3872592025    2.1331377244    0.9556081397
 H   -1.6894570650    2.1969253862    0.4232771190
 H   -3.5473214163   -0.1159612485   -0.0858592201
 H   -1.6117928036   -1.4494478541   -0.8024074361