17

 C   -0.0693166268    1.4871344478    0.0108873391
 C   -0.0184138158    0.0318114109    0.0025520143
 C    0.0393319598   -1.1708450036   -0.0045577316
 C    0.0775143985   -2.6287134501   -0.0130265456
 C   -1.3299066298   -3.2466653509   -0.0027110871
 C   -1.3048091485   -4.7640989929   -0.0114100166
 O   -0.2808513315   -5.4127895787   -0.0251371452
 C   -2.6112455609   -5.4041565820   -0.0020911854
 C   -3.7025386944   -5.9119761592    0.0057502754
 H    0.9373308328    1.9197187855    0.0030415165
 H   -0.6011521867    1.8738044391   -0.8655950827
 H   -0.5832966680    1.8643284811    0.9020294311
 H    0.6214448938   -2.9927643979   -0.8921457205
 H    0.6384380106   -3.0024300325    0.8512295911
 H   -1.8981589678   -2.9169246751    0.8761928212
 H   -1.9151710701   -2.9072356154   -0.8666365735
 H   -4.6579702451   -6.3782493560    0.0120576996