21

 C    0.3555552161    1.5218195685    0.4870350103
 C    0.1489017338    0.0395136117    0.1278055795
 C    0.7001799384   -0.8518118788    1.2578731754
 N   -1.2928093296   -0.2289748706   -0.0685771653
 C   -2.2652909022   -0.0944560840    0.8682915449
 O   -2.1048672068    0.2373899034    2.0262615962
 C    0.8143745003   -0.3773891686   -1.1868252674
 C    0.7972077116    0.4663755243   -2.4111273092
 N    2.0553838565    0.2214877012   -1.6830773594
 H    1.4061409256    1.7328528576    0.7096681329
 H    0.0211907016    2.1880822575   -0.3133648755
 H   -0.2268019098    1.7493722833    1.3812883852
 H    0.2092822330   -0.6164448562    2.2026740525
 H    0.5286033943   -1.9081163233    1.0300409295
 H    1.7781361235   -0.6951540692    1.3621981940
 H   -1.5899297510   -0.4497236582   -1.0063803830
 H   -3.2647924503   -0.3313435279    0.4486023499
 H    0.7868287218   -1.4571184737   -1.3322456311
 H    0.7365491287   -0.0008869767   -3.3901370808
 H    0.3508368769    1.4549885806   -2.3554488375
 H    2.2921204576    1.0447311692   -1.1350049313