16

 C   -0.0469310195    1.5780534459    0.0607877918
 C    0.0007334756    0.0386295113    0.0031168341
 C    0.6759085977   -0.4664107205   -1.1825906503
 C    1.2405421972   -0.8704263960   -2.1744667119
 C    1.8743986129   -1.3241943623   -3.2882358254
 C    2.4380114628   -1.7274681089   -4.2786162585
 C    3.1204387790   -2.1960417501   -5.4787133427
 C    3.1887589653   -3.6613883572   -5.5724485104
 N    3.2504999601   -4.8107841127   -5.6605893467
 H    0.9621735926    1.9978093976    0.0665631507
 H   -0.5783535125    1.9827426234   -0.8042759550
 H   -0.5630720564    1.9037581272    0.9682173068
 H    0.5064658670   -0.3492802070    0.8968459437
 H   -1.0199258177   -0.3642305993    0.0340244930
 H    2.6167480061   -1.8192844623   -6.3790950868
 H    4.1454525698   -1.8032565589   -5.5160243723