16

 O   -0.2035168130    1.3428500454    0.1326989992
 C   -0.0301634856    0.0090147355    0.0292172931
 C    0.2201691315   -0.8091066389   -1.0382618660
 N    0.3150500853   -2.1188161333   -0.6141845423
 C    0.1252741227   -2.0870014297    0.6812945623
 N   -0.0913163766   -0.8051860422    1.1298065806
 N    0.3531116634   -0.3336510187   -2.3590311148
 C    1.3157344042   -1.0246303541   -3.2296737066
 C   -0.1439293607   -1.1986082841   -3.4392442410
 H   -0.1150135546    1.6844557932   -0.7680402002
 H    0.1296769723   -2.9329631644    1.3510802816
 H   -0.2627323277   -0.5033651402    2.0740490322
 H    1.8917862306   -0.3788008337   -3.8863587496
 H    1.8547489262   -1.8597030079   -2.7924121807
 H   -0.5756323570   -2.1493832030   -3.1413530046
 H   -0.6477550008   -0.6814991438   -4.2509866831