20

 C   -0.1909925471    1.6334179842   -0.1054288025
 C   -0.0005340508    0.1230582703   -0.0039156554
 C    0.9930521511   -0.5868762002   -1.0373125337
 C    1.9181070293   -0.8479868687    0.1690128514
 C    2.6223568705   -1.7545572224    1.2282947904
 C    2.1098207835   -0.4475789156    1.9910829930
 C    2.6851410834    0.3563848271    0.8133302281
 C    0.7826754425   -0.6274954315    1.1689973034
 H    0.7436712146    2.1859649483   -0.2219629652
 H   -0.8150766382    1.8727017239   -0.9745096697
 H   -0.7012372319    2.0200352124    0.7832968757
 H   -0.9950774616   -0.3297143371   -0.0565239266
 H    0.5466001796   -1.4876485069   -1.4677640304
 H    1.4003074881    0.0293744757   -1.8451241470
 H    2.1169124122   -2.6919583904    1.4754649531
 H    3.7091573647   -1.8825653446    1.1790905212
 H    2.2441844695   -0.2465506913    3.0584943038
 H    3.7724657546    0.3454131873    0.6912101442
 H    2.2900825652    1.3586488480    0.6637095112
 H    0.2205343109   -1.5232845085    1.4514252851