20

 C    0.0464026300    1.5880618366    0.0614427681
 C   -0.0804976453    0.0616305606    0.0129714285
 C    0.6288286497   -0.5579875346   -1.1836550534
 C    2.1909331172   -0.5633005176   -1.2411494342
 C    2.1525527888   -2.0166670439   -1.8010696922
 C    0.6990708639   -2.0844987629   -1.3311742060
 C    0.0516781625   -3.1182256318   -0.5203952850
 O   -0.3088547688   -2.9015229615   -1.8936501780
 H    1.0958807822    1.8967136662    0.1160716983
 H   -0.3874810217    2.0486559753   -0.8329341829
 H   -0.4683988003    2.0026795354    0.9335275177
 H    0.3260613931   -0.3719084750    0.9362881867
 H   -1.1422414338   -0.2164242801   -0.0175487519
 H    0.2271274268   -0.1369770172   -2.1145027329
 H    2.6689931665    0.1937338776   -1.8646517749
 H    2.6293725491   -0.5226472009   -0.2395737410
 H    2.2168564850   -2.0421804987   -2.8929014305
 H    2.8560045237   -2.7434732712   -1.3882211297
 H    0.5763649647   -4.0516377516   -0.3174850509
 H   -0.7114632636   -2.8486398747    0.2085110241