18

 C   -0.0836593556    1.5122553584   -0.0752379509
 C   -0.0001380466   -0.0080218567   -0.0209388390
 N    0.9121506622   -0.4360602386   -1.1546559561
 C    1.6195175005   -1.3074846555   -0.5728998328
 O    2.9443417550   -1.0469094860   -0.1826761389
 C    2.2831367820   -1.0442571500    1.1604985941
 C    1.1937900263   -1.9405496593    0.7868253213
 C    0.7116741111   -0.6003367552    1.2378012767
 C    0.1582240008   -0.3474631726    2.6180258947
 H    0.9168445253    1.9513528484   -0.0381340143
 H   -0.5640225256    1.8334228035   -1.0024779828
 H   -0.6711546560    1.8894531368    0.7693941693
 H   -1.0139709450   -0.4358921790   -0.0829004916
 H    2.9633739334   -1.0081277611    2.0032656931
 H    0.9341432964   -2.9597473760    1.0417361906
 H    0.7018295933   -0.9121363186    3.3819240365
 H    0.2146677482    0.7133781065    2.8819846216
 H   -0.8946668859   -0.6493273950    2.6726578484