18

 C    0.0525558750    1.5738562285    0.0462655238
 C    0.0258761120    0.0739381563    0.0439996765
 C    0.6045885236   -0.7867166090   -1.0868799507
 N    1.2454530418   -1.7109623076   -0.0993148039
 C    0.6671031990   -0.9567807534    1.0104432256
 C    1.3336311352   -0.7544948403    2.2544812758
 N    1.8251354313   -0.5798260020    3.2891535848
 C   -0.8636202984   -0.7837773445    0.8922894181
 N   -1.6357889871   -0.1731050480    1.9317494782
 H    1.0349248267    1.9437141317   -0.2633710469
 H   -0.6942050490    1.9681405489   -0.6526066944
 H   -0.1633975089    2.0002184420    1.0294210127
 H   -0.1313864041   -1.2443291688   -1.7578811770
 H    1.3606760122   -0.2687944571   -1.6859748406
 H    0.9085946343   -2.6702424114   -0.1472282956
 H   -1.3851995973   -1.6145606263    0.4147164908
 H   -1.7702221267   -0.8252760222    2.6991377533
 H   -1.1692112196    0.6376780033    2.3234702394