21

 C   -0.0045918851    1.5207592580   -0.0394945670
 C   -0.0266705851   -0.0095047770   -0.0106818249
 C    0.6654851128   -0.6652135788   -1.2292307235
 C    1.2270812078   -2.0268520864   -0.7454171588
 O    2.3971907359   -2.4463132214   -1.4240289856
 C    1.4219543276   -1.8187671099    0.7446891004
 O    2.1339798604   -0.5961446849    1.0255835440
 C    0.6983461980   -0.6237337953    1.1895019635
 C    0.1927222989   -0.4107040143    2.5900237871
 H    1.0267973217    1.8867204123   -0.0033801886
 H   -0.4668133567    1.9007847211   -0.9560328455
 H   -0.5482234333    1.9515482951    0.8075470797
 H   -1.0707701766   -0.3494492215    0.0403769706
 H   -0.0027286950   -0.7747656967   -2.0864397387
 H    1.5076128691   -0.0446591591   -1.5516876604
 H    0.4983783731   -2.8312027619   -0.9021777356
 H    3.0860256281   -1.8077312235   -1.2036679047
 H    1.6566304747   -2.6559386376    1.3982947506
 H    0.2218209569    0.6503661669    2.8592762804
 H   -0.8442171667   -0.7513437455    2.6825829914
 H    0.8069190735   -0.9585385894    3.3086766056