14

 N   -0.1030709427    1.4444688676    0.0060904746
 C   -0.0599665169    0.0351860690    0.0057619955
 C   -1.1559522741   -0.7901357108    0.0290054022
 N   -2.5025736457   -0.4823187845   -0.0137699626
 N   -0.6318452038   -2.0594373525    0.0188933771
 C   -1.3255258299   -3.2762042274   -0.0620975055
 O   -0.8143277620   -4.3567214703   -0.0348391873
 N    0.7612573374   -1.9927319016    0.0187020530
 N    1.0701797189   -0.7479869819   -0.0035941603
 H    0.5395676471    1.8245233473    0.6942771582
 H    0.1726153550    1.8260241314   -0.8945204807
 H   -2.6234421696    0.5218768291    0.0661820301
 H   -3.0757621128   -0.9631552738    0.6683547442
 H   -2.4120802207   -3.1034018516   -0.1666437985