19

 O   -0.0965766549    1.4760251799   -0.2189069774
 C    0.0010095092    0.0712110766   -0.1874090374
 C   -1.3655366664   -0.5976787716    0.0245091010
 C   -1.4000772418   -2.1325564794    0.0024440278
 C   -2.6400925966   -2.5071323233    0.8306723461
 O   -2.5294985001   -3.8528520904    1.2524003396
 C   -2.6442634382   -1.4738860657    1.9734002463
 C   -1.9737055747   -0.2365566876    1.3836771677
 O   -1.8990586781    0.8499908052    1.9116740482
 H   -0.5679277411    1.7306318628    0.5873382152
 H    0.4219939433   -0.2445032826   -1.1482927887
 H    0.6935228083   -0.2762460036    0.5990127390
 H   -2.0508322211   -0.1909862299   -0.7342292595
 H   -1.4279488386   -2.5566448015   -1.0032781280
 H   -0.5192238098   -2.5430752840    0.5125537465
 H   -3.5405574386   -2.3698894889    0.2110429099
 H   -3.3495180521   -4.1044080599    1.6885852646
 H   -3.6216881629   -1.2400700186    2.4031716594
 H   -2.0048759758   -1.8451546077    2.7858709799