17

 O    0.0147860816    0.0247303867    0.0819267303
 C   -0.0201252750    1.2161596199    0.0114200711
 C   -1.0811888768    2.3219976051    0.0371978145
 C   -0.0337853289    3.0333915803    1.0147882093
 C    1.0079353007    2.3506879230    0.0676336332
 C    2.3979174188    2.1024691355   -0.5295957305
 O    1.8139085078    2.3060798066   -1.8618119513
 C    0.7316525019    3.0594169981   -1.2440023021
 C   -0.8066889599    2.8884989283   -1.3987506170
 H   -2.1095997281    2.1452426550    0.3444148761
 H   -0.0172516850    4.1248236655    1.0187477082
 H   -0.1053779279    2.6389036778    2.0291697145
 H    3.1588035180    2.8614126939   -0.3125472994
 H    2.8036851784    1.0946468972   -0.4119819025
 H    1.0100177148    4.1222593068   -1.2346952343
 H   -1.1011953610    2.1702053090   -2.1687528463
 H   -1.3061081693    3.8390893013   -1.5990282738