16

 C    0.0066304434    1.4661057198    0.2549091012
 O    1.3830070807    1.5858882992   -0.2688221981
 C    1.1734171836    0.3286633088   -0.8722531875
 C    1.9184580101   -0.8940116512   -1.4216121707
 C    0.6937046362   -1.7562181056   -1.6247519506
 C   -0.5033133426   -0.8055207029   -1.2508899079
 C    0.0027003686   -0.0800340549    0.0150817583
 C    0.2958234752    0.1653094077   -2.1701263592
 N    1.2213009047   -0.9097576977   -2.7455695067
 H   -0.0368904798    1.7856705830    1.2976210362
 H   -0.6923787752    2.0519291397   -0.3506922629
 H    2.9215175355   -1.2758468796   -1.2784012163
 H    0.7091492084   -2.8395528702   -1.6697981644
 H   -1.5135346348   -1.1703298790   -1.4289236544
 H    0.1724040347   -0.6612085159    0.9232087703
 H   -0.0830529186    0.9641181390   -2.8019441573