19

 N   -0.0434923618    1.2766205887   -0.0193105523
 C   -0.0195380556   -0.0928225353    0.2219732913
 O    1.0143947006   -0.7098104636    0.4270763703
 N   -1.2482335247   -0.6895520301    0.1856127093
 C   -2.5230715068   -0.2573371214   -0.4016239120
 C   -2.9786816837   -1.7460252204   -0.4092900787
 C   -1.5607132799   -2.1064189293    0.0603849264
 C   -0.6549620408   -3.1722719465   -0.4770341881
 C   -1.1072477595   -3.1959518909    0.9756737066
 H    0.8162518288    1.7286617531    0.2536537597
 H   -0.8764812697    1.7850965203    0.2371924605
 H   -3.1087861047    0.4159281602    0.2350998187
 H   -2.4162868678    0.1934574817   -1.3951564653
 H   -3.7641732953   -1.9710026499    0.3148456321
 H   -3.2629756669   -2.1381681522   -1.3867881376
 H   -1.0846463648   -3.8931225347   -1.1659556327
 H    0.3767668150   -2.9016672316   -0.6590853444
 H   -0.3620468594   -2.9387176023    1.7192243729
 H   -1.8366496231   -3.9375009655    1.2864925333