23

 C    0.1859559890    1.3874534702   -0.0216798677
 O    0.1857643813   -0.0185296924   -0.0367546594
 C    0.5987787694   -0.5835318122    1.1896920244
 C    0.5865180350   -2.0911413784    1.0571946958
 C    1.6563398390   -2.7533109229    0.1462283197
 C    1.8693281220   -3.8449125179    1.2239340259
 C    1.1306333240   -5.1490623386    0.9421867319
 O    3.2455725522   -4.0806978326    1.4603996368
 C    1.1368287668   -2.9204666014    2.2498324677
 H    1.1902144508    1.7956660059    0.1764540961
 H   -0.1440657931    1.7275025555   -1.0065469195
 H   -0.5006689437    1.7897066719    0.7409233924
 H    1.6144028300   -0.2353120029    1.4504800963
 H   -0.0720438018   -0.2622020209    2.0070275274
 H   -0.4220704630   -2.4111824671    0.7784939351
 H    1.3532211623   -3.0814113706   -0.8503704021
 H    2.5522702928   -2.1322109860    0.0618164956
 H    1.5884147852   -5.6682147141    0.0943195784
 H    1.1672714797   -5.8129650511    1.8157226750
 H    0.0758212842   -4.9709874549    0.7104023925
 H    3.3221734363   -4.7896469895    2.1084751196
 H    1.8723189823   -2.3554774843    2.8303944355
 H    0.4150505294   -3.3806455656    2.9306490925