16

 C   -0.0063501569    1.4621620496   -0.0054776190
 O    1.1827620427    0.6645910775   -0.0685754036
 C   -0.0858666040    0.0012515924    0.0193533201
 C   -0.3883291860   -0.8397719599    1.2585586006
 C   -0.2800181181   -2.3121020353    0.7797762036
 C   -0.5620888529   -2.2383588238   -0.7103337895
 O   -1.7284984265   -1.4676031827   -1.0329961334
 C   -0.4411384135   -0.8474530864   -1.1680658332
 H   -0.1431543323    2.0217111305    0.9192480663
 H   -0.2543080039    2.0067207327   -0.9158676287
 H    0.3051172505   -0.6001673438    2.0670189612
 H   -1.4035045080   -0.6295708279    1.6042884787
 H    0.7321632914   -2.7050883143    0.9290893628
 H   -0.9735721647   -2.9759025978    1.3038517789
 H   -0.3698430144   -3.0868315035   -1.3617518311
 H   -0.1394587434   -0.5514160674   -2.1687660136