17

 O   -0.1589545026    0.0360212026   -0.5236899678
 C   -0.1151714299    1.0603847299    0.1180642971
 N    1.0264389299    1.7700931260    0.3678462490
 C    2.3404452695    1.2782274165   -0.0035023850
 C    2.5663269085    0.8914675513   -1.5017585027
 C    3.9237879232    1.6396643625   -1.4609586184
 C    3.4440699199    2.3721281480   -0.1800507500
 C    2.7887784785    0.2149737042    0.9100938716
 N    3.1637037966   -0.5986933800    1.6405249401
 H   -1.0083543819    1.5524099225    0.5502804850
 H    0.9840373775    2.5177836435    1.0446847296
 H    2.5547877543   -0.1716064973   -1.7345543992
 H    1.8267092131    1.4022479000   -2.1200504323
 H    4.7594337731    0.9669563790   -1.2559754339
 H    4.1770272152    2.2626184548   -2.3194796697
 H    2.9685910946    3.3288952953   -0.4108412324
 H    4.1473371305    2.5009043412    0.6436353189