16

 O    0.0323503692    0.0294931075    0.0010869955
 C    0.0100794826    1.2231507875    0.0075936649
 O    1.1353071603    1.9682904699    0.0023842588
 C    0.9902277367    3.3668294171    0.0113088423
 C    0.3469886309    4.2631219737    1.1088217493
 C    0.9268921139    5.2158139899    0.0218090424
 C    2.2018717433    4.3162405207    0.0019159965
 C    0.3212168322    4.2746483784   -1.0611486519
 H   -0.9131401445    1.8304070800    0.0178646447
 H   -0.7413638062    4.2337563480    1.2026402086
 H    0.8417690034    4.2693642790    2.0826328848
 H    0.8937025914    6.3014110097    0.0279605316
 H    2.8222055708    4.3227839314    0.9007840919
 H    2.8007466791    4.3323356613   -0.9112749988
 H    0.7927660221    4.2912145923   -2.0463035262
 H   -0.7690553750    4.2463502437   -1.1294379445