15

 C    0.0279907826    1.4003686740    0.0749229204
 O    1.3515259229    1.8783160345    0.0423426879
 C    2.1165457535    1.1919732747   -0.9137871497
 C    1.3752991547    0.4031090261   -2.0431103775
 N    2.6276901890   -0.4338188152   -2.1438562071
 C    2.3796497638   -0.3178987020   -0.6576317184
 C    0.8551575645   -0.5269701102   -0.8927120369
 O   -0.0357067260   -0.0067299336    0.0645475614
 H   -0.4305403281    1.7499151891    1.0016561886
 H   -0.5229630773    1.7952439014   -0.7959337053
 H    2.9727630320    1.7973714956   -1.2098657158
 H    0.8644145320    0.7756814030   -2.9318489584
 H    2.3725947558   -1.3775289915   -2.4539741056
 H    3.0302078338   -0.7767564918    0.0870244839
 H    0.5308007268   -1.5335516942   -1.1721158475