23

 C    0.0604462652    1.2355672821    0.2640491283
 O   -0.1970087783   -0.0445447309   -0.2592723452
 C    0.6076323025   -0.5347954802   -1.3091651520
 C    0.5265443361    0.1508285147   -2.6503840668
 C    1.7898163344    0.2559318394   -1.8138391076
 C    0.6818798994   -2.0466871335   -1.2105136460
 C    1.3932768283   -2.7758738103   -2.3357791773
 C    0.8089985776   -2.6446131543    0.1733747918
 C   -0.4928782637   -2.7645066460   -0.5834727638
 H    1.0577963178    1.3085536647    0.7188668834
 H   -0.0417556630    2.0333194732   -0.4867870210
 H   -0.6907740353    1.4030930226    1.0401084545
 H    0.5440472992   -0.4411042094   -3.5572391774
 H   -0.1003412021    1.0345960505   -2.7098316268
 H    2.0136758029    1.2159482402   -1.3652315922
 H    2.6711572322   -0.2872846870   -2.1338968378
 H    2.4378095212   -2.4630475814   -2.4409789808
 H    1.3989325871   -3.8510726188   -2.1354308213
 H    0.8960914446   -2.6303485010   -3.3007434334
 H    1.4292319709   -3.5276934156    0.2865307317
 H    0.8245780223   -1.9655258656    1.0168729783
 H   -1.3239193785   -2.1659052479   -0.2342829109
 H   -0.7650059408   -3.7307776755   -0.9954206676