23

 C   -0.6252536692    1.3802634316    0.0548405150
 C   -0.0639723001   -0.0312091595   -0.0503562053
 C    0.7333315067   -0.4766647733   -1.3043849219
 C    1.8227986381    0.4952741176   -1.8522978404
 C    2.9203845048   -0.2949048302   -1.0779585476
 C    1.8223908260   -1.1345442390   -0.3858350965
 C    1.1216401017   -0.5235415594    0.8674935545
 C    1.8758874888    0.5312402342    1.6676970782
 O    0.7496217250   -1.6011332975    1.7218614454
 H    0.1412688153    2.1496668205   -0.0779063803
 H   -1.3932077408    1.5482068031   -0.7086597412
 H   -1.0935496212    1.5510400074    1.0310687736
 H   -0.8748327204   -0.7517179211    0.1033692396
 H    0.1798631813   -1.0338329113   -2.0617347130
 H    1.9344934572    0.4803205387   -2.9389507290
 H    1.7037713012    1.5392291197   -1.5491533698
 H    3.5301862733   -0.9088176588   -1.7461653404
 H    3.5985885668    0.2761871642   -0.4383887702
 H    1.9686570312   -2.2109278509   -0.2975342252
 H    2.1969096976    1.3775425680    1.0548917291
 H    1.2362444314    0.9337940423    2.4634478624
 H    2.7596857362    0.0879630022    2.1367421305
 H    0.2226446593   -1.2378182886    2.4426865827