15

 O   -0.5265398987    0.6543485510   -0.6002666517
 C    0.2133885297    0.9349971301    0.3060668202
 C    1.3967618945    1.8726316845    0.1883726657
 C    1.5003773723    2.6698910823   -1.1590098645
 N    1.2372819327    3.8907146207   -0.3563776745
 C    1.0951068782    5.2227129882   -0.1283190053
 N    0.9266478294    5.4300791398    1.1673120846
 C    0.9733321504    4.2044337970    1.8004217439
 C    1.1709281402    3.2419425449    0.8423058846
 H    0.0595759574    0.5264539045    1.3290181280
 H    2.3101976988    1.3553621111    0.5021178751
 H    2.4838973741    2.6658565190   -1.6321030890
 H    0.7164503685    2.4338954148   -1.8792017732
 H    1.1119165254    5.9809494502   -0.8948273360
 H    0.8631250772    4.1201973420    2.8694092922