11

 N    0.0571894170    1.3955257743    0.0764258667
 C    0.0259842520    0.0373705703    0.0259952791
 C   -1.0789516199   -0.7981106201    0.0204325170
 N   -2.4236465089   -0.3938040912   -0.0031833332
 N   -0.5811608520   -2.0729266597    0.0284917908
 N    0.6559839410   -2.1298722592    0.0289291692
 O    1.1344479249   -0.6558009364    0.0332644389
 H    0.8892140326    1.8465842511   -0.2694631270
 H   -0.8173155834    1.8380154428   -0.1656920547
 H   -2.9170216761   -0.6208492267    0.8543496733
 H   -2.9370045572   -0.8072003951   -0.7742567502