22

 C   -1.2892253360    0.6084173725    0.2437692650
 C    0.0939903904    0.0542571182   -0.1239261664
 C    0.8021370253   -0.5009421193    1.0942953316
 C    0.7446513182   -1.9179893565    1.5513669461
 C    0.2596925757   -3.0124447162    0.6106145706
 C    1.2415912677   -3.0270751966   -0.5842774241
 O    0.5156598931   -2.7141365986   -1.7729986674
 C    2.3430429236   -1.9886096419   -0.2139457418
 N    2.0190530911   -1.3393231501    1.0671093415
 H   -1.2175974476    1.3817925113    1.0167010684
 H   -1.7790164009    1.0526788291   -0.6279856952
 H   -1.9414170749   -0.1828201952    0.6283304603
 H   -0.0062023058   -0.6976776640   -0.9093263428
 H    0.7076689014    0.8642573014   -0.5422229086
 H    0.8752316027    0.2386390931    1.8934251336
 H    0.6928978359   -2.1265127030    2.6175993428
 H    0.2637037591   -3.9738776015    1.1311143607
 H   -0.7555358315   -2.8509278771    0.2365820833
 H    1.6915242984   -4.0224673055   -0.7014497041
 H    1.1372747175   -2.7074338002   -2.5078455842
 H    3.3092440060   -2.4887592703   -0.0853835961
 H    2.4600759709   -1.2501833395   -1.0157157033