19

 C   -0.2528105216    1.2896750074    0.1785724336
 O    0.0732911384   -0.0924969896    0.0667804751
 C    0.7754143162   -0.5655906712    1.1585135869
 C    2.1498674994   -0.1717036833    1.6844528680
 C    2.0156298482   -1.4630421215    2.5482602762
 C    0.8526778329   -1.1699885955    3.5498577937
 C   -0.0292762106   -1.1852295008    2.3205323125
 O   -1.4065212269   -1.1714859900    2.3077830834
 C    0.9528608050   -2.0233501412    1.5154219277
 H    0.6523665556    1.9105067219    0.1981599489
 H   -0.8421867059    1.5486616931   -0.7034319479
 H   -0.8394264406    1.4934709325    1.0840655674
 H    2.9207589177   -0.2800281527    0.9153148710
 H    2.2776076256    0.7789716235    2.2151899146
 H    2.9012192960   -1.9999042875    2.8757303466
 H    0.6576735781   -2.0269053311    4.2013214185
 H    0.9140671929   -0.2526384225    4.1474640798
 H   -1.6752074214   -0.9162423795    1.4148689785
 H    0.8812913607   -2.9320186821    0.9360468555