18

 C    0.0518622087    1.4489219429    0.0153117185
 N    0.0886585849   -0.0047415978    0.0263218589
 C    0.5845581997   -0.6286168906   -0.9454854794
 C    0.7112708471   -2.1334613222   -1.0518073891
 C    0.8917476366   -2.3543747137   -2.5695807184
 C    1.6192521819   -1.0466558057   -2.9623093584
 O    1.0935609778   -0.0481775044   -2.0869437492
 C    1.6040028187   -3.5608006010   -2.9519461355
 C    2.2095120241   -4.5499527002   -3.2671925508
 H    0.5351812298    1.8226244332    0.9249962735
 H    0.5326029626    1.9096012220   -0.8546127711
 H   -0.9924454474    1.7799304907    0.0555723278
 H    1.6030048040   -2.4700754443   -0.5118619277
 H   -0.1533540285   -2.6402055852   -0.6248753384
 H   -0.0973468819   -2.3490286198   -3.0439775907
 H    2.7013185279   -1.1448684295   -2.8124506182
 H    1.4280524792   -0.7373685108   -3.9917360550
 H    2.7375778748   -5.4279962834   -3.5465314069