16

 C    0.0667119409    1.5213042505    0.1629995309
 C    0.0139340234    0.0122161185    0.0244587873
 O    0.6949700245   -0.5465516164    1.1634372463
 C    0.7552120627   -1.8864078730    1.2220028891
 N    0.2427577682   -2.6358525429    0.3264430875
 C    1.4520841195   -2.3410915118    2.3907379780
 C    2.0302996892   -2.7847422430    3.3584658402
 C    2.6786159199   -3.2806843935    4.4440419047
 C    3.2551122929   -3.7218095113    5.4091552086
 H    1.1009594777    1.8759246921    0.1831590236
 H   -0.4421040097    1.9877185121   -0.6857523462
 H   -0.4268334429    1.8466997484    1.0829802675
 H   -1.0132397773   -0.3664477009    0.0045358322
 H    0.5053956554   -0.3375301075   -0.8893271706
 H    0.3942694247   -3.6164045344    0.5514007559
 H    3.7623560307   -4.1084095369    6.2584515348