13

 O   -0.7472217819    0.9677726321   -0.5489766961
 C    0.1255758073    1.0213415398    0.2673475518
 C    1.3810134201    1.9460402485    0.1218421042
 C    1.2858997173    2.6568871331   -1.2622412469
 O    1.1839595732    3.8379780509   -1.4015280345
 C    1.3658355913    2.8756557563    1.2448431300
 C    1.2904485099    3.6124712380    2.1894633219
 C    2.5568630447    1.0767027407    0.1162173649
 C    3.4888827849    0.3205224620    0.0582839499
 H    0.1303692432    0.4282489309    1.2023197797
 H    1.3362001747    1.9436321124   -2.1069959541
 H    1.2456841665    4.2816981565    3.0135775892
 H    4.3289009189   -0.3295846512    0.0240990698