22

 C   -0.1580160480    1.6463705788    0.0491627414
 C   -0.0401809162    0.1187026895   -0.0643273047
 C   -1.4307611401   -0.5942549636    0.0326133651
 N   -1.3731652673   -2.0542852578   -0.0756526431
 C   -2.1096648588   -0.2216362207    1.2791626592
 N   -2.6134002803    0.0760092252    2.2756903027
 N    0.6427562199   -0.3772133349   -1.2671797403
 C    0.2072449793    0.2175788274   -2.5252197515
 C    2.0939832201   -0.3776336632   -1.1542529558
 H    0.8195701801    2.1220606782   -0.0732973198
 H   -0.8308255144    2.0576510284   -0.7100335139
 H   -0.5484599056    1.9295006099    1.0297272599
 H    0.5465749596   -0.2480176568    0.7861681902
 H   -2.0581305012   -0.2222520544   -0.7895663387
 H   -0.6767383938   -2.2498005514   -0.7938047890
 H   -1.0054593512   -2.4411146871    0.7900295397
 H    0.5236669654    1.2670144364   -2.6523897200
 H    0.6261809102   -0.3587789367   -3.3561124697
 H   -0.8818537525    0.1796973216   -2.6156155596
 H    2.3996302682   -0.9141713403   -0.2513222596
 H    2.5244926906   -0.8959674076   -2.0173178269
 H    2.5378624959    0.6338826790   -1.1201753555