22

 C   -0.2807216650    1.5567773906   -0.0222819689
 C    0.0469551013    0.0695326683   -0.0207000873
 C    1.1936131206   -0.4684548807   -0.9435473300
 C    1.8184930041   -1.2226525728    0.2678470441
 C    2.9192306679   -0.4971773312    1.0739360352
 N    2.6726054361    0.9578491739    0.9523883619
 C    1.8961647979    0.1640773059    1.9358600829
 C    0.7445140779   -0.5910865255    1.2175549980
 C   -0.0906196945   -1.4383422135    2.1536344387
 H    0.6188354744    2.1552899432    0.1327515471
 H   -0.7312204361    1.8524567070   -0.9769052502
 H   -1.0009780845    1.8019765990    0.7675782320
 H   -0.8723444883   -0.4949581390   -0.2198326567
 H    0.8538986357   -1.1215736374   -1.7510435949
 H    1.8355616606    0.3105675694   -1.3572707329
 H    1.9261353332   -2.3059737263    0.2021588197
 H    3.9111883228   -0.8614912300    1.3144576800
 H    3.4096277455    1.4315426335    1.4737412038
 H    1.9265296247    0.4262773266    2.9881921933
 H   -0.7645876293   -0.8167855816    2.7571190167
 H   -0.7059869738   -2.1532084311    1.5969505658
 H    0.5402286187   -2.0078967981    2.8466522919