19

 C    0.4698175225    1.6239991979   -0.0330219777
 O    1.5731682445    1.2635198726    0.8337970725
 C    1.2072061211   -0.1247131578    0.7837664454
 C   -0.0114473869    0.1602324902   -0.1338954684
 C    0.5993396105   -0.7386808301   -1.2524998106
 C    1.0562585335   -0.1141687642   -2.5876373125
 C    2.5176018470    0.1958779427   -2.3385043582
 C    2.9584212318   -0.2468181024   -1.1594435049
 C    1.8831852733   -0.9398438857   -0.3729096570
 H   -0.2296925162    2.2953995857    0.4802110536
 H    0.8122435731    2.1035823688   -0.9570817777
 H    1.1657579404   -0.5848121673    1.7748343632
 H   -1.0463376288   -0.0309489577    0.1484335219
 H    0.0009077971   -1.6403232092   -1.3942691270
 H    0.9338516129   -0.8089311204   -3.4291225020
 H    0.4787423784    0.7815897702   -2.8518933340
 H    3.1268365475    0.7207193882   -3.0673524965
 H    3.9701847947   -0.1236618572   -0.7901351675
 H    2.1412195337   -1.9659216844   -0.0900186026