21

 C   -0.1218498377    1.4675019332    0.0408033136
 C    0.0129023578   -0.0231643262   -0.0424306233
 C    0.9473515047   -0.8467836306   -0.9284973724
 C    0.1183396587   -2.0754700585   -0.4648669353
 C    0.0923974338   -3.3914234481   -1.1776531144
 O    0.4574185222   -2.1732640243    0.9562050876
 C   -0.2962304516   -0.9764679971    1.1328330576
 C   -1.0853880856   -1.0913391692   -0.1268393122
 C   -2.5382379730   -1.0613631625   -0.4733309979
 H    0.7968189133    1.9272924956    0.4237486868
 H   -0.3316244152    1.9107530482   -0.9397321749
 H   -0.9377387973    1.7566142117    0.7130449386
 H    0.7889641286   -0.6258763666   -1.9887284464
 H    2.0186436768   -0.8729792408   -0.6986179945
 H    1.0852044731   -3.8538926855   -1.1477268393
 H   -0.6174660611   -4.0772559049   -0.7061747159
 H   -0.1918863336   -3.2572238701   -2.2258057436
 H   -0.5568472304   -0.6571046287    2.1346638469
 H   -3.0323936733   -0.2096555435    0.0071401612
 H   -2.6974639160   -0.9638450623   -1.5538411308
 H   -3.0514036843   -1.9708460699   -0.1403368715