22

 C    0.3608471371    1.5395029482   -0.1960784312
 C   -0.1788777531    0.1342417963    0.0952949561
 C    0.5310885349   -0.5261485379    1.2600504866
 C    0.5592521479   -2.0093968993    1.4925744954
 C   -0.1189784550   -3.0202695844    0.5898247774
 C    0.4745155565   -4.4261674201    0.7387317308
 C    1.8449130794   -1.2910240446    1.0705931645
 C    2.3689141646   -1.4881364853   -0.2501165838
 N    2.7900625836   -1.6473178639   -1.3171055722
 H    1.4173750167    1.5022281355   -0.4789000072
 H   -0.1897689161    2.0072241223   -1.0173947207
 H    0.2696112740    2.1896676097    0.6810774357
 H   -1.2502797352    0.1886356281    0.3266445565
 H   -0.0882403465   -0.4807123621   -0.8048732679
 H    0.5269296679    0.0793112133    2.1639790570
 H    0.5723064448   -2.3090430671    2.5383887387
 H   -1.1888759620   -3.0412547831    0.8332681475
 H   -0.0463684491   -2.7070244458   -0.4557803500
 H    0.4027896209   -4.7799283900    1.7732121151
 H   -0.0536730557   -5.1427989679    0.1031549648
 H    1.5304599795   -4.4377788607    0.4515529765
 H    2.6131457150   -1.1582019709    1.8247617804