16

 N    0.0075646316    1.4366936677    0.1357650460
 C   -0.0378967795    0.0558745249    0.0490328199
 C   -1.2522818044   -0.5877251240    0.0361660700
 C   -1.5150279068   -1.9809471009    0.0152357186
 C   -0.6885469347   -3.0635704102   -0.0188971044
 C    0.7649983712   -3.1321055259   -0.0418880746
 O    1.3470897027   -4.2155086510   -0.0855840186
 C    1.5800647083   -1.9011221713   -0.0084894954
 C    1.2518460624   -0.5918734520    0.0325638853
 H    0.8390089495    1.8915070079   -0.2065121973
 H   -0.8422561839    1.9353747718   -0.0770021434
 H   -2.1321130562    0.0516463557    0.0496061528
 H   -2.5776830281   -2.2172546909    0.0193532572
 H   -1.1486436422   -4.0475468803   -0.0363008901
 H    2.6408872688   -2.1401164575   -0.0176853773
 H    2.0912098712    0.1021118461    0.0631420314