21

 C   -0.3083686843    1.5041286914    0.1347060215
 C   -0.0643118278   -0.0045811740   -0.0140071130
 C   -1.3534581374   -0.8062201193    0.1630823715
 C    0.8314590208   -0.3743634023   -1.2513240525
 C    2.0636883430   -0.6287033951   -0.3371830960
 C    2.8281711675   -1.9338021343   -0.4699451176
 O    2.9251230923    0.5082047217   -0.4079527414
 C    1.1049959505   -0.4750779474    0.8755151011
 O    1.2367666654   -0.6662511078    2.0519560799
 H    0.6206858205    2.0668475344    0.0105483904
 H   -1.0228251245    1.8479078911   -0.6216355622
 H   -0.7200595625    1.7317636158    1.1231748841
 H   -2.0986963430   -0.5058920886   -0.5818848132
 H   -1.1800892152   -1.8815993640    0.0519875046
 H   -1.7783393727   -0.6364862243    1.1573513678
 H    0.4965928235   -1.2769937608   -1.7678066669
 H    0.9871061057    0.4250199288   -1.9770062885
 H    3.4004699501   -1.9416204632   -1.4027803736
 H    3.5239305320   -2.0549541935    0.3680247062
 H    2.1516601262   -2.7941328799   -0.4655559706
 H    3.5100027299    0.4750289312    0.3586644084