17

 O   -0.1937628614   -0.0040190533    0.0100911905
 C   -0.1089400355    1.1840517260    0.0137798611
 C   -0.9931493696    2.4433084638   -0.0263452964
 C   -0.0313341905    2.9629711694    1.0970761223
 C    0.9501033148    2.3015562409    0.0696822273
 C    0.0762115504    2.9944587169   -1.0357372461
 C    0.1140907646    2.4781107159   -2.4771346501
 C   -0.9596555582    3.0388924441   -3.2897687110
 C   -1.8539199919    3.5187900904   -3.9334429039
 H   -2.0743440639    2.5405691718   -0.0836978457
 H    0.0449652996    4.0508393654    1.1579133661
 H   -0.1122771066    2.5032266940    2.0830009294
 H    2.0348016064    2.2375480175    0.1238932286
 H    0.1478206951    4.0852239736   -1.0054853679
 H    1.0839874266    2.7343367559   -2.9233995561
 H    0.0519657804    1.3824205353   -2.4887502048
 H   -2.6404803005    3.9315606924   -4.5150702332