16

 C   -0.1619235895    1.4074426874    0.4300303621
 C    0.0965987671   -0.0601137924    0.1719169753
 C    1.4605789283   -0.5330447313   -0.2961387404
 C    0.9826533660   -0.8707106117    1.0776432980
 O    1.6652887989   -0.1923524654    2.1322289509
 C    1.1696868634   -0.3701539486    3.3589017775
 O    0.2296385953   -1.0453601858    3.6741644575
 C    1.9681508364    0.3918360553    4.3280945572
 N    2.5570600744    0.9745945918    5.1324890700
 H    0.7214800591    1.9015972310    0.8428023452
 H   -0.4303338875    1.9196152166   -0.4991260121
 H   -0.9858820328    1.5431716349    1.1384595890
 H   -0.7564221597   -0.6103643736   -0.2160362253
 H    1.5368263346   -1.3333238854   -1.0232197001
 H    2.2407157027    0.2178974010   -0.3632019459
 H    0.7065560533   -1.8819452239    1.3478735310