17

 N   -0.1863146687    1.1938734376   -0.1089783624
 C   -0.5250605505    0.0044365872   -0.3550088829
 O   -0.2879871239   -0.9469101793    0.5920507231
 C   -0.6626120690   -2.2485524087    0.3138587263
 C   -0.4492169697   -3.4009589530    1.2942650703
 C   -1.1205090236   -4.0609741391    0.0699967648
 C   -2.0299405819   -2.8186889357   -0.2145042738
 N   -1.6146786422   -2.6608215588   -1.6498190868
 C   -0.3734310860   -3.1381556406   -0.9505720213
 H   -0.4247378024    1.7857029353   -0.9029097168
 H   -1.0017062571   -0.3883023641   -1.2575993563
 H    0.5879676885   -3.6800220937    1.4965711519
 H   -1.0337316350   -3.3672676037    2.2171752342
 H   -1.3934058276   -5.1013112298   -0.0926337007
 H   -3.0368192570   -2.6153178246    0.1511767519
 H   -2.0115679377   -3.4164226268   -2.2150674370
 H    0.5774934939   -3.3123616721   -1.4548367744