25

 C   -0.1164688389    1.5090251640    0.1824039466
 C   -0.0155157527   -0.0147326550    0.0471352760
 C    0.6827842718   -0.5557352331   -1.2249106082
 C    0.6727240116   -2.0941815524   -1.1696021605
 C    0.0041355109   -0.0578710992   -2.5268825835
 C   -1.4842874583   -0.3856734787   -2.6893645285
 C    2.1645813439   -0.0691867900   -1.2903521215
 C    2.9782091434   -0.4084233628   -0.1289413292
 C    3.6452731451   -0.6867854653    0.8325137074
 H    0.8693075206    1.9836734623    0.2117636323
 H   -0.6827936236    1.9626750942   -0.6372582784
 H   -0.6270353654    1.7716603543    1.1143106953
 H    0.5213214462   -0.4109017217    0.9165309188
 H   -1.0226083425   -0.4450991534    0.0949735541
 H   -0.3450976569   -2.4844266650   -1.0785922118
 H    1.1184053234   -2.5255865193   -2.0733255438
 H    1.2455661941   -2.4531794374   -0.3095629279
 H    0.1358483281    1.0284535228   -2.6037812264
 H    0.5539242916   -0.4833064155   -3.3771160177
 H   -1.6722577205   -1.4631846182   -2.6662503215
 H   -2.0934117272    0.0755154537   -1.9058425457
 H   -1.8508819140   -0.0112012445   -3.6503807747
 H    2.6292941646   -0.4969895640   -2.1885283449
 H    2.1847534682    1.0182092928   -1.4330156359
 H    4.2412973966   -0.9295021789    1.6769169492