15

 C    0.0113099465    1.5343735160    0.1927052313
 N    1.3336815478    1.9838193918   -0.2495813698
 C    2.3402779669    1.1652959854   -0.6773136743
 N    2.3277668067   -0.1179440128   -0.7739914602
 C    1.1207229840   -0.6836524635   -0.3828797167
 N    0.8931371390   -1.9957968060   -0.4046232217
 N   -0.3749657676   -2.1081067612    0.0438135650
 C   -0.9562287760   -0.9174912356    0.3481463245
 C   -0.0086550365    0.0409812529    0.0820744267
 H   -0.1702484911    1.8725089182    1.2250387864
 H   -0.7677670724    2.0029739933   -0.4289445008
 H    1.5158133431    2.9726144789   -0.2373827185
 H    3.2436676447    1.7043819660   -0.9610004452
 H   -0.7808253081   -3.0242774834    0.1195446196
 H   -1.9686223670   -0.8600653999    0.7177359239