19

 C   -0.0067434990    1.5832264536   -0.0980551666
 C    0.0110434638    0.0646959495    0.0352642079
 O    0.7462164345   -0.2449653719    1.1988878627
 C   -1.4219478367   -0.5173434745    0.0790584240
 O   -2.2090639558   -0.0772569486   -1.0109818058
 C   -1.4288819504   -2.0733369899    0.1125675199
 N   -0.7426465597   -2.5999887205    1.3020435692
 C   -2.8069942523   -2.5892810613   -0.0138702766
 N   -3.8673813296   -3.0479136776   -0.0480048063
 H    1.0204629889    1.9543739674   -0.1379614036
 H   -0.5394395044    1.9004348789   -0.9963766744
 H   -0.4961152725    2.0283652066    0.7738746478
 H    0.5014505319   -0.3648754748   -0.8638913311
 H    0.6112821530   -1.1899934090    1.3803094769
 H   -1.9229907758   -0.1442697373    0.9803651934
 H   -1.7259979785   -0.2526846312   -1.8273518018
 H   -0.8674810449   -2.4189831147   -0.7658119178
 H   -1.2938480613   -2.4058844490    2.1340681298
 H   -0.6516831912   -3.6094053959    1.2395236422