18

 C   -0.1089188023    1.4506959606    0.2544874336
 C    0.0187136507   -0.0559033069    0.0423939626
 O    0.7758563037   -0.6364146275    1.1191058335
 C    2.1239173150   -0.6710912785    0.9505500829
 N    2.7127900556   -1.1572065564    2.0797872660
 O    2.7112318419   -0.3048639305   -0.0411050630
 C   -1.3325970839   -0.7352187585   -0.0039538490
 C   -1.6196953179   -2.0316465128    0.6155288462
 O   -2.0731304619   -0.8115216469    1.2122467368
 H    0.8801483705    1.9139961405    0.2532995114
 H   -0.6987157152    1.8987985670   -0.5514648294
 H   -0.6071059795    1.6544632384    1.2059853225
 H    0.5490363940   -0.2558625822   -0.8941007191
 H    2.1467098370   -1.5892796056    2.7889753102
 H    3.6856280388   -1.3998451325    2.0180958128
 H   -1.9256135489   -0.4363315584   -0.8707514851
 H   -2.3999196156   -2.6660522999    0.1971902945
 H   -0.8316513922   -2.5450944400    1.1595584626