18

 C    0.0102209429    1.5057084411    0.0593117925
 C    0.0311934688    0.0000758089   -0.0327842748
 C    0.6633672846   -0.7158106012   -1.2482644283
 C    0.2826256592   -2.0906196579   -0.6843504116
 C    0.9225155695   -2.0627477167    0.7130108158
 N    0.6802058964   -0.6584265214    1.1418660622
 O   -1.1520974754   -1.9526944992   -0.4797115573
 C   -1.3609495707   -0.6609123409   -0.0709695016
 O   -2.4370513404   -0.2163442315    0.1913161468
 H    1.0275821685    1.9099161486    0.0986620375
 H   -0.4969993761    1.9388221170   -0.8065163115
 H   -0.5275920192    1.8181289639    0.9578241042
 H    0.1749554624   -0.5036841412   -2.2027291969
 H    1.7415191977   -0.5539652275   -1.3310816485
 H    0.4567997934   -2.9801399548   -1.2856610214
 H    0.4259620589   -2.7726614112    1.3813285130
 H    1.9883044938   -2.3126369724    0.6694709683
 H    1.5582508656   -0.1863908936    1.3307461516