21

 C   -0.1692171500    1.4087057105   -0.1391481325
 C    1.2532061364    0.9872614283    0.1241038852
 C    0.1655830392   -0.0513067233    0.0516564069
 C   -0.2772064070   -0.7645877176    1.2995536949
 C   -1.6786877811   -1.3676206770    1.1654847138
 O   -2.0347749010   -2.1097557591    2.3208265020
 C   -1.0900048780   -3.1361557869    2.5771429480
 C    0.3062556498   -2.5446843189    2.7298747361
 O    0.6639313587   -1.8020965306    1.5757264981
 H   -0.7025599086    1.9169554755    0.6577350186
 H   -0.4365581797    1.7458921661   -1.1341510460
 H    1.9666957660    1.0362837198   -0.6905040368
 H    1.6764017420    1.2030157023    1.0991942233
 H    0.1524170136   -0.6746992061   -0.8382244780
 H   -0.2890408356   -0.0562893549    2.1473454571
 H   -2.4290491131   -0.5801054894    1.0526000050
 H   -1.7077978566   -2.0136948360    0.2715509793
 H   -1.4080942707   -3.6391239344    3.4955945968
 H   -1.0904007152   -3.8697596707    1.7537738718
 H    0.3329085763   -1.8986496593    3.6232056516
 H    1.0572791045   -3.3325516283    2.8459973949