15

 O   -0.1046153546    1.4383509798   -0.0784856640
 C   -0.0106198254    0.0411641114    0.0328666945
 C    0.2444092871   -0.5883541725    1.4500705969
 C   -1.1151065861   -1.2856362475    1.3654467253
 C   -2.2021648964   -0.2785729436    1.1903964382
 C   -1.3766134292   -0.6501949295   -0.0244279114
 C   -1.9484374974   -1.2309708783   -1.1932466951
 N   -2.3942134086   -1.7104456407   -2.1483650055
 H    0.7849637065    1.8051470951   -0.1035983877
 H    0.6708883662   -0.3806174188   -0.7149879047
 H    1.0950428968   -1.2723462326    1.4556699532
 H    0.3497601767    0.1323087462    2.2659679678
 H   -1.3191015673   -2.3108998030    1.6445364931
 H   -3.2140514085   -0.6674528999    1.1786120060
 H   -2.0987938797    0.7240641440    1.5933871533