21

 C   -1.0058569550   -1.2723162279   -0.4347111457
 O    0.0800112704   -0.4502009662   -0.0486154422
 C    0.7396870081   -0.8096016171    1.1054053991
 C    0.1186867860   -1.3762423117    2.3626880615
 C    1.2663151913   -2.1187260521    1.6937739010
 O    1.1334686504   -3.4186108291    1.2310012979
 C    2.5938080890   -1.4507893305    2.0509180683
 C    2.0546173147   -0.1021853662    1.4491107971
 C    2.8380197825    0.4036885751    0.2441306464
 H   -1.8572704429   -1.1705483084    0.2529680132
 H   -1.3148875743   -0.9331412978   -1.4258238510
 H   -0.7136322125   -2.3281944331   -0.4850897026
 H    0.2305002207   -0.8879612684    3.3310048125
 H   -0.8397358839   -1.8640151061    2.2132969745
 H    1.0155693647   -4.0023858254    1.9895726846
 H    2.8705028181   -1.4448665307    3.1115322511
 H    3.4263305930   -1.8452359578    1.4625458133
 H    1.9359953613    0.6999236291    2.1874057011
 H    2.9622326085   -0.3859752554   -0.5040968817
 H    2.3215631092    1.2380302614   -0.2389441980
 H    3.8329614007    0.7442460082    0.5498862494