17

 C    0.0497377300    1.4578693756   -0.0495921307
 C   -0.0055395868   -0.0323796817    0.0581796612
 N   -0.1783997152   -0.8083334829   -1.0148459356
 N   -0.1961594302   -2.0618367505   -0.5356873916
 C   -0.0023909939   -2.1342519839    0.8091889291
 C    0.0068863784   -3.4288517144    1.5468506310
 O    0.4695602369   -4.4341274670    0.6483553995
 C    0.1144597507   -0.8245598304    1.2255050829
 O    0.2895863345   -0.4339008654    2.5240044316
 H    1.0030314270    1.8617626887    0.3151341106
 H   -0.0582646259    1.7526608139   -1.0953880423
 H   -0.7518387968    1.9413803624    0.5227323178
 H   -0.2197894244   -2.8470589657   -1.1633768982
 H    0.6539830088   -3.3339471839    2.4311837135
 H   -1.0039371368   -3.6755500760    1.9113934640
 H    0.3107793315   -5.2916251961    1.0532799043
 H    0.4671779122    0.5112536372    2.5370332030