20

 C   -0.1156657521    1.5926869994   -0.1929567473
 C    0.0022832191    0.0821250617   -0.0758110677
 C    0.6868976027   -0.6814792872   -1.2177279191
 N    2.0855194813   -0.1819977570   -1.2728153931
 C    1.7242860930   -1.2512086671   -0.3160726344
 C    2.4285281473   -2.5710498076   -0.2854385744
 C    1.1000935561   -0.5330341042    0.9056607261
 C    1.9405066972    0.3495047205    1.6883170311
 C    2.6312812729    1.0783569828    2.3504552211
 H    0.8438881203    2.0289931428   -0.4779135438
 H   -0.8602370417    1.8616292898   -0.9505442242
 H   -0.4258845974    2.0367638953    0.7581030670
 H   -0.9670315543   -0.3660278397    0.1614647902
 H    0.2199843688   -1.1123324779   -2.0961227657
 H    2.5357170475   -0.6353958052   -2.0678470943
 H    2.5700973872   -2.9645846372   -1.2981658325
 H    3.4163137185   -2.4778929220    0.1806376529
 H    1.8578807628   -3.3110576198    0.2860747310
 H    0.6228197773   -1.2675361902    1.5628892630
 H    3.2486817336    1.7239576725    2.9240625342