18

 C    0.0893995724    1.5200036609   -0.0404554241
 C    0.0205571755    0.0278881085   -0.0603497362
 C   -0.3136972556   -0.7976189770   -1.1024835561
 N   -0.2234757584   -2.0819981048   -0.6002966511
 C    0.1541588187   -1.9790615728    0.7006198741
 N    0.3109648541   -0.7254685801    1.0619962282
 N    0.3227706157   -3.1489804925    1.4606466771
 C    1.3900060111   -3.1023684405    2.4805836750
 C   -0.0304771532   -3.0407041251    2.8905775221
 H    1.0957869107    1.8664411796    0.2193680232
 H   -0.1733604445    1.9376893331   -1.0163299404
 H   -0.5956646923    1.9378101047    0.7055071315
 H   -0.5976998498   -0.5996655498   -2.1225557773
 H   -0.3994217067   -2.9487080065   -1.0795894993
 H    1.9534987274   -4.0245961694    2.5860888390
 H    1.9608406837   -2.1810111215    2.5382755003
 H   -0.4072898434   -2.0782243678    3.2218188013
 H   -0.5230966855   -3.9171153589    3.3009310329