21

 C    0.0147828044    1.5798082809   -0.0217683783
 C   -0.1003145625    0.0591792161   -0.0501975129
 N    0.7515821658   -0.4998542189   -1.1032783725
 C    0.7111500231   -1.9391802066   -1.2460684058
 C   -0.6007678916   -2.6925191106   -1.7130347484
 C    0.2738526359   -3.5547094899   -2.6577758689
 C    1.4122891560   -2.5115513830   -2.5209358095
 C    1.2474793805   -2.5693856316   -0.0308783488
 N    1.6520389220   -3.0928887927    0.9171437970
 H    1.0536183400    1.8844592391    0.1319079579
 H   -0.3326209536    2.0219290101   -0.9631431693
 H   -0.5957595369    1.9970835479    0.7840032640
 H    0.2366618540   -0.3565047536    0.9060418925
 H   -1.1592908231   -0.2328692466   -0.1648789611
 H    0.5092273375   -0.0837864773   -1.9973373255
 H   -1.1960475246   -3.2004152626   -0.9529150914
 H   -1.2388416679   -1.9938674115   -2.2627345899
 H    0.5426540038   -4.5106341126   -2.2026299908
 H   -0.1100585128   -3.7420865529   -3.6616375210
 H    1.3818823379   -1.7613731591   -3.3168998107
 H    2.4379451924   -2.8641165044   -2.4075120665