15

 C    0.1134924168    1.5920871088   -0.0125328753
 O    1.4714724806    1.4686848027    0.4541064965
 C    1.4230835582    0.0308562486    0.3680859586
 C   -0.0665031029    0.0612530948   -0.0272386508
 C   -1.1333468464   -0.6162117771    0.8646744560
 N   -1.9060868050   -1.4843754014   -0.0369157669
 C   -1.3872109389   -1.3276211653   -1.1802310616
 O   -0.3351669934   -0.4830328419   -1.3354552038
 H   -0.5200066666    2.1432951499    0.6937051970
 H    0.0486608424    2.0517927554   -1.0059807207
 H    2.0778939206   -0.3673627386   -0.4162068463
 H    1.6559025468   -0.4507143168    1.3261096144
 H   -0.6822147438   -1.2139569772    1.6643178057
 H   -1.7967039342    0.1145058434    1.3403430475
 H   -1.7052080842   -1.8172607351   -2.0937071302