9

 O    0.1155505329    1.3038016313   -0.0838521650
 C    0.0660619218   -0.0202715765   -0.0637282050
 N   -0.0512273382   -0.7224409683   -1.1687220677
 O   -0.0632674791   -2.0376147230   -0.6950770532
 C    0.0478752116   -1.9633978276    0.6339168352
 N    0.1325650869   -0.7507454490    1.0956622954
 C    0.0616863608   -3.1767923121    1.3760448452
 N    0.0725637694   -4.1645563254    1.9756632449
 H    0.2018574238    1.6118786206    0.8273512403