18

 C   -0.1628329843    1.4511163081    0.0657506563
 C    0.1636769494   -0.0507831241   -0.0304741496
 C    0.8420970095   -0.5641620852    1.1563973680
 C    1.4008870993   -0.9253027953    2.1646546158
 C    2.0645134974   -1.4496224289    3.3210514172
 C    1.2451478296   -2.0203937840    4.4818976473
 C    1.9658761254   -2.9531282977    3.5556310911
 O    1.2525930245   -3.7402139120    2.6602314308
 H    0.7499683087    2.0392696445    0.1927916615
 H   -0.6677902952    1.7895364899   -0.8438496129
 H   -0.8153341177    1.6524831369    0.9194515005
 H   -0.7631768611   -0.6165596872   -0.1902563109
 H    0.7841486962   -0.2347944505   -0.9170994172
 H    3.0079698269   -0.9777658404    3.5782541007
 H    1.6294525457   -1.8676389386    5.4845002852
 H    0.1670688851   -1.9744455254    4.3830143611
 H    2.8609843745   -3.4479535392    3.9239827900
 H    1.0504625860   -3.1946159109    1.8875989553