18

 C   -0.0491775492    1.5336710023    0.1332586301
 O    0.0009366907    0.1310829267    0.2862453515
 C   -1.1993690070   -0.5605716489    0.0090590609
 C   -2.3374815551   -0.1945584292    0.9591089830
 C   -1.6224015485   -0.5836052076   -1.5069444603
 C   -1.5930936745   -2.1164376182   -1.4255915752
 O   -2.0136648938   -2.9896073369   -2.1275307140
 C   -0.9103890452   -2.0899122751   -0.0535829932
 H    0.9749771895    1.8985338676    0.2417826011
 H   -0.4224306331    1.8256558399   -0.8597428293
 H   -0.6740570414    2.0191441484    0.8951939734
 H   -2.6669303724    0.8398592719    0.8230710419
 H   -3.2044820295   -0.8388906412    0.7829228926
 H   -2.0187094772   -0.3248080003    1.9979701906
 H   -2.5706392510   -0.1264155282   -1.8002893413
 H   -0.8234970579   -0.2094360340   -2.1557416014
 H    0.1649097062   -2.2777977863   -0.1333617775
 H   -1.3334618105   -2.7291568508    0.7248501170