21

 C    0.1509883542    1.4413859826    0.3736226269
 C    0.0727746659   -0.0511904754    0.0354350325
 C   -1.3622429161   -0.5723012303   -0.0017929076
 C   -1.6391020279   -2.0944308116   -0.2234780633
 C   -2.7140431261   -2.0805557477    0.8955771401
 O   -2.6799420460   -3.1567729012    1.7807171266
 C   -3.6714145525   -3.0839546272    2.7924683716
 C   -2.1063996730   -0.7254245060    1.3394183344
 O   -2.0568843383   -0.1458283819    2.3885448678
 H    1.1903331431    1.7816415494    0.4094641047
 H   -0.3712369435    2.0443545337   -0.3778457044
 H   -0.3095479792    1.6398195399    1.3449211012
 H    0.5463484608   -0.2454247713   -0.9351634436
 H    0.6393445647   -0.6281329189    0.7769753768
 H   -1.9677725521    0.0337532092   -0.6886966664
 H   -1.9701114955   -2.4036469233   -1.2148859751
 H   -0.7885983293   -2.7060908350    0.0883767852
 H   -3.7262510321   -1.9242501005    0.4818787875
 H   -3.5431550638   -2.1933688467    3.4184285890
 H   -4.6832513347   -3.0706776791    2.3576840263
 H   -3.5626185186   -3.9794452789    3.4082167099