17

 C    0.3516886920   -1.1323805797   -1.1006410852
 C   -0.4728074163   -0.3798413350   -0.0936234113
 C   -0.9232130766   -1.0618593700    1.1688937171
 O    0.2091512795   -1.4343716639    1.9806061076
 C    0.5608262227   -2.7469323861    1.9703967217
 N    1.6364779991   -2.9357946715    2.7859194596
 O    0.0229753815   -3.6118567047    1.3162947662
 N   -0.8583384637    0.8332273929   -0.2168761951
 O   -0.4253647447    1.3955864309   -1.4231559228
 H    1.3778099075   -0.7485157328   -1.1188701083
 H    0.3774391165   -2.1970196754   -0.8648249615
 H   -0.0552683161   -0.9841824654   -2.1049037224
 H   -1.5213163407   -0.3723699630    1.7656928526
 H   -1.4929371438   -1.9665692332    0.9406371522
 H    1.8918250204   -2.2137090240    3.4372797138
 H    1.8778043706   -3.8872358369    3.0011136099
 H   -0.8034017480    2.2804875879   -1.3826494840