17

 C   -0.6155983912    1.3104593080   -0.1241851521
 C    0.0138569418   -0.0701857068   -0.0359837482
 O    1.2353740496   -0.2055661019   -0.8060446316
 C    2.0801014491   -0.4997061893    0.3473899262
 C    2.6967610586   -1.8943676141    0.2729636501
 C    3.0623290375    0.5432613221    0.5949422215
 C    3.8646595327    1.4085717847    0.8245498447
 C    0.8010941983   -0.3957665275    1.2366421137
 O    0.5599199184   -0.5331918054    2.3932155041
 H    0.0992896649    2.0836511949    0.1688987302
 H   -0.9398799706    1.5071018711   -1.1500243588
 H   -1.4882413305    1.3654868410    0.5339402613
 H   -0.7122631007   -0.8503166477   -0.3038043360
 H    3.4096359426   -1.9384674485   -0.5544823095
 H    3.2222526577   -2.1209277660    1.2043405659
 H    1.9181066629   -2.6439877806    0.1092047445
 H    4.5754120289    2.1733102061    1.0209448939