14

 O   -0.9611936716    1.2379750396   -0.1955042735
 C    0.1534563637    0.8848048467    0.1152107668
 C    1.3443806475    1.7516533445    0.0350541122
 C    1.1990087247    3.2808811265    0.0184587526
 C    1.8026973196    2.6750477089   -1.1737900125
 C    3.2743156659    2.3172589999   -0.9169588548
 C    2.7823203345    1.3624549466    0.2039042267
 O    3.3171588756    0.4855609333    0.8213489116
 H    0.3602117270   -0.1459114026    0.4700326870
 H    0.1570021002    3.5753235230   -0.0549752001
 H    1.8040313614    3.8625787628    0.7080292753
 H    1.3116560426    2.6581821802   -2.1372870974
 H    3.7519115277    1.7461567194   -1.7172111066
 H    3.9264025512    3.1456734811   -0.6258930273