14

 O   -0.0547060184    1.4339130027    0.0321590687
 C    0.0085849348    0.0261082937   -0.0222431994
 C    0.6890311783   -0.4552576207   -1.2220847627
 C    1.2970407703   -0.8076723996   -2.1965658109
 C    0.7107977155   -0.5382682840    1.2754549380
 C    0.0648197646   -0.0384346938    2.4861148151
 C   -0.4752726040    0.3704471874    3.4761556893
 C    0.7293399238   -2.0079674883    1.2557527748
 N    0.7334095432   -3.1623716706    1.2281069212
 H    0.7834119988    1.7854909331   -0.2890811440
 H   -1.0279926762   -0.3253894276   -0.0058083391
 H    1.8130013627   -1.1375677809   -3.0651490574
 H    1.7530709506   -0.1935676435    1.2441078108
 H   -0.9513776941    0.7336937021    4.3536857457