16

 C    0.0724846997    1.5347323410    0.0009348066
 C    0.0391267287    0.0242871555    0.0142016987
 O   -1.1837694415   -0.5276511893   -0.3755598080
 C    1.2777164397   -0.7839963828   -0.2713853048
 C    0.7331605498   -0.7408227793    1.1515075549
 N    1.5179728244   -0.1050725614    2.1780326700
 C    0.0553258147   -1.9322882555    1.6244655254
 N   -0.4804736851   -2.8705756309    2.0352165807
 H    1.0044792408    1.9295624051    0.4120316694
 H   -0.0238967414    1.9073224147   -1.0251307218
 H   -0.7634322716    1.9331124702    0.5841044126
 H   -1.2338300930   -0.5136116444   -1.3379238360
 H    1.1589619084   -1.7138833089   -0.8147517601
 H    2.2173050797   -0.2678878589   -0.4442225449
 H    2.2769599827    0.4396894955    1.7908778432
 H    0.9524467141    0.4956203493    2.7680159642