18

 C    1.0161224693   -0.2895088757   -1.0012944742
 N    0.0074144087    0.0924840388   -0.0231564039
 C   -0.1108002315    1.5413135970    0.0831542108
 C   -1.2724809412   -0.5434506485   -0.1329332158
 C   -1.8011347167   -1.2858300311   -1.3313164208
 C   -1.5050715896   -2.0523107919   -0.0386914986
 C   -0.4359060761   -3.0056421333    0.0101650134
 N    0.4155326013   -3.7885333395    0.0624000858
 H    1.9729628905    0.1508807743   -0.7066591134
 H    1.1481108489   -1.3721135469   -1.0238510562
 H    0.7832309212    0.0615149991   -2.0232563385
 H   -0.4678011915    2.0237745394   -0.8452523345
 H   -0.7984452012    1.8041815838    0.8924926212
 H    0.8689655276    1.9635364790    0.3253366503
 H   -2.0213204029    0.0049581658    0.4294009021
 H   -2.8406255716   -1.1796813424   -1.6210171955
 H   -1.1213491400   -1.4711935270   -2.1540848114
 H   -2.3605914950   -2.3491159408    0.5592268994