19

 C    0.0025481144    1.5022402892    0.0085756099
 C   -0.0537119693   -0.0276636695    0.0024706302
 C   -1.4830143714   -0.5458344793    0.0126392298
 O   -1.4297440694   -1.9751612832    0.0062133380
 C   -2.6110331339   -2.6141594885    0.0130966159
 N   -3.7792685907   -1.9834284436    0.0256218634
 N   -4.6869291724   -2.9932870417    0.0284650668
 C   -4.1152485677   -4.2187576059    0.0183664216
 C   -2.7523366533   -4.0233597850    0.0078511784
 H    1.0372094050    1.8565495255    0.0010808501
 H   -0.4997647104    1.9237520887   -0.8690519068
 H   -0.4843559663    1.9161270230    0.8984299039
 H    0.4583636042   -0.4230430524   -0.8823704242
 H    0.4735904878   -0.4306097787    0.8748684491
 H   -2.0283991360   -0.2035064499    0.9016068497
 H   -2.0436679048   -0.1961440238   -0.8638688289
 H   -5.6645106631   -2.7639059719    0.0375526187
 H   -4.7075486686   -5.1204362817    0.0192348229
 H   -1.9723559440   -4.7651308813   -0.0020049087