19

 O    0.0898688341    1.4095332769   -0.0038114420
 C    0.0047942302   -0.0058069343   -0.0208112272
 C    0.7961654875   -0.6162920233    1.1334094232
 O    0.4379047005   -0.1232516033    2.4374754628
 C    0.0504542788   -1.4586499313    2.0797479588
 C   -1.4147622558   -1.7076653209    1.7389277418
 C   -2.1059171624   -0.3650891987    1.3828289315
 C   -1.4520589904   -0.5105254347   -0.0200984652
 C   -1.4828002129   -2.0502435732    0.2174153729
 H   -0.0471258715    1.6798630591    0.9122739481
 H    0.4749080643   -0.3209921003   -0.9607972521
 H    1.8678089151   -0.7428288970    0.9914383187
 H    0.5741058541   -2.2349829334    2.6349744693
 H   -1.8955086238   -2.3757374693    2.4559668829
 H   -3.1902217950   -0.4876790619    1.3253551798
 H   -1.8674443541    0.5075236516    1.9909471797
 H   -1.9827309933   -0.1009425288   -0.8818617676
 H   -0.6763896704   -2.6579175540   -0.2057532760
 H   -2.4467210250   -2.4828921033   -0.0618011594