14

 O   -0.0038649868    1.4173870175    0.1562096410
 C    1.4205119027    1.4155353858   -0.0478013681
 C    2.1234543908    0.7264676071    1.2091071132
 O    1.1106304972    0.3248780105    2.1489977909
 C    0.7139648471   -0.6970936100    1.2169549014
 C    0.0110149016   -0.0080187657   -0.0399462218
 C    1.3879066521    0.0342687697   -0.7648562032
 C    2.0756338890   -0.6398730809    0.4648269745
 H    1.8118859023    2.3566736429   -0.4355450750
 H    2.9896162326    1.2021899774    1.6703139945
 H    0.2494255205   -1.5653461338    1.6855706919
 H   -0.9283118451   -0.4108544180   -0.4202732017
 H    1.5629799454   -0.1449182417   -1.8225657437
 H    2.8480369708   -1.4045917310    0.4751668561