19

 C    0.2169568861    1.4870290636    0.1369791644
 C    0.1355566995   -0.0163012854    0.0521379382
 C   -0.9768180539   -0.7894593420    0.7188798737
 C    0.4421647807   -0.9426107753    1.2072625938
 C    1.2137975191   -2.1177168804    0.6131361857
 O    0.9181398178   -2.0764869466   -0.7882962940
 C    0.7316715939   -0.7118907272   -1.1628767831
 C    2.6530008075   -2.0105151877    0.8813838534
 C    3.8311453956   -1.9146529510    1.0998904428
 H    1.2503634254    1.8354012402    0.0277790637
 H   -0.3803592014    1.9633008523   -0.6493690191
 H   -0.1587805173    1.8488905645    1.0987510216
 H   -1.6557812801   -0.2306163468    1.3540018896
 H   -1.4293719728   -1.6196160549    0.1850769588
 H    0.7358151316   -0.5713939234    2.1812609214
 H    0.8505127644   -3.0898240591    0.9671460313
 H    0.0836618725   -0.7110601425   -2.0457669093
 H    1.6900392540   -0.2399349612   -1.4311093112
 H    4.8735903875   -1.8417246570    1.2896862882