15

 C    0.0836488068    1.5186869388    0.0170767496
 C    0.0473165645    0.0206272529    0.0189598523
 C   -0.0412770570   -0.7930937345   -1.0954900789
 N   -0.1212233769   -0.5435083213   -2.4882321907
 N   -0.0463396119   -2.0996431583   -0.6627790668
 C    0.0369344975   -2.1413509073    0.7024900311
 C    0.0963661801   -0.8432754922    1.1538623847
 H    1.0035795609    1.9082020486    0.4695131047
 H    0.0304170185    1.9096283578   -1.0042727319
 H   -0.7540517156    1.9509901359    0.5774963307
 H   -0.9408067969    0.0044614883   -2.7283872778
 H    0.6886329144   -0.0360226125   -2.8292039650
 H   -0.1041662728   -2.8831190560   -1.2899174371
 H    0.0469942907   -3.0788667139    1.2345876267
 H    0.1676064278   -0.5376421264    2.1874445885