23

 C   -0.2080839354    1.4025801389   -0.2087610621
 C   -0.2802943123   -0.0624626578    0.1831298112
 O   -1.3749119423   -0.6588857508   -0.5023960436
 C   -1.5186144332   -2.0286231413   -0.2535837405
 C   -2.4406140740   -2.5027553004    0.8504886817
 C   -3.0838967518   -1.5316015008    1.8183503755
 C   -2.8553711499   -2.6069866746   -0.6152573857
 C   -3.8923194793   -1.6942136762   -1.2465710826
 O   -3.4697533924   -1.2098118136   -2.5122658206
 H    0.6316560284    1.8894251041    0.2957492362
 H   -0.0698414261    1.5056602979   -1.2889261464
 H   -1.1285916626    1.9231215224    0.0706915084
 H    0.6514292989   -0.5842850721   -0.0874478960
 H   -0.4139366805   -0.1739545005    1.2689816025
 H   -0.6176599640   -2.6053950518   -0.4664676949
 H   -2.1559730132   -3.4497716069    1.3027695786
 H   -3.1489193800   -0.5254040832    1.3990381512
 H   -4.0950389806   -1.8497960772    2.0941722829
 H   -2.4958454057   -1.4673731410    2.7403361203
 H   -2.8244250070   -3.6019577869   -1.0500704128
 H   -4.8169983698   -2.2525377206   -1.4263387944
 H   -4.1432008070   -0.8648249241   -0.5733979533
 H   -2.6628599603   -0.7098970736   -2.3388464056