17

 C   -0.1266455580    1.6347868505    0.1739166344
 C    0.0275591766    0.1364205542    0.0019620793
 C   -1.3165311671   -0.5987912777   -0.1326063397
 O   -1.1471234683   -2.0011211848   -0.1676443287
 O    0.8548353609   -0.1265657862   -1.1230141519
 C    1.7377480863   -1.1797334794   -0.7985326125
 C    1.6885888102   -1.2736623153    0.7179715757
 O    2.3431184877   -1.9436971219    1.4580316480
 O    0.7156510671   -0.4176063125    1.1382609631
 H    0.8583106440    2.0952028351    0.2728924284
 H   -0.6237407880    2.0566312152   -0.7037402974
 H   -0.7199530791    1.8632934368    1.0623979419
 H   -1.9881769389   -0.2852731327    0.6787439235
 H   -1.7679822484   -0.3069348387   -1.0852499557
 H   -0.9745078852   -2.2983869568    0.7318752782
 H    1.4256324120   -2.1356663660   -1.2351887344
 H    2.7505118482   -0.9410050000   -1.1376189025