18

 C    0.2892015898    1.3900605032   -0.1449619806
 O   -0.2556113535    0.1352560684    0.2372132902
 C    0.5102326028   -0.5155631064    1.2065726162
 C    0.0306358389   -1.9621037004    1.5338402703
 C   -1.0788691642   -2.5142130010    0.6581528233
 O   -1.1318776095   -3.9119589607    0.9148156509
 N    1.3788738633   -2.4123362538    1.1648134848
 C    1.8362030994   -1.1952297457    0.7281821747
 O    2.8461415049   -0.8354606169    0.1818532870
 H    1.2967474485    1.2781637451   -0.5608014942
 H   -0.3784517257    1.8064271072   -0.9020302907
 H    0.3334353326    2.0785350245    0.7127454700
 H    0.6563011048    0.1133014913    2.0976400246
 H   -0.2063242937   -2.1425959467    2.5875627443
 H   -2.0246450804   -2.0134070978    0.9134840666
 H   -0.8572663579   -2.2999543909   -0.3951691581
 H   -1.7821063555   -4.3023764542    0.3238796060
 H    1.7442544854   -3.3476478354    1.0611312048