18

 O   -0.1566617328    0.0053441115    0.0481492328
 C   -0.0233444199    1.2009919668    0.0408153185
 C    1.3073049270    1.9370963134    0.0312765657
 C    1.4126697709    2.7785595024   -1.2592305636
 C    2.5025806679    3.8501433753   -1.1432577257
 C    2.1999153241    4.8169249048    0.0090762745
 C    1.7766132945    4.0832182099    1.2540885724
 C    1.4061601017    2.8030214326    1.2695416942
 H   -0.9084071852    1.8811057428    0.0390499207
 H    2.0862929037    1.1641808229    0.0501043633
 H    1.6011670663    2.1186762747   -2.1118567733
 H    0.4473165748    3.2695602231   -1.4467823062
 H    3.4688967729    3.3632432236   -0.9626690132
 H    2.5949284576    4.3982212905   -2.0865607913
 H    3.0789029214    5.4354786534    0.2283952335
 H    1.4114293201    5.5257673419   -0.2851016071
 H    1.8024833488    4.6394854877    2.1884346684
 H    1.1504910663    2.3259636427    2.2129655765