19

 C   -0.0070812323    1.5700380058   -0.0577457173
 C   -0.0381275399    0.0420510009    0.0223912478
 C    0.7507917757   -0.5040254225    1.2178451099
 C    0.7213938694   -2.0196056945    1.3256184495
 C    1.4914341656   -2.6049506506    2.5219098939
 O    0.6322892714   -3.6363643383    3.0102898343
 C   -0.6148980317   -3.4764050372    2.4938943029
 O   -1.5649616654   -4.1171188786    2.8098072780
 O   -0.6195429734   -2.4837129382    1.5691629995
 H    1.0181863614    1.9441559555   -0.1564176180
 H   -0.5775711404    1.9317775517   -0.9181637643
 H   -0.4392573227    2.0223606830    0.8415343033
 H   -1.0739070166   -0.3072992123    0.0931637562
 H    0.3688567669   -0.3853732525   -0.9033528169
 H    1.8023515419   -0.1925783426    1.1465587657
 H    0.3599662462   -0.0823050821    2.1528650918
 H    1.0573708510   -2.4746719474    0.3847937588
 H    2.4517765819   -3.0441419361    2.2457767439
 H    1.6469809712   -1.8622970741    3.3133197811