16

 N   -0.0634853646    1.4802856340    0.2296737057
 C   -0.0012434937    0.0610641372   -0.0255800263
 C   -1.3626415677   -0.7191495130   -0.0649504936
 N   -0.9699783699   -1.2302721626   -1.3695386369
 C    0.2288255743   -0.5540656297   -1.4462206532
 O    1.0829656376   -0.4852173282   -2.2872399066
 C   -1.5802742964   -1.7770504502    1.0091890412
 N   -1.8370493041   -1.2546964964    2.2428648642
 O   -1.5457968882   -2.9675087009    0.7708294549
 H    0.8733916451    1.8655730469    0.2944012055
 H   -0.5215189877    1.9630349502   -0.5386009996
 H    0.6933172143   -0.3980210190    0.6851604535
 H   -2.2240347324   -0.0401728695   -0.1002977097
 H   -1.2947652626   -2.0612685901   -1.8411075302
 H   -1.7104761624   -0.2731624737    2.4285195339
 H   -1.9014217914   -1.8873677651    3.0238946172