16

 O    0.0206423066    0.0521329612   -0.0899499914
 C   -0.0106517517    1.2444851308    0.0085759588
 C   -1.1582461188    2.2617625534    0.0554197034
 C   -0.7443627766    3.0942991652    1.2747480944
 N    0.7537600782    3.0289125124    1.2348856822
 C    1.1048202246    2.3108283632   -0.0027457694
 C    0.6569258924    3.1017259488   -1.2490920373
 N   -0.8495658909    3.0696905996   -1.1535498426
 H   -2.1753494857    1.8764508340    0.0537037027
 H   -1.1237537824    4.1168394930    1.1817536823
 H   -1.1193212466    2.6615769678    2.2097044817
 H    1.1574041855    3.9584812127    1.2384385558
 H    2.1277143350    1.9392853996   -0.0078721151
 H    1.0172295372    4.1372219378   -1.2267535463
 H    1.0135382747    2.6389911631   -2.1770187617
 H   -1.2286629015    2.6012367773   -1.9696204178