14

 C   -0.0888931966    1.4376780277    0.1518444471
 N   -0.0610146597    0.0123323232   -0.1352446114
 C   -1.1697952163   -0.7625201586   -0.0559724801
 N   -1.2312085982   -2.0596409369    0.0162661294
 C   -2.6033152147   -2.3165844083    0.0048164977
 C   -3.2936929112   -1.1511552317   -0.0649321515
 O   -2.3753107339   -0.1331049606   -0.1021623968
 C   -3.1443470231   -3.6277194159    0.0650432472
 N   -3.6040690685   -4.6886142823    0.1141195899
 H    0.8775787322    1.8639912455   -0.1222704195
 H   -0.8592274668    1.9206480750   -0.4527740920
 H   -0.2872562363    1.6604420789    1.2089074785
 H    0.7869584664   -0.4917292825    0.0713734923
 H   -4.3331765433   -0.8786611536   -0.0883827808