21

 C   -0.0680035406    1.5331704038   -0.0462362688
 C   -0.0422848700    0.0297123591   -0.0162458228
 C    0.7100420331   -0.7975355176   -1.0586132203
 C   -0.2231705519   -2.0237515218   -0.7234595940
 C    0.4660837606   -2.8001234405    0.3773451872
 C    0.4729769316   -2.0533829739    1.4847064535
 C   -0.3313392612   -0.8078084364    1.2737990311
 C   -0.9155407436   -0.1024155302    2.4774098552
 C   -1.1506846913   -1.0087309578    0.0209338078
 H    0.9245819187    1.9421219588    0.1803066265
 H   -0.3515293365    1.8985894285   -1.0404041698
 H   -0.7701318230    1.9609509069    0.6736335507
 H    0.4941744799   -0.4054866500   -2.0571882090
 H    1.7901337697   -0.9473292445   -0.9487285570
 H   -0.6076409902   -2.5916755952   -1.5694079689
 H    1.0105697105   -3.7225677135    0.2148306548
 H    0.9925232528   -2.2703324389    2.4109781664
 H   -0.1431823446    0.4053345945    3.0669708642
 H   -1.6621079479    0.6448876600    2.1961769480
 H   -1.4118105321   -0.8255534374    3.1340153181
 H   -2.2294857742   -0.9075136937   -0.0392940328