23

 C   -0.1524399044    1.4075911733   -0.0023854552
 O    0.0079166129    0.0003185636    0.0018907247
 C    0.6874441282   -0.5562249130    1.1194678463
 C    0.0180251262   -0.2038568715    2.4467830904
 C    0.6953579651   -2.0725240845    0.8644539621
 C    1.5771580653   -2.4418959297   -0.3342735052
 C    2.9730475741   -1.8333506486   -0.1541728804
 C    2.8499881317   -0.3325756119    0.0996142677
 O    2.0086540581   -0.0455585528    1.2169755418
 H    0.7783284273    1.9224524370    0.2618734380
 H   -0.4401551940    1.6860440713   -1.0194764165
 H   -0.9449707160    1.7343651641    0.6843114180
 H   -1.0338328935   -0.5010112095    2.4270735028
 H    0.5204165996   -0.7246971940    3.2649772440
 H    0.0839615309    0.8683024684    2.6443307891
 H    1.0757871230   -2.5604720151    1.7691211203
 H   -0.3353389901   -2.4072015427    0.7148612248
 H    1.6355872332   -3.5304358698   -0.4385319037
 H    1.1214562621   -2.0522465279   -1.2511379617
 H    3.4782370259   -2.3024148334    0.6998392184
 H    3.5985637114   -2.0042439067   -1.0378711149
 H    3.8174073519    0.1148283245    0.3454826048
 H    2.4627766913    0.1662726592   -0.8000890255