20

 C    0.0153521417    1.5761767245   -0.0739359687
 C   -0.0394380417    0.0507590911    0.0213201723
 N   -1.4068804071   -0.4795804223    0.0302484453
 C   -2.1173338084   -0.1658392656   -1.2081481969
 C   -1.4402792331   -1.9222109932    0.3087024756
 C   -0.7485534289   -2.3197357885    1.6277759739
 C   -2.8416359200   -2.3793254215    0.3787246717
 N   -3.9251512326   -2.7742640155    0.4489997819
 H    1.0408285716    1.9156230672    0.0998644596
 H   -0.2888846001    1.9494804971   -1.0548574404
 H   -0.6310470873    2.0289264782    0.6837677367
 H    0.5577171224   -0.3942325083   -0.8003116241
 H    0.4443405860   -0.2408922686    0.9553347808
 H   -1.6178464541   -0.5806782109   -2.1044237709
 H   -3.1327580920   -0.5647279253   -1.1666264390
 H   -2.1930817728    0.9154686352   -1.3302934543
 H   -0.9701341003   -2.5002176371   -0.5135452662
 H    0.3365874691   -2.2437901755    1.5462918995
 H   -1.0960063913   -1.6785496715    2.4417153299
 H   -0.9933534912   -3.3563418194    1.8698692435