22

 C    0.1197400832    1.6347434777    0.0302704457
 C   -0.1094963648    0.1197247513   -0.0402061627
 C    0.6502365802   -0.5078666233   -1.2063860425
 C    2.1857766897   -0.6209689932   -1.0486334693
 O    3.0862947761    0.1376945183   -0.7921554406
 N    2.1447364223   -1.9683701143   -1.2927765024
 C    0.6746657670   -2.0725419352   -1.4205370264
 C    0.0353812619   -2.9209721871   -0.3217203443
 C    0.2213152629   -2.5267466448   -2.8077810658
 H    1.1872786329    1.8567854310    0.1102070822
 H   -0.2593481030    2.1327364777   -0.8691402373
 H   -0.3924373619    2.0690754219    0.8940597631
 H    0.2077551078   -0.3381258363    0.9036348712
 H   -1.1810236972   -0.0941681485   -0.1446420139
 H    0.3917043617    0.0089233801   -2.1372882908
 H    2.8728048077   -2.6688493210   -1.2938680236
 H    0.3923160196   -2.6317122745    0.6692954982
 H   -1.0551334917   -2.8254804829   -0.3389504650
 H    0.2754998583   -3.9798510714   -0.4701815312
 H    0.4749354228   -3.5789870636   -2.9796029357
 H   -0.8644148701   -2.4272668629   -2.9108583942
 H    0.6992099546   -1.9295193388   -3.5894822151