16

 C   -0.0414482298    1.3324729979   -0.0492783843
 O   -0.0268790150   -0.0770366413    0.0064423708
 C    0.6194795639   -0.6093355708    1.0830866962
 C    1.2655776573    0.0085901239    2.1333847353
 N    1.7612518512   -0.9929803287    2.9356263717
 C    1.4292778580   -2.2256759916    2.4170688611
 C    0.7190569848   -2.0208551041    1.2544214396
 N    0.1212181800   -2.9699038025    0.3996122854
 H    0.9783490869    1.7410045709   -0.0946536385
 H   -0.5830618980    1.6113926363   -0.9551782752
 H   -0.5519039258    1.7604027317    0.8252054716
 H    1.4166802770    1.0477671838    2.3673792025
 H    2.2699451444   -0.8461358188    3.7867568680
 H    1.7199614528   -3.1392273368    2.9088712976
 H    0.7257412021   -3.7610980319    0.2155701152
 H   -0.1260670996   -2.5386682380   -0.4830055570