20

 C   -0.5823947611    1.3956237345   -0.1266345371
 C    0.0689523969    0.0144206744   -0.0870446238
 C    1.3292244184   -0.1475726006   -0.9538356507
 C    1.9444358675   -1.4204553584   -0.3727868981
 O    1.6032072136   -1.4270428700    1.0165965998
 C    0.5714957968   -0.4870734839    1.2897283159
 C    1.1315546701    0.6256807436    2.2064309069
 C    1.6765801910    0.0884099379    3.4504397173
 N    2.0920926910   -0.3246992566    4.4460985113
 H    0.1220576825    2.1872791107    0.1481142533
 H   -0.9437373111    1.6168210354   -1.1354772191
 H   -1.4419973756    1.4564488127    0.5494169417
 H   -0.6679768740   -0.7227625961   -0.4303522438
 H    1.1047865098   -0.2321087862   -2.0199543855
 H    2.0008136725    0.7089108210   -0.8208484073
 H    1.5289120144   -2.3161400395   -0.8569843065
 H    3.0344432581   -1.4630786640   -0.4606361743
 H   -0.2282696317   -1.0014824399    1.8366386924
 H    1.9215647493    1.1799607354    1.6882385143
 H    0.3401272117    1.3399194397    2.4587882133