20

 C    0.0003208605    0.9980301185   -0.6687991373
 O   -0.4680888885    0.1548085323    0.3750446345
 C   -1.2344441862   -0.8863283027   -0.0187766237
 N   -1.6918820152   -1.6837565537    0.8376572006
 C   -2.5173548816   -2.8107230354    0.4473806598
 C   -2.8329013775   -3.0252159165   -1.0390446222
 C   -3.7197583155   -4.2700396571   -1.2454845860
 C   -4.0442834443   -4.5114920416   -2.6459253163
 C   -4.2969301178   -4.6880445381   -3.8078189032
 H    0.5942951429    1.7779149076   -0.1907307653
 H    0.6339676800    0.4503204493   -1.3775609497
 H   -0.8291580985    1.4647939196   -1.2146307465
 H   -1.3898360620   -0.9351807732   -1.1046996163
 H   -2.0346632313   -3.7154563904    0.8439386536
 H   -3.4616480800   -2.7256554198    1.0040315447
 H   -3.3490962108   -2.1511687807   -1.4523578204
 H   -1.9082992036   -3.1508618705   -1.6139926458
 H   -3.2137540692   -5.1520899935   -0.8310395652
 H   -4.6482406994   -4.1567790047   -0.6702407128
 H   -4.5273666917   -4.8554573599   -4.8304341226