20

 C    0.0606464567    1.4434026695   -0.1084823567
 N    0.0044565973    0.0063830708   -0.0661907419
 C   -1.1110954900   -0.9411838379   -0.1011798780
 C   -0.0546067734   -2.0884496839   -0.0431554654
 C    0.0200900123   -3.0612915855   -1.2163091565
 C    1.2291066215   -3.9990193078   -1.1137677568
 O    1.2889692460   -4.9228273370   -2.1897545558
 C    0.9916517361   -0.9452235458   -0.0403349420
 O    2.1952816488   -0.8632439793   -0.0439145920
 H    1.1139057612    1.7335845462   -0.0858583578
 H   -0.3952924973    1.8390265841   -1.0247436533
 H   -0.4487202532    1.8925230238    0.7529504328
 H   -1.7871707691   -0.8705667156    0.7583438006
 H   -1.6959435797   -0.9030468417   -1.0281380296
 H   -0.0701030064   -2.6269628709    0.9099383252
 H   -0.8939136670   -3.6646669512   -1.2694793940
 H    0.0814136162   -2.4947577749   -2.1564178229
 H    2.1512310421   -3.4083828999   -1.0273567665
 H    1.1472434692   -4.6066723210   -0.2051959819
 H    1.5309422087   -4.4338802520   -2.9823406775