21

 C    0.0578701262    1.5932837321    0.0864945288
 C    0.0421109698    0.0640306139    0.0896353937
 O    0.6833453087   -0.4451832779    1.2581882900
 C   -1.3726822579   -0.5330988027   -0.0466778716
 C   -2.1332246137   -0.1627589515   -1.3104663545
 C   -2.6408659955   -1.2325154855   -1.9280070684
 C   -2.2599729036   -2.5015902477   -1.2442696617
 C   -0.7692586430   -2.7870079059   -1.2376844404
 C   -1.3970849549   -2.0666176989   -0.0722331642
 H    1.0742716270    1.9530153848    0.2680823954
 H   -0.2870825074    2.0024236563   -0.8676166954
 H   -0.5918439404    1.9926255478    0.8762746449
 H    0.6581613599   -0.3034856351   -0.7386199205
 H    0.2033926058   -0.1069765493    2.0227350509
 H   -1.9396735813   -0.1764738474    0.8312071539
 H   -2.2348570922    0.8602467293   -1.6537596222
 H   -3.2325199274   -1.2076579218   -2.8366499166
 H   -2.9593418936   -3.3282520614   -1.1864047118
 H   -0.4521323653   -3.8092104808   -1.0587034235
 H   -0.1513946103   -2.2395499636   -1.9417094561
 H   -1.4344364208   -2.5947062648    0.8717012995