16

 C    0.1303730159    1.5656588377   -0.1014895406
 C   -0.0430194033    0.0436088893    0.0448228680
 C    0.5898172414   -0.4986177781    1.2862084610
 C   -0.0197479558   -1.0768438321    2.3337828533
 C    0.7445770183   -1.5499857052    3.4903412443
 O    0.2492803269   -2.0781379895    4.4595519266
 N    2.1551678456   -1.3457875313    3.4084075568
 C    2.6287120968   -0.7891719470    2.3730962949
 O    1.9510468297   -0.3410031994    1.2843442227
 H    1.1885666115    1.8381205902   -0.1220729478
 H   -0.3290923338    1.9104802271   -1.0314522825
 H   -0.3427648527    2.0948106410    0.7308173918
 H   -1.1035511887   -0.2218028835    0.0601763394
 H    0.4056568269   -0.4596257775   -0.8208210471
 H   -1.0947417138   -1.2049367293    2.3409539858
 H    3.6926662551   -0.6051926524    2.2467243235