19

 C   -0.1149990377    1.3461022448   -0.2196200138
 C    1.2863018757    0.9075759951    0.0192843965
 N    0.1816442305   -0.0465893092    0.1155511013
 C   -0.1811527246   -0.4957758818    1.4195788706
 C   -0.2127371376    0.1648617616    2.8102284183
 N   -0.7057339855   -1.2393376821    3.1333685268
 C   -1.4703067185   -1.2942385540    1.7849293817
 C   -0.8570657827   -2.6540151058    1.4370673026
 C    0.2658399665   -1.8355480891    2.0814815393
 H   -0.5780385189    1.9677800858    0.5439349952
 H   -0.4756263682    1.5167850333   -1.2296061808
 H    1.9659970060    0.7526654615   -0.8133456533
 H    1.7592405323    1.2363888685    0.9423872290
 H    0.7368537671    0.4114148428    3.2970018805
 H   -0.9604167353    0.9405599758    3.0070165140
 H   -2.5039617773   -0.9482121539    1.7268111308
 H   -1.2217195273   -3.5082994039    2.0125415547
 H   -0.7474147015   -2.8835246369    0.3761431414
 H    1.2767201771   -2.1269823625    2.3725926452