15

 C   -0.0033704750    1.4089744214   -0.1411849534
 N   -0.0314976630   -0.0435182003   -0.2013310718
 C   -1.1013217795   -0.6513123892    0.0609342487
 O   -2.3037038242   -0.0656248132    0.3866049681
 C   -3.2243704807   -1.0338533170    0.9171942132
 C   -2.6104607237   -2.3863382899    0.6256886234
 O   -2.3502165798   -2.5667315806   -0.7621307658
 C   -1.2695846346   -2.1310583281    0.0885013135
 H    0.9608408892    1.7274701074    0.2665420402
 H   -0.0727005131    1.8167881882   -1.1571121440
 H   -0.8125672181    1.8447352402    0.4561968046
 H   -3.3399593406   -0.8748952787    1.9963042112
 H   -4.1910120932   -0.8910835940    0.4252857641
 H   -2.8821129457   -3.2672219574    1.1993265462
 H   -0.4113873479   -2.7862825488    0.1706616921