16

 O   -0.1034172732   -0.0740530155   -0.2459810452
 C   -0.0348847735    1.0940937041   -0.0296550506
 C   -1.1239353620    2.2165969695    0.2627768692
 C    0.0642405037    2.9899384902    0.8621715263
 C    1.0996100992    4.1609262703    0.9211811383
 C    1.9037354781    2.8277726331    1.2422321852
 C    0.7293747475    2.4326209899    2.1636728827
 C    1.0991220432    2.1808510443    0.0606243211
 H   -1.4906857716    2.6249211661   -0.6852295010
 H   -1.9712173945    1.9464186920    0.8975590876
 H    1.3323077146    4.6556275966   -0.0250599731
 H    1.0125974513    4.8784973262    1.7421011023
 H    2.9726551975    2.7600211248    1.4552293497
 H    0.5832470565    3.0242056499    3.0710133369
 H    0.6063358805    1.3642426704    2.3627824811
 H    1.3310302027    2.5533577582   -0.9445260706