15

 N   -0.1052910546    1.2620180038   -0.0821567776
 C   -0.0017355594   -0.0001376802    0.0075645313
 C   -1.2359441599   -0.9381753567    0.0331461380
 C   -0.5732173583   -2.2762462976   -0.0239788776
 C    0.7927335991   -2.1523021492    0.0026145844
 N    1.1513756173   -0.7953048804    0.1027271191
 C    1.3043420603   -3.4593817924   -0.0134474500
 N    0.2959668795   -4.3433049872   -0.0546340058
 N   -0.8332699214   -3.6029220238   -0.0481071033
 H    0.8080527496    1.7192342060   -0.0819099510
 H   -1.8104802388   -0.7649176304    0.9499148102
 H   -1.8927717764   -0.7037810485   -0.8097625672
 H    2.0439335692   -0.4339080366   -0.1913906928
 H    2.3233696307   -3.8136218143   -0.0073616988
 H   -1.7193749268   -4.0769761825   -0.0792171389