18

 C    0.0630599958    1.5123353147   -0.1652726373
 C    0.0146011389    0.0024922774   -0.0271608636
 O    0.6746548305   -0.5531170168   -1.1777486825
 C    0.7335178767   -1.8953102802   -1.2391189935
 N    0.2354017245   -2.6404634369   -0.3333903138
 C    1.4104006273   -2.3457800846   -2.4231786238
 C    1.9677753043   -2.7853731804   -3.3964720766
 C    2.6486993231   -3.2817564376   -4.5842384290
 O    2.6310226658   -4.7015146145   -4.5875181585
 H    1.0965895760    1.8677546743   -0.2044045914
 H   -0.4469389317    1.8372889899   -1.0765159673
 H   -0.4306820591    1.9789885697    0.6922547815
 H    0.5220854413   -0.3463328827    0.8782285841
 H   -1.0119923989   -0.3762156316    0.0126703284
 H    0.3824658702   -3.6208860707   -0.5618203729
 H    2.1482118379   -2.8681624612   -5.4751482274
 H    3.6789127413   -2.8893447956   -4.5884862307
 H    3.0863128760   -4.9935540431   -5.3838482557