14

 N   -0.0321841715    1.2363534691    0.3583397707
 C   -0.0002617591    0.0263803904    0.0018925744
 O    1.1761288154   -0.6120842189   -0.2870500377
 C    1.1085417633   -1.8870000882   -0.9282126041
 C    0.1388457123   -2.7975651880   -0.1997774778
 N   -1.1469725842   -2.1278983653   -0.1577609125
 C   -1.3051064171   -0.7731402731   -0.0430336754
 O   -2.3882100682   -0.2401647152    0.0317721124
 H    0.9145778106    1.6239540318    0.3542968463
 H    0.7976109947   -1.7618461322   -1.9735135804
 H    2.1245739053   -2.2860537024   -0.9061021892
 H    0.0402948034   -3.7428917144   -0.7427272860
 H    0.5186752071   -3.0248723864    0.8067127618
 H   -1.9997131620   -2.6625992373   -0.0834072124