21

 C   -0.0099696504    1.4406154315    0.8708006370
 C    1.1567806511    0.9964990163    0.0216554974
 C    2.2491616227    0.1815542797    0.6954626006
 C    1.5097771457   -0.8939376896    1.5206394590
 C    2.3180929936   -2.1318381918    1.9683082066
 O    2.1490112262   -1.8162781520    3.3635487827
 C    1.3833377045   -0.6396771128    3.0481044263
 C    0.1973016816   -1.1402811875    0.7454222720
 C   -0.1166555139    0.1761418309    0.0526715677
 H    0.0569810586    1.3776328644    1.9520866781
 H   -0.5720184543    2.2998753241    0.5214264731
 H    1.4183096933    1.5959548632   -0.8431504111
 H    2.8630983037   -0.3055332191   -0.0738481589
 H    2.9284661027    0.7778386604    1.3152037632
 H    1.8742057948   -3.1027082259    1.7093485903
 H    3.3760176912   -2.1354428665    1.6725590491
 H    1.8659869560    0.2752226791    3.4175787797
 H    0.3641837015   -0.6921902030    3.4544106412
 H    0.3607987524   -1.9175644117   -0.0129408434
 H   -0.6045303331   -1.4982454372    1.4011733399
 H   -0.7999751478    0.1669209374   -0.7891264804