23

 C   -0.3234522021    1.4929176754    0.0492532081
 C    0.0087803254    0.0159589052    0.0923740644
 C    1.3148736895   -0.6155372791   -0.3377421553
 C    2.5845840511    0.2248201487   -0.4377679474
 C    2.7722888989    0.9100086445    0.9427268157
 C    1.8817461216    0.1325274367    1.9232196765
 C    2.4738929730   -0.4845264301    3.1687234993
 C    1.5407024569    0.6974864582    3.2794044036
 C    0.8902458930   -0.6700044714    1.1177382622
 H    0.5154176201    2.1329555412    0.3255035803
 H   -0.6435033669    1.7861643916   -0.9572666792
 H   -1.1469898071    1.7223566664    0.7348225105
 H   -0.8483172809   -0.5979897989   -0.1800591127
 H    1.2574802924   -1.4972112075   -0.9679277084
 H    3.4265910317   -0.4439694433   -0.6469793496
 H    2.5537180654    0.9548742840   -1.2542177187
 H    3.8207856867    0.9038320204    1.2568631468
 H    2.4733099185    1.9618385964    0.8985620199
 H    2.1087747546   -1.4563393585    3.4862631695
 H    3.5292104350   -0.3218336263    3.3642176972
 H    1.9647273586    1.6584261173    3.5545008308
 H    0.5429271509    0.5254721550    3.6697368684
 H    0.5205725737   -1.5880837161    1.5642314382