18

 C    0.0344849342    1.4768266023    0.0278805885
 C   -0.0589126304   -0.0090971297   -0.0355305405
 C   -0.0837748556   -0.8317652890   -1.0922220020
 C   -0.0347442597   -2.2579896808   -0.5364477152
 N   -0.7138902991   -2.1493780287    0.7760689369
 C    0.0097674457   -0.9246559757    1.2025245425
 C    1.4520970767   -1.4930482198    1.2395137814
 C    1.4251432216   -2.3772897721   -0.0253369498
 O    2.3276713101   -2.9979814276   -0.5145682310
 H    0.9654132069    1.7888386755    0.5203651887
 H    0.0108417705    1.9300094085   -0.9665129543
 H   -0.7847285659    1.9030121742    0.6207983462
 H   -0.0097047639   -0.5685266355   -2.1394685031
 H   -0.3638351538   -3.0766536499   -1.1725015351
 H   -1.6931621344   -1.9165117116    0.6144410787
 H   -0.3534275796   -0.5070055284    2.1423416227
 H    2.2413257022   -0.7399899706    1.1958570235
 H    1.6165557242   -2.1266932612    2.1153086120