15

 C   -0.5329278540    1.7045406991   -0.0690390586
 C    0.0505270234    0.2939906711   -0.0024946789
 O    0.9092478963    0.2473849086    1.1315581938
 C   -0.9961627262   -0.7330832299    0.0714331243
 C   -1.8238386980   -1.6039343298    0.1192196757
 C    0.8885635906   -0.0024874121   -1.2843788991
 O    0.7850020252    0.6322365222   -2.3050454531
 C    1.8250703062   -1.1072328005   -1.1468625448
 C    2.5899716534   -2.0301476892   -1.0330406367
 H    0.2837409580    2.4299363090   -0.0810136289
 H   -1.1271819154    1.8260095683   -0.9747168827
 H   -1.1571338348    1.8792159086    0.8089241554
 H    1.2130933502   -0.6620639518    1.2399933625
 H   -2.5648458226   -2.3639380661    0.1665726375
 H    3.2722180775   -2.8419725775   -0.9531630563