19

 C    0.1856495653    1.6101741232    0.0287389952
 C    0.0238710436    0.0865116831   -0.0489510036
 O   -1.3522418131   -0.2583343795   -0.1350403244
 C    0.7637120965   -0.5029233292   -1.2574854281
 C    2.1845238710   -0.7899131769   -0.7672765902
 O    3.1344222243   -1.0388513752   -1.4617426864
 C    2.1914089602   -0.7115920063    0.7660466324
 C    0.7059760037   -0.6381205120    1.1420023548
 O    0.3995125546    0.0435016324    2.3461373637
 H    1.2369712152    1.9146564483    0.0053332631
 H   -0.3226120096    2.0671218088   -0.8245136778
 H   -0.2495202388    1.9980776432    0.9530879372
 H   -1.7757551167    0.0717597160    0.6658633067
 H    0.2992863439   -1.4584892569   -1.5328620593
 H    0.7628933833    0.1298307637   -2.1476635199
 H    2.7404081570   -1.5509300626    1.2009730015
 H    2.7057493248    0.2095264373    1.0672140265
 H    0.2815192036   -1.6533941595    1.1613724565
 H    0.6972981412   -0.4930791278    3.0866317521