20

 C    0.4880679289    1.2786211497   -0.5328129283
 C    0.0818841072   -0.1591608643   -0.1970870801
 C   -1.3245281508   -0.2682706651    0.3948337010
 C   -2.4845260947   -0.0891788489   -0.6303022042
 C   -2.6550975787   -1.6432445004   -0.6783492934
 C   -1.8091266159   -1.7270083678    0.6347729954
 C   -3.9937941845   -2.1942089375   -0.6795711914
 C   -5.1123157208   -2.6372468220   -0.6596156817
 H    1.4945427106    1.3183939348   -0.9606735493
 H   -0.1981104528    1.7298882841   -1.2574181085
 H    0.4813372581    1.9085028042    0.3637233013
 H    0.1515285307   -0.7819005910   -1.0997320124
 H    0.7981556420   -0.5842804373    0.5184032351
 H   -1.3936670925    0.3821954125    1.2726026225
 H   -3.3616147866    0.3916142271   -0.1921690797
 H   -2.2511025083    0.4025792024   -1.5783042140
 H   -2.0877530363   -2.0582933293   -1.5176383435
 H   -1.0449325659   -2.5079819005    0.6724988578
 H   -2.4511950892   -1.8177609478    1.5134506105
 H   -6.0976770304   -3.0320245229   -0.6482590571