20

 C   -0.0152644770    1.3413442633    0.2022831114
 O   -0.0019244368   -0.0553267543    0.0395066500
 C   -1.2979190475   -0.6137359375   -0.0004322450
 C   -1.1685495459   -2.1250817617   -0.1415120973
 C   -2.5183290981   -2.8168081889   -0.1868615595
 C   -2.5561441113   -4.3551733596   -0.0455198493
 C   -3.4505238775   -4.0773583913    1.1789816653
 O   -3.2711755281   -2.6527515346    1.0436207148
 H    1.0237719533    1.6795548005    0.2265280913
 H   -0.5332042819    1.8465932726   -0.6291513071
 H   -0.5083904373    1.6402622015    1.1411515739
 H   -1.8560527338   -0.3712483671    0.9178737269
 H   -1.8697554185   -0.1960223510   -0.8484560627
 H   -0.6143128113   -2.3577720140   -1.0596571763
 H   -0.5855915497   -2.5134914086    0.7013615372
 H   -3.1055159525   -2.4443151906   -1.0400466677
 H   -3.0170824278   -4.9045992281   -0.8673922956
 H   -1.5880353640   -4.8027325002    0.1890858907
 H   -4.5022691200   -4.3688673373    1.0611207123
 H   -3.0889846141   -4.4466635631    2.1456996768