19

 C   -0.0331236937    1.5077579112   -0.0124566266
 C    0.0531518718    0.0026711855    0.0084116183
 C   -0.8362528027   -0.8080977620    0.9152123456
 O   -1.5282271418   -1.9437233592    0.4551881732
 C    0.6647062300   -0.8060980802    1.1532551972
 C    1.3964535662   -1.9394059790    0.5072794286
 C    1.2515539549   -1.9252863220   -0.8204373185
 C    0.4509428161   -0.7190832588   -1.2962232798
 O   -0.6520757615   -1.0375903656   -2.1302580341
 H    0.9385864353    1.9601659154   -0.2425108446
 H   -0.7456444165    1.8373993252   -0.7772539352
 H   -0.3661794224    1.9074450971    0.9508513322
 H   -1.4401459202   -0.2529699928    1.6277457685
 H   -0.8915768878   -2.6687141565    0.3982220860
 H    1.0508081937   -0.3455524423    2.0562649460
 H    1.9340691260   -2.6886707870    1.0786985551
 H    1.6292414501   -2.6654468495   -1.5165496008
 H    1.0884340302   -0.0655659345   -1.9069725571
 H   -1.2985890975   -1.4722039750   -1.5556453839