20

 C    0.3444125665    1.1590322976    0.4337948637
 O    0.1861734140   -0.2058171027    0.1327642549
 C    0.5110419848   -0.5463542196   -1.2145813597
 C    2.0070967217   -0.5415307088   -1.4646032348
 C    2.5042561240   -1.7776109797   -1.4620975553
 C    1.4352967829   -2.8225628423   -1.2658295557
 C    0.1227512764   -2.0257688777   -1.4801539697
 C   -1.0803917643   -2.5317281682   -0.6880119793
 H    1.3954138531    1.4813699208    0.3906425325
 H   -0.2382570981    1.7971136084   -0.2507002653
 H   -0.0225945539    1.3115072896    1.4522395602
 H   -0.0352472035    0.1402509147   -1.8820079165
 H    2.5870425903    0.3679446435   -1.5721333111
 H    3.5548694163   -2.0281222717   -1.5686627797
 H    1.5265649304   -3.6635662911   -1.9629122928
 H    1.4920902120   -3.2513050688   -0.2551874836
 H   -0.1095888542   -2.0814312333   -2.5506920985
 H   -0.8975751663   -2.4605176515    0.3865608121
 H   -1.9789858515   -1.9475575689   -0.9108664206
 H   -1.2899821506   -3.5776028702   -0.9366270109