18

 C   -0.0141552359    1.4930223575   -0.0301833633
 C    1.5192681896    1.8307288424    0.0749890555
 C    1.8406868394    1.6770549731    1.5357351325
 C    1.4884686180    0.4933376616    2.0530630882
 C    0.9879577113   -0.5005478621    1.0569988122
 C    1.9935007098   -0.7115746024   -0.0850443453
 C    2.0865129892    0.6456740768   -0.7625460810
 C    0.9554410063   -0.3076039892   -1.0791446187
 N   -0.0256212005    0.0267559664   -0.0138057557
 H   -0.5991957034    1.9223146987    0.7858898751
 H   -0.4264314097    1.8203612043   -0.9910968580
 H    1.7969428924    2.8034793934   -0.3335977133
 H    2.2473937998    2.4962499165    2.1189144677
 H    1.5817669665    0.2327754224    3.1014065334
 H    0.5903532022   -1.4178808620    1.4908862641
 H    2.7708567553   -1.4641297993   -0.1320713620
 H    2.8966235363    0.8056362338   -1.4631240085
 H    0.6545637634   -0.6819398519   -2.0488916729