19

 C   -0.0371746881    1.5587970629    0.0379406661
 C   -0.1104869114    0.0181419928    0.0348686425
 C   -1.5058594459   -0.4296660455   -0.0397636634
 N   -2.6129104916   -0.7561306868   -0.0971090337
 C    0.7041147239   -0.5715509106   -1.1263635800
 C    2.2539053660   -0.4406205261   -1.1162275693
 C    2.2789923877   -1.9630618902   -1.2378502845
 C    1.5577007752   -2.5885796392   -0.1180373800
 N    0.7592671469   -2.0733027425   -1.2489301060
 H    1.0033094312    1.8818708326    0.1308642280
 H   -0.4461068107    1.9687833092   -0.8896922364
 H   -0.6046940428    1.9742976158    0.8735881415
 H    0.2938249480   -0.3483929777    0.9857784083
 H    0.2839818899   -0.1940970860   -2.0625221822
 H    2.6409574673    0.0896374091   -1.9871367962
 H    2.7252937190   -0.0295272818   -0.2172833163
 H    2.8892061884   -2.5272371041   -1.9347027040
 H    1.5343709829   -3.6723387608   -0.0691095010
 H    1.5268205640   -2.0981571412    0.8522181167