16

 C    0.0429921424    1.2411489057   -0.6984435200
 C   -0.0900727354    0.1127755164    0.2972080390
 O    0.7364249317   -0.1155818102    1.1559404932
 C   -1.3062301718   -0.7500066640    0.1826196842
 C   -1.8387164552   -1.4397329400    1.4362993302
 C   -1.2584614753   -2.2813234551    0.3619994660
 O   -2.1550472060   -2.7799390982   -0.6157348228
 C   -2.6825061214   -1.6809948325   -1.2183623855
 N   -2.2666759497   -0.5291436261   -0.8733103066
 H    0.9658221969    1.7893014547   -0.5075132851
 H    0.0373953682    0.8460418381   -1.7196174817
 H   -0.8225694089    1.9078935631   -0.6278101230
 H   -1.2134889456   -1.3090935587    2.3118214873
 H   -2.9123461550   -1.4334038869    1.5889593162
 H   -0.3610963752   -2.8732593860    0.4811737616
 H   -3.4305158797   -1.8916584604   -1.9723777930