19

 O    0.0401392497    1.4792930164   -0.1389426623
 C    0.0764238712    0.0851038585    0.1442522759
 C   -1.3025273296   -0.5489150787    0.0835949718
 C   -2.0025502324   -0.7536201327   -1.2894657150
 O   -1.0185286747   -1.4841893854   -2.0387762965
 C   -1.0290652780   -2.6744582438   -1.2298439913
 C   -2.4610082418   -3.2048419980   -1.4587501365
 C   -2.8330302356   -1.9486877995   -0.6583823462
 C   -1.5001238004   -2.0722017951    0.1669535152
 H   -0.1545161552    1.5758123005   -1.0763933104
 H    0.7606930755   -0.4422108918   -0.5333261674
 H    0.4800481634   -0.0039204932    1.1592007999
 H   -1.9856048308   -0.0518512905    0.7811493705
 H   -2.4352327545    0.0489369953   -1.8854317828
 H   -0.1239872613   -3.2597434248   -1.3812834855
 H   -2.7866535925   -3.3151813265   -2.4960701407
 H   -2.6730143464   -4.1094951464   -0.8824590746
 H   -3.8069752258   -1.7420779510   -0.2197344257
 H   -1.3886749806   -2.6747515932    1.0665564418