18

 C   -0.0568622802    1.4928493898   -0.0452762293
 C    0.0219811348   -0.0092376629    0.0150325197
 N   -1.1804430083   -0.7089215202   -0.4208591148
 C   -1.2472784513   -2.0006828971    0.2777469066
 C   -0.2136699050   -1.9610973787    1.4173899821
 O   -0.1646637387   -2.7315294826    2.3455831988
 C    0.6798380647   -0.7921638384    1.1770304337
 C    1.3020012294   -0.7174008383   -0.2304502798
 O    1.3300425616   -1.8159310543   -1.0845876393
 H    0.8941655784    1.9510100645    0.2374020443
 H   -0.3042487411    1.8174195825   -1.0617584858
 H   -0.8282758902    1.8742504499    0.6338623593
 H   -1.9774408994   -0.1434900076   -0.1498426295
 H   -2.2453381076   -2.2001417005    0.6755755447
 H   -0.9789750988   -2.8248308880   -0.3929435341
 H    1.2122606338   -0.3621929591    2.0164947467
 H    2.1877883908   -0.0826528445   -0.2711062257
 H    2.0115350371   -2.4224935048   -0.7737991677