15

 O    0.1088132156    1.0699953090    0.9266635584
 C   -0.0337879533    0.1943043068   -0.1845412052
 C   -1.3707890866   -0.3859234569   -0.1817890641
 C   -2.4672975397   -0.8781023758   -0.1964949306
 C   -3.8071823201   -1.4676061395   -0.2059719987
 C   -3.8087104107   -2.9216176155   -0.0558839531
 C   -3.8200849511   -4.1243247136    0.0647480629
 C   -3.8319121197   -5.4783937576    0.2011922282
 C   -3.8437870760   -6.6796299549    0.3218909612
 H    1.0048011786    1.4211092620    0.9015537568
 H    0.1245385114    0.7272974836   -1.1363643643
 H    0.7066082275   -0.6214005586   -0.1498528015
 H   -4.4050617127   -1.0200182663    0.6008327320
 H   -4.3248594817   -1.2000824553   -1.1382229018
 H   -3.8533463814   -7.7358132875    0.4288312197