20

 C   -0.1522688601    1.4732242078   -0.1276760142
 C   -0.0563415066   -0.0357893641    0.0107957722
 O   -1.3689360930   -0.5725760103    0.0312500942
 C   -1.4146743447   -1.9780782410    0.1420938610
 C   -2.8849888772   -2.3680926948   -0.0036418145
 O   -3.4041173061   -1.8714217270   -1.2175612382
 C   -3.0550374344   -3.8930953692   -0.0203558091
 C   -4.4571403925   -4.3033274900   -0.0031893410
 N   -5.5620777788   -4.6381974169    0.0296999967
 H    0.8477177991    1.9161111896   -0.1439404049
 H   -0.6652499880    1.7434511124   -1.0551118945
 H   -0.7083262637    1.9019185434    0.7106337438
 H    0.5126550663   -0.4709040181   -0.8268209158
 H    0.4716381146   -0.3085320162    0.9387322813
 H   -0.8208323367   -2.4498792917   -0.6588131803
 H   -1.0115316096   -2.3124748119    1.1121619486
 H   -3.4355574814   -1.9547618147    0.8561711157
 H   -3.1152474787   -0.9517061069   -1.2709438691
 H   -2.5800144850   -4.2931231764   -0.9228607091
 H   -2.5523980935   -4.3351794040    0.8471674272