13

 O    0.1494986222    1.3708437630   -0.0427642517
 C    0.0255171555   -0.0168291986   -0.0832428326
 C   -1.4018817037   -0.4860158006   -0.0378284828
 N   -2.3386965128    0.4071365848    0.0322990247
 C   -3.6518605894   -0.0346611217    0.0739525106
 O   -4.6390848984    0.6478579171    0.1386234483
 N   -3.7511266302   -1.4477916718    0.0318267878
 N   -2.7524252075   -2.3190066503   -0.0405370058
 N   -1.5604049292   -1.8670387981   -0.0771407166
 H   -0.7491146133    1.7299812539    0.0085445260
 H    0.4796828180   -0.4361662897   -0.9961573514
 H    0.5542103755   -0.4941039013    0.7583784371
 H   -4.6750215666   -1.8621538768    0.0578964465