21

 C    0.0059722863    1.6190621432    0.1659164548
 C   -0.0078619524    0.0988234545    0.1014001800
 C    0.8460579599   -0.6138738603   -1.0145503952
 C    1.6190976039   -1.3454542536    0.1001802665
 C    2.2966936835   -2.6782269281    0.0616688870
 C    3.5911076921   -2.6512090299   -0.7490172654
 O    4.1174836024   -3.9690586203   -0.7543224821
 O    2.2093613383   -0.3113376441    0.9138635579
 C    0.8365493480   -0.6597854543    1.1426870418
 H    1.0346086103    1.9834225117    0.2373706834
 H   -0.4520814163    2.0565205632   -0.7275203184
 H   -0.5481400032    1.9848569850    1.0375498963
 H   -1.0334627775   -0.2843837976    0.0895829490
 H    0.2501596024   -1.2791728931   -1.6444494065
 H    1.4561952657    0.0374630108   -1.6460045152
 H    2.5247000015   -3.0023153539    1.0822824892
 H    1.6229864527   -3.4234549388   -0.3778193856
 H    3.3832414485   -2.3001227113   -1.7729479549
 H    4.2904033068   -1.9363049256   -0.2907226561
 H    4.9596015794   -3.9543431827   -1.2180192286
 H    0.5708096677   -0.9679448548    2.1489467419