20

 C   -0.0057459533    1.5863478231   -0.0227551796
 C    0.0308242658    0.0495817409    0.0205250629
 C    0.6698865068   -0.5162693383   -1.2573426570
 C    0.7975971716   -2.0389003358   -1.2086706515
 C    1.5515789615   -2.5147416776    0.0320830058
 O    2.1871487250   -3.5570200074    0.0242402662
 C    1.4374309694   -1.6717916146    1.2109839352
 C    0.7291394617   -0.5121532317    1.2509622327
 N    0.5318190512    0.1683341764    2.4252312973
 H    1.0021449843    2.0124978519    0.0298439009
 H   -0.4557856540    1.9169162893   -0.9634115587
 H   -0.6098302781    2.0190772797    0.7816305796
 H   -1.0107262815   -0.3047924411    0.0661904910
 H    0.0751473130   -0.2060002774   -2.1237517442
 H    1.6650507907   -0.0693969035   -1.3808458468
 H   -0.2016840128   -2.4971838864   -1.1845967515
 H    1.3061141919   -2.4378280549   -2.0901391981
 H    1.9305032487   -2.0408115518    2.1068245203
 H    1.0740192043   -0.1248731604    3.2232579557
 H    0.3490250137    1.1566418595    2.3849710800