14

 O   -0.1210002929    1.3293843670    0.1277163274
 N    0.0585138445   -0.0721258481    0.1490928155
 C   -1.0752969341   -0.6747453651   -0.0220900305
 C   -2.3772916377   -0.0442571230   -0.2135608992
 N   -3.5041886981   -0.6684484046   -0.3840277823
 N   -3.4642125085   -2.0048366070   -0.3835017135
 C   -2.3112411772   -2.7429672928   -0.2144664534
 C   -1.1182337434   -2.1268563503   -0.0342496864
 O    0.0583575465   -2.7745871235    0.1386665662
 H    0.7786514979    1.6415378061    0.2628726357
 H   -2.4317682596    1.0352245125   -0.2174229708
 H   -4.3529585790   -2.4540939384   -0.5174891710
 H   -2.4298470622   -3.8198247780   -0.2364115222
 H   -0.0909529661   -3.7262950747    0.1116156146