18

 C    0.0902530669    1.4814931852   -0.0722576906
 C    0.0972091843   -0.0122993076    0.1028140773
 O    1.3448767977   -0.6858776629   -0.0408435897
 C    0.7274750944   -0.7424038916    1.2450769568
 C    1.4024115482    0.0443843581    2.3390335778
 O    2.2058212795    0.9236152293    2.1648374269
 C    0.2191806600   -2.0920764555    1.6682897912
 C   -0.0295739854   -3.1551586488    0.6690829498
 N    1.1194820029   -3.2584559940    1.5865821054
 H    0.9399014275    1.9402306527    0.4336732886
 H    0.1447736392    1.7226214209   -1.1389825968
 H   -0.8414847855    1.9037623947    0.3183592582
 H   -0.7375922311   -0.5449909642   -0.3571458893
 H    1.0821277114   -0.2543001471    3.3619711397
 H   -0.3839017171   -2.0746680411    2.5744781433
 H   -0.8216768224   -3.8780138352    0.8406021325
 H    0.1722237792   -2.9219296865   -0.3719466941
 H    1.9592247204   -2.9858331363    1.0777418232