17

 C    0.0490381871    1.4180313181    0.0589626017
 N   -0.1104044517   -0.0217358458   -0.0357659534
 C    0.5778920368   -0.6722435673   -1.0583139413
 C    1.2079074355   -0.1347048395   -2.1438173424
 O    1.6937959315   -1.1333725359   -2.9474401655
 C    1.3759368841   -2.3048916168   -2.3486067726
 C    0.6917663669   -2.1064391111   -1.1913298961
 C    0.1493572845   -3.1301330981   -0.2455772241
 H    1.1006270273    1.7400845277    0.1386061317
 H   -0.3780565316    1.8911561689   -0.8324047695
 H   -0.4986928568    1.7879122748    0.9288650605
 H   -0.0114294337   -0.4882695862    0.8553218467
 H    1.3760179754    0.8704982581   -2.4875718994
 H    1.6966257000   -3.1992679244   -2.8588164223
 H    0.6129998516   -3.0597053394    0.7473314960
 H   -0.9312287470   -3.0106591242   -0.1034125239
 H    0.3291323001   -4.1429439588   -0.6160056561