14

 C    0.0761538993    1.5494674428    0.0307110591
 C    1.3006904282    0.6533796390   -0.0917853272
 C   -0.0632092404    0.0630270321    0.0518427224
 C   -0.5647156762   -0.7830572975    1.2278883221
 N   -1.3929931219   -1.8292272619    0.6016276708
 C   -1.3486853441   -1.5984244413   -0.6433986887
 O   -0.6301963373   -0.5520171084   -1.1167811545
 H   -0.0871941882    2.0884912671    0.9586451972
 H   -0.2511989211    2.0683591361   -0.8632025531
 H    1.7726148922    0.5873772684   -1.0656543742
 H    1.9792950282    0.5762864070    0.7519230008
 H    0.2530537521   -1.2442838903    1.7935364844
 H   -1.1686701931   -0.2038227626    1.9358140272
 H   -1.8498141477   -2.1784096204   -1.4102120162