14

 N    0.0258462150   -1.1584943445   -0.0032012541
 C    0.0045889215   -0.0030619160    0.0213073399
 C   -0.0359653803    1.4380870443    0.0698324162
 C   -0.9222715965    2.1659191661    1.0689663023
 C   -0.7020674114    3.4596407448    0.8235297883
 C    0.3031727639    3.4734800335   -0.3080011581
 C    1.2976175941    2.2822680854   -0.0831585220
 O    1.3732243701    2.0065054925   -1.5153470861
 C   -0.0395477862    2.2845593069   -1.2710507563
 H   -1.5666132448    1.6902354228    1.7933828359
 H   -1.1321588951    4.3236419331    1.3093098749
 H    0.6849345605    4.3970682161   -0.7359721920
 H    2.2119885940    2.2176994259    0.5096563421
 H   -0.7360922447    2.2227438893   -2.1093091711