17

 O   -0.0903318758    1.3472660773   -0.1164976731
 C   -0.0383085360   -0.0538588530   -0.0289991000
 C    1.0602734234   -0.7176032158   -0.8578651563
 C    0.6856613874   -2.0691754550   -1.4129666182
 C   -0.3689405946   -2.7546407237   -0.9755891843
 C   -1.2055617943   -2.1724876612    0.1267884145
 O   -0.4294522267   -2.0099911399    1.3769169493
 C   -0.5685196701   -0.5982460904    1.2830616739
 C   -1.4200331394   -0.6531800015    0.0426394189
 H    0.6547427373    1.7027590659    0.3810929579
 H    1.2973970577   -0.0394841968   -1.6874584115
 H    1.9841067606   -0.8080172447   -0.2672036454
 H    1.3245600206   -2.4693491056   -2.1957692433
 H   -0.6226199259   -3.7294842887   -1.3786430590
 H   -2.1103820428   -2.7472570734    0.3358168438
 H   -0.6359275937   -0.0155595501    2.1951005963
 H   -2.3171488477   -0.1291850133   -0.2559568535