14

 C   -0.4602580996    1.4604402870   -0.0669672354
 C    0.1068791777    0.0519118890    0.0317425295
 C    1.3350293115   -0.2976570289   -0.8707655745
 C    2.0197162194   -0.8825091686    0.3745122805
 O    2.9757830518   -1.5812560451    0.5452361797
 C    0.9424335317   -0.3032665135    1.3048365693
 H    0.3254833208    2.2114931206    0.0767578900
 H   -0.9148692575    1.6384262020   -1.0473747061
 H   -1.2290292590    1.6339377254    0.6935842926
 H   -0.6893725960   -0.6841172350   -0.1138425069
 H    1.1891712140   -0.9821247109   -1.7103412931
 H    1.8634626144    0.5909306845   -1.2363944313
 H    1.3089450181    0.5830112224    1.8365286072
 H    0.5129412020   -0.9917791689    2.0370552519