18

 C    0.0293328991    1.4684423235   -0.0163859076
 C    0.0354475257    0.0130038766    0.0128207544
 C    0.0437544006   -1.1915121996    0.0373563610
 C    0.0563166379   -2.6579136731    0.0665807376
 C   -1.3578230838   -3.2299665432   -0.1178266824
 O    0.9390489588   -3.1835948837   -0.9414502700
 C    0.6930915681   -3.1579839172    1.3838419196
 O    0.8165303704   -4.5627185030    1.3922970713
 H    0.9000218578    1.8569819282   -0.5558819616
 H   -0.8688978478    1.8555598616   -0.5097686726
 H    0.0566005733    1.8834223201    0.9971226173
 H   -1.7502015934   -2.9704203038   -1.1062006774
 H   -1.3223862537   -4.3163438568   -0.0140808610
 H   -2.0405483750   -2.8216143649    0.6326272751
 H    0.6085283812   -2.9041902304   -1.8012895746
 H    1.6664338534   -2.6606845095    1.5010236392
 H    0.0584742255   -2.8781866296    2.2290013591
 H    1.2778213020   -4.7883576754    0.5749732630