16

 N    0.1437038480    0.9479587489    0.7189148136
 C    0.0672189470   -0.1170815402    0.0545583049
 O    1.0481432746   -0.6025789560   -0.7678241493
 C    0.6970889321   -1.8777070166   -1.2725950917
 C    0.5583150916   -2.9798722098   -0.2644022105
 C   -0.6677360570   -2.2538460677   -0.7814375130
 C   -1.1566313835   -1.0539353063    0.0264431176
 C   -1.6760392204   -1.3660560606    1.3507025248
 C   -2.1128982016   -1.6535631444    2.4315905542
 H    1.0476248442    1.4007218751    0.5752955721
 H    1.0646308179   -2.0375111449   -2.2779373478
 H    0.7100488201   -3.9973048504   -0.6070129328
 H    0.8854938886   -2.7850750875    0.7518495974
 H   -1.3792764652   -2.7808408579   -1.4033865004
 H   -1.9372670113   -0.5359100413   -0.5461241658
 H   -2.4953213450   -1.8895986105    3.3936731666