10

 O   -0.0413918986   -0.0365725321    0.0034320837
 C   -0.0243714069    1.1726126510    0.0064664718
 C    1.1885282606    1.9553985502    0.0003479752
 C    2.2127192643    2.5859366661   -0.0049345627
 C   -1.2969509052    1.9521984346    0.0172077086
 N   -1.3870526112    3.2545518817    0.0212402025
 O   -2.6935496799    3.5176687159    0.0309695151
 N   -3.4027230833    2.2801719492    0.0322601265
 N   -2.5533037763    1.3670351604    0.0242020770
 H    3.1187123566    3.1434232132   -0.0098033677