18

 C   -0.0337835015    1.5002772349    0.0340416749
 C   -0.0080867872    0.0098194514   -0.0203308585
 C   -0.0180252083   -0.7963462257   -1.0914568266
 C    0.0175560899   -2.1976512537   -0.6511158653
 N    0.0236672124   -3.3053083013   -1.2695762265
 O    0.0492155547   -2.1931949305    0.7217136067
 C    0.0354082277   -0.8586633778    1.1789737381
 C    0.8142901246   -0.5649850123    2.4374609491
 C   -0.6949508334   -0.5925904548    2.4722132037
 H    0.8527622286    1.8944803521    0.5448577636
 H   -0.0662526644    1.9305175299   -0.9691877374
 H   -0.9077371954    1.8626629222    0.5882470149
 H   -0.0473028271   -0.5026946095   -2.1317210904
 H   -0.0023644613   -3.1378002336   -2.2735950360
 H    1.3442077114   -1.4068390985    2.8671277467
 H    1.3222249070    0.3897658428    2.5178574515
 H   -1.2332368425    0.3430001979    2.5767421548
 H   -1.1733967553   -1.4529212534    2.9250554568