21

 C   -0.2322451103    1.5555866654   -0.0823849326
 C    0.0714993425    0.0705377277    0.0702370908
 C    1.3152462855   -0.6753314067   -0.3375881651
 C    2.6317785927   -0.0542805154    0.1683991055
 O    2.7649176643    1.3952870592    0.2234687907
 C    2.4134768508    1.4074273285    1.6349443079
 C    2.1479407794   -0.1099306043    1.6201068791
 C    0.7985843842   -0.7086242452    1.1372710513
 C    0.1338058672   -1.8242650042    1.8971311807
 H    0.6650853355    2.1662985282   -0.1311240095
 H   -0.7823192531    1.7082408348   -1.0176900367
 H   -0.8748902664    1.9115193422    0.7309923789
 H   -0.7972194474   -0.5219326214   -0.2228144679
 H    1.2833663081   -1.4560748913   -1.0910489383
 H    3.5446757661   -0.5393963409   -0.1860350070
 H    3.2775767846    1.6978978104    2.2451304887
 H    1.5753821849    2.0756275300    1.8554405335
 H    2.6522084945   -0.7213470641    2.3679662706
 H   -0.3647952106   -1.4471198284    2.7993230772
 H   -0.6257224706   -2.3228143801    1.2861699488
 H    0.8586788281   -2.5826822243    2.2159070436