12

 N   -0.1309034447    1.3272519045    0.0191233342
 C    0.0448216904   -0.0236871066    0.0115022256
 O    1.1321973393   -0.5709058842    0.0021610241
 C   -1.2003706724   -0.8163951092    0.0153745661
 C   -1.4298692204   -2.1551399700    0.0111735136
 N   -2.7953084357   -2.3896630366    0.0185481627
 C   -3.3187896263   -1.2059471664    0.0257660724
 O   -2.4266500341   -0.1917499794    0.0258874463
 H    0.6869706897    1.9128287829    0.0134427520
 H   -1.0446001022    1.7452234772    0.0224727918
 H   -0.7042970321   -2.9514068393    0.0033300090
 H   -4.3630869415   -0.9352155929    0.0331772821