12

 C   -0.0527896959   -3.8093362709   -0.0178680965
 C   -0.0275715315   -2.6027529825   -0.0116306154
 C    0.0005027440   -1.2423100455   -0.0045933814
 C    0.0254551505   -0.0344940417    0.0016540992
 C    0.0445370329    1.4255086929    0.0093134385
 C    1.3954448830    1.9830845829   -0.0006062324
 C    2.5076822971    2.4501079503   -0.0087252309
 C    3.7659024221    2.9813195899   -0.0178741042
 N    4.8346223613    3.4357300409   -0.0256293749
 H   -0.0733211131   -4.8712140948   -0.0233722756
 H   -0.5071985066    1.8112734623   -0.8600399090
 H   -0.4904421739    1.8018558264    0.8931460926