19

 C   -0.1416792812    1.5894067644   -0.0616426116
 C   -0.0188015768    0.0694780983   -0.0073317464
 C   -1.3822244465   -0.5832195797   -0.2132274657
 C    1.1994259275   -0.6579751678   -0.6705076687
 C    2.1691094047   -0.0854649783    0.3866711864
 C    0.8895956817   -0.6042643910    1.1023980672
 O    0.9787133741   -1.8135743362    0.2320487608
 C    0.6223513190   -0.7558683496    2.4999317673
 C    0.3776930231   -0.8422498556    3.6741736604
 H    0.8018353345    2.1232541906    0.0571841352
 H   -0.5761204852    1.8932802780   -1.0205045001
 H   -0.8213973224    1.9361759886    0.7244293442
 H   -1.8044582130   -0.2838711870   -1.1791815977
 H   -1.3089814725   -1.6695615186   -0.1815778464
 H   -2.0819490645   -0.2553779015    0.5634310598
 H    1.3803685736   -0.8814526024   -1.7219199615
 H    3.0458687526   -0.7067887990    0.5666422314
 H    2.3973529055    0.9791263952    0.4059846287
 H    0.1655446959   -0.9275306884    4.7114806465