17

 C   -0.3980409608   -1.2599084816   -0.1914080433
 C   -0.1453863718   -0.0892512308   -0.0712297071
 C    0.0318639921    1.3279617900    0.0311734161
 C    0.5132268326    2.0796836047    1.2698840650
 O    1.2221978925    1.4044642948    2.2686449859
 C    2.5621681674    1.1934325165    1.8663728388
 C    2.8408923801    0.1100720071    0.8671967106
 C    2.6890146272    1.5500734871    0.4049860095
 C    1.3460462306    2.1270349978    0.0185610276
 H   -0.5956931807   -2.2989035490   -0.2841837055
 H   -0.7609695904    1.8750325440   -0.4772289968
 H   -0.0956197626    2.8939100165    1.6509492369
 H    3.2805735213    1.4559593437    2.6357073756
 H    3.8518866507   -0.2851752442    0.8535357798
 H    2.0649387975   -0.6078696031    0.6464723308
 H    3.5590481347    2.0659651565    0.0176996261
 H    1.3609834595    2.9989602301   -0.6241819901