14

 O   -0.1133335251    1.4660775266    0.0868597633
 C    0.0273575207    0.0556458969    0.0298379451
 C    0.7323313888   -0.3941379543   -1.2649433910
 C    0.0146393673    0.1582803143   -2.4849290185
 O    0.5697158095    0.6721069324   -3.4172774022
 C    0.7031858682   -0.4791315647    1.2145113522
 C    1.2935388951   -0.8962350154    2.1826080627
 C    1.9540842918   -1.3709831552    3.2795445209
 N    2.5177980864   -1.7758604155    4.2108003448
 H    0.7665510380    1.8597837487    0.1291335054
 H   -1.0024666870   -0.3246087209    0.0207129218
 H    1.7762425847   -0.0676037828   -1.2828664669
 H    0.7199539330   -1.4909753099   -1.3219049905
 H   -1.0921860513    0.0335733796   -2.4637883071