22

 C   -0.3568354897    1.5099242174    0.1773971465
 C    0.0547099155    0.0548674996    0.0391313411
 C    1.1054269756   -0.3752402535   -1.0234179126
 C    1.9049859945   -0.9690379482    0.1422447117
 C    2.5452438354   -2.3278062328    0.1523714039
 C    3.8545479569   -2.3617208792   -0.6321694486
 O    4.3512237144   -3.6901179148   -0.5856720391
 C    2.2013470555    0.0898906326    1.1284065919
 N    0.8654931771   -0.5437636132    1.1697121575
 H    0.5011981807    2.1869245357    0.2277922466
 H   -0.9655170126    1.8131204616   -0.6814736877
 H   -0.9547511945    1.6517977404    1.0837018084
 H   -0.8452610961   -0.5609015189   -0.0460664322
 H    0.7266853370   -1.1222215195   -1.7246316721
 H    1.6011389735    0.4182743087   -1.5920018003
 H    2.7402913391   -2.6323831674    1.1862829895
 H    1.8629047840   -3.0722262709   -0.2759473898
 H    3.6758147332   -2.0392597126   -1.6712804685
 H    4.5686901337   -1.6490282032   -0.1894540990
 H    5.1764508710   -3.7205875754   -1.0781912893
 H    2.8071347106   -0.1779561552    1.9891917696
 H    2.3069418554    1.1253443386    0.8144206927