21

 C   -0.4254806198    1.5305458909   -0.0217172432
 C   -0.0029120269    0.0644659724   -0.0304894186
 O    0.7280242604   -0.2758101720   -1.2299834166
 C    2.0285876474   -0.7050747674   -0.8154760245
 C    2.7818129550    0.5123311131   -0.2132250551
 C    2.3417563410    0.2921143593    1.2515959127
 C    2.8987297740   -1.1415792119    1.4826913945
 C    1.7915395527   -1.5345146028    0.4777698052
 C    0.9277070628   -0.3951210770    1.0886406561
 H    0.4328148431    2.2034493584    0.0518792989
 H   -0.9712221759    1.7708322605   -0.9386294460
 H   -1.0875049175    1.7266231955    0.8290744629
 H   -0.9122949584   -0.5554585905   -0.0168530928
 H    2.5019488179   -1.2035322755   -1.6614165008
 H    3.8703143670    0.4506956633   -0.3146812816
 H    2.4431022873    1.4398582606   -0.6769211034
 H    2.5130707566    1.0966258415    1.9667129447
 H    3.9449474969   -1.3291256525    1.2226923058
 H    2.6897732680   -1.5273572912    2.4837380116
 H    1.4202116248   -2.5515454868    0.3545157476
 H    0.4430493837   -0.6210532980    2.0390478926