15

 C    0.0728916069   -1.1702579938    0.0810529339
 C   -0.0157629646    0.0312892047    0.0407236464
 C   -0.0578789989    1.4434175617   -0.0169449125
 C   -1.1592326960    2.2163218745   -0.0451821858
 C   -0.7972190825    3.6576305186   -0.0208073078
 N   -0.0622940017    4.0398111765    1.2246752125
 C    0.6918418006    3.7147664328   -0.0018411790
 C    1.2181264067    2.2862454153   -0.0347424920
 H    0.1331990450   -2.2294612784    0.1205367697
 H   -2.1763071146    1.8460863417   -0.0466669076
 H   -1.4153682998    4.4030504535   -0.5087224495
 H   -0.0968649086    5.0543648052    1.3162112921
 H    1.2410755876    4.5035142202   -0.5042279811
 H    1.8557386117    2.0626040261    0.8268675886
 H    1.8063204284    2.0875613615   -0.9386745980