12

 N   -0.0874433017   -1.1325895684    0.0045537036
 C   -0.0499813306    0.0256291964    0.0092587056
 C    0.0083948273    1.4365090826    0.0122317313
 C   -0.8795486891    2.4564145233    0.7753795375
 C    0.3136607480    3.4422489072    0.7728509376
 C    1.1598332309    2.4781176034    0.0258476869
 N    0.3318404458    3.4764157620   -0.7341666733
 C   -0.8233597986    2.4816099395   -0.7191470904
 H   -1.6831744849    2.2367722288    1.4627988769
 H    0.5632579354    4.3029308532    1.3793886478
 H    2.2305516711    2.3819351462   -0.0986018068
 H   -1.5688758236    2.3679339257   -1.4949848668