14

 N    0.0209696184    1.3550993463    0.1555989563
 C   -0.0322737676   -0.0346771640    0.0565078470
 C   -1.1549319012   -0.8463915968    0.0305080273
 N   -0.6179828423   -2.1293297577    0.0034925008
 N   -1.0280594830   -3.4325570732   -0.0369267294
 C    0.1005587356   -4.0981578645   -0.0486162162
 N    1.2094711354   -3.2808767561   -0.0200281480
 C    0.7321743925   -1.9928923247    0.0132805084
 N    1.1551563223   -0.7492534560    0.0418853439
 H    0.9154419675    1.7057082955   -0.1610306757
 H   -0.7366275462    1.8266038946   -0.3190172977
 H   -2.2109575625   -0.6512090917    0.0455154682
 H    0.1657099057   -5.1728673113   -0.0776599149
 H    2.1734986755   -3.5616612703   -0.0193200497