19

 C   -0.2108582252    1.4908139290    0.0438480027
 C    0.0665670724    0.0007764999    0.0028145806
 O    1.1768041827   -0.3431307401   -0.8650718277
 C    1.9971654629   -0.7522845023    0.2476949486
 C    0.7988930315   -0.6231801405    1.2205545756
 O    0.9411099435    0.2621069859    2.2993879276
 C    0.1992869215   -1.9680392810    1.6746455425
 C    1.0171721178   -2.5875453329    2.7112003993
 C    1.7282601441   -3.0227202544    3.5787061827
 H    0.6665348479    2.0464439559    0.3812271231
 H   -0.4874623457    1.8372290868   -0.9565655457
 H   -1.0372025985    1.7073287589    0.7281282609
 H   -0.8371337443   -0.5464286488   -0.3001442779
 H    2.4242762311   -1.7519062902    0.1063256896
 H    2.7993716092   -0.0350760919    0.4605860548
 H    1.3572746665   -0.2231181718    3.0236358513
 H   -0.8129196883   -1.7876310822    2.0580737967
 H    0.1038173169   -2.6357628220    0.8107798736
 H    2.3404702238   -3.4442300282    4.3375564419