18

 C   -0.0581093496    1.6148962340    0.0670564818
 C    0.0440270536    0.0861274106   -0.0012015628
 C    0.9114095600   -0.4515000531    1.1306853900
 O    1.5657392815   -1.4599082829    1.0587445584
 C   -1.3456140736   -0.5757964564    0.0284740088
 C   -1.4356004563   -2.1305776261    0.0685315430
 C   -2.2571610225   -1.9378354923    1.3636085297
 O   -2.8829080737   -2.6357844675    2.1108503848
 N   -2.0311598731   -0.5719246588    1.3350520548
 H    0.9281498080    2.0847994117    0.0044495344
 H   -0.6663490464    2.0021878670   -0.7556819533
 H   -0.5193424706    1.9376445789    1.0075778466
 H    0.5215744368   -0.2220288612   -0.9388645237
 H    0.8998650201    0.1566431919    2.0631638903
 H   -1.9572526798   -0.1395235006   -0.7712149639
 H   -1.9947624507   -2.5892466582   -0.7481739349
 H   -0.4826432256   -2.6428518581    0.2070759622
 H   -2.5370981581    0.1637003111    1.8084994239