21

 C   -0.1779215277    1.6594868777    0.1267784709
 C   -0.1440871571    0.1467216615   -0.0067884240
 C    0.2920443869   -0.7083823823    1.2154643450
 C   -0.8268242939   -1.7240777040    0.8575698061
 C   -1.4948560205   -0.6239147192   -0.0121586232
 N    1.1675843057    2.2052744119    0.2799009095
 C    1.8642818513    2.5560636138   -0.9531958125
 C    1.3373714093    3.6147647148   -0.0480270378
 H   -0.7048310028    2.0991141325   -0.7427731373
 H   -0.7532807906    1.9356449183    1.0203465216
 H    0.4491179207   -0.1271796371   -0.8872591897
 H    1.3228082743   -1.0674709324    1.2435933103
 H    0.0839115874   -0.1859038280    2.1547129974
 H   -0.4476896412   -2.5479499129    0.2457936741
 H   -1.4129379627   -2.1461181176    1.6773762995
 H   -2.2642880902   -0.0800765729    0.5468799455
 H   -1.9132237095   -0.9156437901   -0.9788831301
 H    2.9263471469    2.3296859469   -0.9828399537
 H    1.3395123299    2.4058055953   -1.8961765769
 H    0.4638567612    4.1687215610   -0.3899919237
 H    2.0070822628    4.1756627225    0.5979353790