15

 C   -0.0343098939    1.4202347001   -0.0122601126
 N   -0.0081257493   -0.0350823018    0.0343227329
 N   -0.0424603983   -0.6571844068   -1.1307350032
 N   -0.0230219652   -1.9305957227   -1.1828152483
 C    0.0355005408   -2.6103016532    0.0420337250
 N    0.0518483952   -3.9479144099   -0.1106490592
 N    0.0722814545   -2.0750512759    1.2282270779
 C    0.0516978725   -0.7011178972    1.2893005596
 N    0.0798169984    0.0345074539    2.3312553764
 H    0.8620432378    1.8195226763    0.4670285144
 H   -0.0813802383    1.7107841050   -1.0611380382
 H   -0.9019956824    1.7898455520    0.5382163207
 H    0.0236759877   -4.3367599563   -1.0360197114
 H    0.0938113688   -4.5411667842    0.6986416652
 H    0.1216527516   -0.5693055891    3.1514175309