18

 O   -0.5441730630    0.6478736069   -0.9011383273
 C    0.0368849402    1.0233327790    0.0906651855
 C    1.2963053774    1.8105053206    0.0251875973
 C    1.5588517653    2.9355804961    1.0021190662
 C    0.5918475189    3.3036829841    2.1209585204
 C    0.5101623488    2.2816004086    3.2196439553
 C    1.2423169965    1.1716638121    3.2418445981
 C    2.2388859173    0.8078511070    2.1779760744
 N    2.3602942760    1.7276424548    1.0410172168
 H   -0.3513629266    0.7964485629    1.1040239927
 H    1.6624600350    1.9177477257   -0.9934593747
 H    2.0863901333    3.7877257791    0.5764403005
 H    0.9182002234    4.2590469879    2.5530203431
 H   -0.4074205634    3.5047689058    1.7117860707
 H   -0.1778374264    2.4995120587    4.0319410762
 H    1.1658972340    0.4773867748    4.0749756676
 H    3.2349575512    0.7508091384    2.6401653616
 H    2.0390535821   -0.2005147824    1.7925441557