21

 C    0.1045572973    1.4179784026   -0.0276555611
 O    0.0833747336    0.0055620412   -0.0469308171
 C    0.6083430591   -0.5771656945    1.1074413315
 C    2.1280873417   -0.4734299541    1.3815308069
 C    2.1353544830   -1.9932790374    1.7348928142
 C    0.6709240996   -2.1361164950    1.2260925183
 C   -0.3969076932   -2.0925974568    2.3331548503
 O   -0.0630835452   -2.8347374763    3.4844289842
 C   -0.2875364113   -0.5338240206    2.3896144744
 H    1.1282636602    1.8110665480    0.0566395916
 H   -0.3269517557    1.7597722443   -0.9713240246
 H   -0.4908559354    1.8268481483    0.8023406343
 H    2.6749420200   -0.2680999624    0.4566907107
 H    2.4571757690    0.2276946472    2.1540863625
 H    2.8666658350   -2.5843474577    1.1815971627
 H    2.2408460612   -2.2172316369    2.7973112937
 H    0.5072459484   -2.8004076069    0.3780943260
 H   -1.3762653722   -2.3980173747    1.9393074885
 H   -0.7491600543   -2.6932757686    4.1442261131
 H    0.2193778726   -0.1643171471    3.2856034017
 H   -1.2330909033   -0.0021658725    2.2609147883