18

 O   -0.3762497654    1.2453285805    0.0866315080
 C   -0.0256187939   -0.1260221037    0.1276607784
 C    0.5078924369   -0.5576500600   -1.1820939230
 N    0.9541720022   -0.8633843662   -2.2035458940
 C    0.9580849051   -0.4773765220    1.2682590542
 C    0.3486432141   -0.0580556804    2.6350993790
 C   -0.1739952186   -1.3583843793    3.1972081413
 C    0.2682307452   -2.4136326546    2.5163387883
 C    1.1693444591   -2.0147374326    1.3715888135
 H    0.4193624413    1.7540944666   -0.1097966965
 H   -0.9668421606   -0.6603312563    0.3020222519
 H    1.8988120837    0.0440223850    1.0641644936
 H    1.1129815522    0.3748541387    3.2942483864
 H   -0.4214905398    0.7103315181    2.5132472785
 H   -0.8110401640   -1.3981211949    4.0735721494
 H    0.0506828111   -3.4498465010    2.7490265884
 H    0.9335542964   -2.5335060241    0.4348880505
 H    2.2172744750   -2.2577023638    1.5904440122