13

 O   -0.0883000370    1.4723195431    0.0093819456
 C    1.3590986946    1.2364247952   -0.0046864236
 C    1.2367472073    0.0686179405    1.0376723438
 C    2.2389619676   -0.9977654524    0.6442570492
 C    2.2271356251   -0.9905532415   -0.6931492341
 C    1.2182266852    0.0799193282   -1.0572567665
 C    0.0595278666    0.0132521468    0.0002040317
 H    2.0214933334    2.1059030082   -0.0058520583
 H    1.0189852575    0.3041392190    2.0777369210
 H    2.8189105130   -1.6112340536    1.3194647699
 H    2.7949957232   -1.5966483832   -1.3850835222
 H    0.9821322001    0.3266275912   -2.0907069810
 H   -0.8484342465   -0.5953056613    0.0049473015