22

 C   -0.4456991519    1.1881637448    0.9372502729
 N    0.0617378479   -0.1504724048    1.1575047584
 C    1.1253290364   -0.6544832307    0.4687484759
 O    1.7389735752   -0.0200057065   -0.3716360158
 C    1.4918256010   -2.1074784460    0.7936086977
 C    1.1277116954   -2.6036523128    2.1780057353
 C   -0.2314360047   -3.2174591598    2.4749294091
 C    1.0110439050   -4.0735374143    2.5130376718
 C    1.2358604914   -5.1742663625    1.4988682297
 H    0.2036627564    1.6636149813    0.2011710456
 H   -1.4712656827    1.1719583088    0.5498599942
 H   -0.4327066085    1.7767580574    1.8615494018
 H   -0.3929742175   -0.7472661246    1.8284188016
 H    1.0169858589   -2.7259154416    0.0229056672
 H    2.5695748649   -2.1844279333    0.6203202159
 H    1.5422654168   -1.9926245955    2.9764528237
 H   -0.7324624546   -2.9744165053    3.4063949252
 H   -0.9050027639   -3.3652338836    1.6350442421
 H    1.3594052644   -4.3284986467    3.5107980599
 H    0.8270780438   -4.9200065065    0.5170082642
 H    2.3029345106   -5.3865962970    1.3698831517
 H    0.7496914956   -6.1005574808    1.8235485721