16

 O    0.2999079218    1.5265595079    0.7982789719
 C    0.0271865701    0.2015451845    0.3949796570
 C    0.4739486432   -0.1490191568   -1.0580243764
 N    1.4050137569   -1.1185619213   -0.4593421382
 C    1.1282425442   -0.8082765726    0.8392699766
 O    1.5906973423   -1.1243374001    1.9049432780
 C   -1.3866260503   -0.1748844169    0.7770564094
 C   -2.5317184650    0.1021051778   -0.0941811252
 O   -2.0133287584   -1.2258050231    0.0432992137
 H    0.7760500649    1.4793117341    1.6362715265
 H   -0.2894921760   -0.6064697764   -1.6898798832
 H    0.9621914278    0.6896779226   -1.5603349274
 H    2.1107895189   -1.7135663946   -0.8673834244
 H   -1.5524475309   -0.2109098146    1.8544631904
 H   -3.5138221882    0.2665177438    0.3449028046
 H   -2.3706257814    0.5690008757   -1.0646448333