17

 C    0.0019669668    1.3949184886   -0.0185085149
 N    0.0686839760   -0.0407848265    0.0844361145
 C    0.6742369573   -0.6929900708    1.0968215404
 N    1.2449062415   -0.0106571782    2.0589057245
 N    1.8336588316   -0.7472280759    3.0424346475
 C    1.8626107948   -2.0919702225    3.0826885353
 C    1.2798559272   -2.8364698172    2.0997323539
 C    0.6256207441   -2.1777727838    1.0059193748
 N    0.0157829250   -2.6770511533   -0.0206290545
 H    1.0032717885    1.8412023407   -0.0623961872
 H   -0.5415631911    1.6598171686   -0.9273851464
 H   -0.5142892454    1.8355134852    0.8434883370
 H   -0.3397290225   -0.6570441399   -0.6044030721
 H    2.2597595678   -0.1902054015    3.7622275189
 H    2.3728745650   -2.5234880527    3.9363772372
 H    1.3114495484   -3.9180681794    2.1452363518
 H    0.0342035450   -3.6968465114    0.0040013992