25

 C   -0.7643832463    1.4698351829   -0.9420667946
 C   -0.4784120398    0.0548134814   -0.4298050068
 C   -1.7561697987   -0.7705269689   -0.2348283905
 C   -1.5307235251   -2.2462075006    0.1486419540
 C   -0.7482378082   -2.4438020261    1.4678072149
 C   -1.4356608761   -1.9298208482    2.7385614799
 C   -2.8847048514   -2.9957037761    0.1596635391
 C   -2.7208975586   -4.4792221080    0.3832061877
 O   -3.2153911171   -5.1060097804    1.2855937722
 H    0.1594438674    2.0426690000   -1.0688841331
 H   -1.2771703395    1.4452420087   -1.9100666768
 H   -1.4045556997    2.0213246799   -0.2444870297
 H    0.1844370484   -0.4635643068   -1.1357377741
 H    0.0744762396    0.1201929580    0.5146437867
 H   -2.3906480969   -0.2852826361    0.5187270299
 H   -2.3345961599   -0.7449664644   -1.1685255341
 H   -0.9191916437   -2.6968714516   -0.6477983778
 H   -0.5405551376   -3.5142784049    1.5913430071
 H    0.2322579017   -1.9656025972    1.3663537586
 H   -0.7873520398   -2.0803122394    3.6071574501
 H   -1.6613534996   -0.8600059442    2.6816190271
 H   -2.3711312533   -2.4616265067    2.9365196379
 H   -3.5630783207   -2.5990237068    0.9202375837
 H   -3.3638272783   -2.8631213107   -0.8209583900
 H   -2.0751322869   -4.9858263239   -0.3743490216