15

 C   -0.0727522069    1.5703976788   -0.2961954557
 C   -0.0691708497    0.0885796068   -0.1418080740
 N   -1.0886133606   -0.6750435086   -0.1934558100
 C   -0.5884879097   -2.0379995681    0.0506636055
 C    0.9434052992   -1.8911298550    0.1700969907
 O    1.1526696595   -0.4638293282    0.0700741957
 C   -1.2584630426   -2.5928491454    1.3049777851
 O   -0.6715749249   -3.1270621541    2.2095946642
 H    0.5586683725    1.8636116755   -1.1405068937
 H   -1.0909418344    1.9214131701   -0.4584397549
 H    0.3426147904    2.0419499443    0.5997742630
 H   -0.8899199101   -2.6934709992   -0.7789553364
 H    1.3146347452   -2.2434889242    1.1351893140
 H    1.4948557138   -2.3771989109   -0.6379905415
 H   -2.3596241718   -2.4532841515    1.3183019779