21

 O   -0.3421322072    1.4696645528    0.3178083669
 C   -0.0054190401    0.1154099208    0.0157327507
 C    0.7591055768   -0.5443636144    1.1763484572
 C   -0.3552345222   -0.8298482511    2.1916181694
 C   -1.5136169286   -1.3615833955    1.3260438242
 C   -1.6886758622   -2.9044826688    1.3306583330
 O   -2.9032100697   -2.8161933466    2.0970658019
 C   -2.9078775830   -1.3783101179    1.9928574172
 C   -1.3313138205   -0.6681946539   -0.0481666011
 H    0.4787330829    1.9579158389    0.4391159112
 H    0.5484645371    0.0676753339   -0.9320929243
 H    1.2174885563   -1.4798705843    0.8301134755
 H    1.5635803330    0.0891879620    1.5650895517
 H   -0.0673937826   -1.5234029410    2.9865757213
 H   -0.6589777023    0.1113148172    2.6629274547
 H   -1.8639453026   -3.3482201291    0.3398815172
 H   -0.9141194685   -3.4858008245    1.8482662493
 H   -2.9784913628   -0.8943845384    2.9753251182
 H   -3.7280077553   -1.0164782413    1.3570490304
 H   -2.1449277991    0.0271867918   -0.2711427047
 H   -1.3055416995   -1.4074356806   -0.8547423301