21

 C   -0.7447010765    0.9236487192    0.0623220858
 O    0.4357185207    0.1671088641   -0.1509653480
 C    0.9378313395   -0.4613995707    1.0237495909
 C    0.1772788809   -1.7889086506    1.3625513609
 O   -0.4939982892   -2.2746539869    0.2149216883
 C    1.2957592627   -2.7652954304    1.8034774687
 C    2.5493193445   -2.1480449276    1.2390631178
 C    2.3693491713   -0.9004678301    0.8029420959
 C    3.3753611665    0.0330083028    0.2097718417
 H   -0.5852408056    1.6964306407    0.8279434062
 H   -0.9905105283    1.4078086769   -0.8857445884
 H   -1.5853311980    0.2873966527    0.3680855702
 H    0.8715644618    0.2547528612    1.8601906636
 H   -0.5645057560   -1.6434046150    2.1570712224
 H   -0.2712234745   -1.6657685394   -0.5026576727
 H    1.3492429181   -2.8459502541    2.8981351858
 H    1.0885935760   -3.7690719304    1.4181404048
 H    3.5022304970   -2.6677468622    1.2240781756
 H    4.3503751747   -0.4480310197    0.0960824455
 H    3.0423190285    0.3888651890   -0.7708334291
 H    3.5065430260    0.9248492503    0.8368883640