17

 O   -0.0705358166    0.1159054936    0.2718852163
 C    0.0295751744    1.3101888058    0.0795850509
 C    1.2952470819    1.9974742842   -0.1347421974
 C    1.5148095806    3.3086940304   -0.3032850562
 C    1.0697013493    4.6634270523    0.1932718058
 C    2.4885127319    4.7059690930    0.8828044142
 C    2.9655608687    3.6064302845   -0.1485582275
 O    3.5938071216    2.4029820893    0.2239600033
 C    2.6596462877    1.3261711182   -0.0119350971
 H   -0.8680698278    1.9661897487    0.0506194828
 H    0.9921114221    5.4140777994   -0.5980706499
 H    0.1788615553    4.7056689109    0.8204196863
 H    3.0160689752    5.6614690665    0.8661807097
 H    2.4561157958    4.2987856192    1.8940886337
 H    3.4722585553    4.0753649989   -1.0034143818
 H    2.6846702446    0.6346005329    0.8365538746
 H    2.9525703300    0.7650636721   -0.9108431477