15

 C   -0.0932627783    1.4247445778   -0.0006277273
 N   -0.0468948451   -0.0264409461    0.1045700880
 C   -1.0885561910   -0.6934631255   -0.0094090153
 O   -2.4253368558   -0.3003507817   -0.2143801783
 C   -2.8693112625   -1.6585280284   -0.0476432293
 C   -2.3212554278   -2.5131801083   -1.1219454412
 C   -1.4279788321   -2.1536940408    0.0865137767
 C   -0.8338488490   -3.1281842503    0.9346511098
 N   -0.3601543404   -3.9284019447    1.6226183100
 H    0.5267711380    1.7359584676   -0.8476901137
 H   -1.1023014447    1.8316498058   -0.1298741923
 H    0.3540613541    1.8560716310    0.9003315000
 H   -3.7321513730   -1.8382466342    0.5782174784
 H   -2.6428546891   -3.5494985064   -1.1250305879
 H   -2.0917149936   -2.0821425956   -2.0906211776