18

 C    0.0372337989    1.3762389572    0.0606638439
 C    1.4570336685    1.9144588037    0.0052618187
 O    2.0759079649    1.5826095303   -1.2389487600
 C    1.9438707225    0.2364319456   -1.6086933963
 C    2.9284455421   -0.8225330361   -1.1027238079
 N    2.7299588832   -0.9576153545    0.3572611935
 C    1.8035756561   -1.6522612080   -0.5645109572
 C    0.7607954379   -0.6162238153   -0.9909570489
 O    0.0199553140   -0.0458852196    0.0597019906
 H   -0.4535022205    1.6834631137    0.9890758669
 H   -0.5416760726    1.7767957202   -0.7878849201
 H    1.4499904612    3.0081335084    0.0517773161
 H    2.0361038784    1.5146424637    0.8452022055
 H    1.8955179138    0.2102322320   -2.7016490810
 H    3.8525447190   -1.1361478120   -1.5731655676
 H    3.3996611559   -1.6525148454    0.6857790329
 H    1.6907923636   -2.7281900038   -0.5375537378
 H    0.0863199833   -0.9922635702   -1.7718135014