21

 C   -0.1523567709    1.5431010168    0.0719425655
 C   -0.0355934562    0.0496130124   -0.0476995569
 C   -0.0425498154   -0.5959146452   -1.2161745831
 C    0.0894070565   -2.0937952789   -1.3350071091
 C   -0.1418913489   -2.8406858490   -0.0226624578
 C    0.7756829600   -2.8372395307    1.1824806772
 C    1.5162816707   -1.5101658626    1.3488270955
 C    0.1407803325   -0.7491436222    1.2217536620
 C   -0.5720985512   -2.1212170458    1.2196081987
 H    0.7245897865    1.9708042789    0.5761202715
 H   -0.2472994095    2.0231598102   -0.9062036691
 H   -1.0237950364    1.8263756196    0.6769984626
 H   -0.1457898349   -0.0400436803   -2.1457442207
 H   -0.6365458033   -2.4526179921   -2.0772622123
 H    1.0736091000   -2.3533727645   -1.7530605943
 H   -0.6236150328   -3.8068438974   -0.1499865292
 H    1.0600143296   -3.7698714040    1.6563412543
 H    1.9435468712   -1.4035170736    2.3495446256
 H    2.2830183500   -1.2600992558    0.6085034429
 H   -0.0774427221   -0.1475406091    2.1060923032
 H   -1.4771713452   -2.3554278366    1.7666633237