22

 C   -0.6048947012    1.4302700178    0.1858668304
 C   -0.0183651323    0.0362934899   -0.0091380765
 C   -1.0754961182   -0.9030440457   -0.5974136002
 C    1.3260721152   -0.0619217857   -0.7940016030
 C    1.8560037348   -1.0785464659    0.2461906136
 C    0.7379842928   -0.6162774370    1.2398109476
 C    1.2678544972    0.3844405174    2.2793317608
 C    0.0179604979   -1.6836939602    1.9262348337
 N   -0.5556249919   -2.5290182680    2.4694540532
 H    0.1257707496    2.1396678414    0.5824390967
 H   -0.9563604259    1.8229214108   -0.7750202801
 H   -1.4640243520    1.4106427865    0.8659249418
 H   -1.4222038131   -0.5123161548   -1.5601557506
 H   -0.6846195856   -1.9107531034   -0.7661657168
 H   -1.9411860099   -0.9930724444    0.0659688773
 H    1.2542164061   -0.4063059022   -1.8282013753
 H    1.8846738032    0.8778180531   -0.7816785608
 H    1.7273530557   -2.1149693305   -0.0693987559
 H    2.8783245917   -0.9476356782    0.6073573110
 H    1.8646712739    1.1636139779    1.7976899042
 H    0.4532373768    0.8631844353    2.8289780878
 H    1.9075024352   -0.1311871942    3.0015594610