19

 C    0.6378953556    1.2488039711    0.1875054197
 C   -0.3812609644    0.1505134377   -0.0571264266
 O   -1.3444971670    0.0000690231    0.6593307161
 C   -0.1486261866   -0.7183229507   -1.2808262439
 C    1.2422960507   -1.3538117556   -1.5383670774
 O    0.6547930932   -2.6591020695   -1.6897086412
 C   -0.6375376928   -2.1656138162   -1.3120890875
 C   -1.5175821614   -2.9260687575   -0.3771120085
 C   -1.8897981117   -2.7676059911   -1.8470032360
 H    1.5930855294    0.8105155098    0.4989588637
 H    0.8320671701    1.8135340916   -0.7310628227
 H    0.2790752148    1.9174712238    0.9706940723
 H   -0.4940196995   -0.1417937483   -2.1482705201
 H    1.7689310011   -1.0298293307   -2.4420549943
 H    1.9328902345   -1.3162139709   -0.6856721371
 H   -1.1539700127   -3.8983074922   -0.0617484200
 H   -2.0766854873   -2.3686751843    0.3629139050
 H   -2.7129878581   -2.1084210725   -2.1039999574
 H   -1.7785286879   -3.6335498776   -2.4908940339