20

 C   -0.0774299157    1.5856231718   -0.1005544108
 C    0.0275189507    0.0562262486   -0.0243308469
 C    0.7258529833   -0.4988411225   -1.2680609116
 O   -0.0447129164   -0.1527682060   -2.4100974007
 C    0.7500436221   -0.4382127612    1.2390231822
 C    0.0104118685   -0.1054979420    2.5518498674
 C    0.6763974575   -0.6562455658    3.7260227618
 C    1.2459636414   -1.1220850224    4.6766943509
 H    0.9151313034    2.0472460591   -0.0248998473
 H   -0.5170098961    1.8844877436   -1.0544755444
 H   -0.6983837089    1.9952524201    0.7012705073
 H   -0.9896312270   -0.3614357262   -0.0275352116
 H    1.7446158224   -0.0808194466   -1.3343244662
 H    0.8246896575   -1.5924082552   -1.1777622152
 H    0.4340881691   -0.4350951710   -3.1943063203
 H    0.8787532548   -1.5257387815    1.1866174166
 H    1.7591310429   -0.0092788260    1.2837496316
 H   -0.0815518360    0.9808141878    2.6673178958
 H   -1.0156664311   -0.4935010850    2.4988089607
 H    1.7390685175   -1.5282142995    5.5245385806