21

 O   -0.0293617209    1.4655436326   -0.0050791260
 C    0.0347954129    0.0445800757   -0.0166538355
 C    0.6912107696   -0.5521403228    1.2737336095
 C    0.0520244248   -1.9518711126    1.4935691207
 C   -1.3244586963   -1.8102702273    0.8699050832
 C   -2.1586694389   -0.6068008582    1.2033893422
 C   -1.3302744255   -0.5924395934   -0.0525550113
 C   -2.0086042614   -1.4127834880   -1.1654048043
 C   -2.0066185579   -2.6642046106   -0.2168354790
 H    0.8722330564    1.8032340004    0.0026665599
 H    0.5963811932   -0.2967465194   -0.9022862858
 H    1.7822781044   -0.5981624015    1.1979770095
 H    0.4598505321    0.1206269776    2.1062744182
 H    0.6175378043   -2.7182838962    0.9498522790
 H    0.0558451361   -2.2430314136    2.5502740099
 H   -3.2397111542   -0.6683964398    1.1142045288
 H   -1.8206684199    0.0246334991    2.0164307179
 H   -2.9825880712   -1.0495928915   -1.5086376659
 H   -1.3673468642   -1.5528183190   -2.0394255620
 H   -1.3660635546   -3.4678087216   -0.5892455108
 H   -2.9797554989   -3.0931339700    0.0434789120