19

 C    0.2238171468    1.5293304865    0.1692228460
 C   -0.0941572672    0.0277400431    0.0519330531
 C   -1.5997299052   -0.1764413333    0.0147642000
 O   -2.2302693939   -0.7985724203    0.8281791731
 C    0.5307824316   -0.5544668796   -1.2100755676
 C    1.9020662802   -1.1424629540   -1.1958644079
 C    0.7066521112   -2.0564712139   -1.4430031833
 C    0.3531768720   -3.0631227860   -0.4123369418
 O   -0.0901657770   -4.1551797810   -0.6669525309
 H    1.3053785674    1.6910361254    0.1549336345
 H   -0.2092275151    2.0901824238   -0.6668284088
 H   -0.1751892010    1.9452592251    1.0987105592
 H    0.2739710568   -0.4953915753    0.9391304213
 H   -2.1024511801    0.3108538133   -0.8551918053
 H    0.2560738312   -0.0156873800   -2.1143741235
 H    2.5725057762   -0.9640545199   -2.0284228988
 H    2.3958741502   -1.2379956303   -0.2331687491
 H    0.5478458793   -2.4104423539   -2.4558363380
 H    0.5476929166   -2.7549606697    0.6395058378