17

 C   -0.1800297262    1.4851738953    0.0586898744
 C   -0.0532375211   -0.0076116834    0.0125590454
 C   -0.0013556733   -0.7963514476   -1.1132099603
 N    0.1092642394   -2.1076023340   -0.7204774399
 C    0.1290323046   -2.1783717875    0.6454938006
 C    0.0316906206   -0.8953144058    1.1334958586
 C    0.0270578222   -0.5078077573    2.5886175973
 C   -1.2506344271    0.0637879666    3.0329929459
 N   -2.2557178441    0.5222312590    3.3727579365
 H    0.6719812363    1.9524926869    0.5683195582
 H   -0.2271813748    1.9055700318   -0.9497129466
 H   -1.0830877252    1.7993642890    0.5941196785
 H   -0.0363985842   -0.5277904445   -2.1571829365
 H    0.1676040913   -2.8952650723   -1.3409598291
 H    0.2090785942   -3.1231590712    1.1595474254
 H    0.2437690403   -1.3805651805    3.2139472227
 H    0.8109893870    0.2293273754    2.8061580688