17

 N    0.2515164176   -1.1933891195   -0.1311324940
 C    0.1384289367   -0.0453263631   -0.0874950706
 C    0.0091119010    1.4178225050   -0.0228003640
 C    1.3941936163    2.1316279446    0.0590243941
 C    2.1460123482    1.8073429521    1.3281699501
 C    3.0348447732    0.5894361975    1.4156458938
 C    3.6463190803    1.9646637301    1.3670209842
 C   -0.7692350300    1.9126621337   -1.1668993755
 N   -1.3618792443    2.3423438534   -2.0595805300
 H   -0.5563178016    1.6571936430    0.8875549456
 H    1.9814028055    1.8523217620   -0.8211949972
 H    1.1997235936    3.2070929288   -0.0119279999
 H    1.6182187464    2.0809567855    2.2389890400
 H    3.0593543014    0.0431281950    2.3512908118
 H    3.1206526011   -0.0387963717    0.5362128302
 H    4.1466658336    2.2662165018    0.4526102617
 H    4.0915033409    2.3683849418    2.2690693697