18

 C    0.0396049661   -1.1414239088   -0.0180526395
 C    0.0111739013    0.0604399884   -0.0337247116
 C   -0.0775260227    1.4918225352   -0.0431684754
 C   -1.2907709007    2.1639040449    0.6149333282
 C   -1.4638459422    3.4884876983   -0.1716011246
 C   -0.0790331316    3.7097156306   -0.7898590830
 C    1.0097385386    3.6381107507    0.3096914065
 N    1.2690627297    2.1817396520    0.0353946531
 C    0.4166989963    2.2994723449   -1.1914575786
 H    0.0814421088   -2.2021641918   -0.0035796860
 H   -2.1643281181    1.5130961691    0.5370107548
 H   -1.1114822220    2.3309862670    1.6819564648
 H   -2.2183558590    3.3741893810   -0.9576009814
 H   -1.7703432020    4.3222740060    0.4684227918
 H   -0.0121602525    4.5209384357   -1.5142399102
 H    1.9206622866    4.1867509336    0.0598296025
 H    0.7181225118    3.8784405141    1.3382735221
 H    0.7122230315    1.9112550192   -2.1590064734