21

 C    0.2553376802    1.4530565968    0.0133014582
 C    0.0241458933   -0.0273052426   -0.0003453666
 C   -0.1570073686   -0.7971639817   -1.0773564057
 C   -0.3565369709   -2.2584808126   -0.7538931229
 C   -0.1043729642   -2.3060890833    0.7583170147
 O    1.2828761489   -2.5521466160    1.0882428582
 C    1.4076848326   -1.2822655610    1.7560199391
 C   -0.0034788736   -0.8428459826    1.2801218487
 C   -0.9711505384   -0.3433735176    2.3443575776
 H    1.2010297117    1.7056342786    0.5103191627
 H    0.2895450885    1.8603923145   -1.0006044407
 H   -0.5347176488    1.9806390167    0.5617206604
 H   -0.1629701356   -0.4225720026   -2.0965083567
 H   -1.3632943078   -2.6083113634   -1.0206387325
 H    0.3558090361   -2.9136636080   -1.2697547851
 H   -0.7666071681   -2.9904559260    1.3017662285
 H    1.4994148251   -1.4005062392    2.8452531176
 H    2.2613062604   -0.7021381106    1.3846884594
 H   -0.6762907389    0.6430515218    2.7194472168
 H   -1.9872389044   -0.2554153060    1.9446148290
 H   -1.0011929175   -1.0259949750    3.1998114695