18

 O   -0.1155685589    1.3323614280    0.0268376564
 N    0.0268164871   -0.0686120762    0.0297066397
 C   -1.1056965417   -0.6403746213    0.0109639884
 C   -2.5091105520   -0.0543146922    0.0106596562
 C   -3.3646127676   -1.3464260960   -0.0249850620
 C   -3.1314844505   -2.0181464193   -1.3890412487
 O   -1.7708592099   -2.4915591867   -1.3205533283
 C   -1.2847755045   -2.1432880142   -0.0087878119
 C   -2.5357783050   -2.2991615496    0.8712722081
 H    0.8006725719    1.6296858119    0.0428477187
 H   -2.6798347204    0.5324568602    0.9202025021
 H   -2.6783070347    0.6117216782   -0.8409281130
 H   -4.4145858148   -1.2106181713    0.2341860607
 H   -3.8038929784   -2.8694197082   -1.5563019609
 H   -3.2363801159   -1.3212497871   -2.2293351920
 H   -0.3971419318   -2.7334724606    0.2078663381
 H   -2.4006209249   -1.9311201978    1.8915589058
 H   -2.9079170479   -3.3262436977    0.8894079224