18

 C    0.0176466322    1.4873232555    0.1766699061
 C   -0.0548650315   -0.0169230593   -0.0987814353
 C   -1.4608962509   -0.5653305116    0.0875279935
 O   -1.4318733242   -1.9636605414   -0.1993400361
 C   -2.6873457287   -2.5917600275   -0.1015630090
 C   -2.6062421577   -3.9370647687   -0.6678442196
 C   -2.5660119534   -5.0365929874   -1.1446812895
 C   -3.1613644688   -2.6498587364    1.3089446513
 N   -3.5237481322   -2.6540976381    2.4055586428
 H    1.0367170169    1.8587662515    0.0389441711
 H   -0.6351822493    2.0502100779   -0.4994236422
 H   -0.2854994349    1.7208866399    1.2029357733
 H    0.2728172922   -0.2346962038   -1.1214139053
 H    0.6209891486   -0.5600546603    0.5708520051
 H   -1.8108557925   -0.3976186216    1.1169072823
 H   -2.1702233553   -0.0639218668   -0.5916939510
 H   -3.4469827063   -2.0167548445   -0.6605064686
 H   -2.5220729042   -6.0128542073   -1.5619629990