21

 C   -0.0959449392    1.5735741307   -0.0395208548
 C    0.0078409016    0.0692598875    0.0347328455
 O   -1.1569342237   -0.6203201687   -0.3529615264
 C    1.3269026892   -0.6319095152   -0.2453872143
 O    2.5003496932    0.1090326632   -0.4303660002
 C    0.7463865545   -0.6284789966    1.1535202292
 C    1.4142519920    0.1002720984    2.2757433809
 C    0.7124054489    0.2462966221    3.6054867104
 C    1.9051051313   -0.6685958193    3.4785364212
 H    0.8525347160    2.0529335884    0.2098440316
 H   -0.3718807804    1.8887794085   -1.0547872811
 H   -0.8664589134    1.9419331856    0.6443892708
 H   -1.3095341293   -0.4412293280   -1.2882450423
 H    1.2711909894   -1.5677804206   -0.8025306998
 H    2.4858472322    0.4791093070   -1.3191575367
 H    0.2807858887   -1.5677952484    1.4409121576
 H    2.0396816561    0.9297230237    1.9672769334
 H    0.8292049184    1.1765601825    4.1508586987
 H   -0.2662258997   -0.2100213764    3.7120819719
 H    1.7276775444   -1.7389396667    3.5017437055
 H    2.8411957900   -0.3652677080    3.9341238188