18

 C    0.0167008948    1.4952955593   -0.0214059718
 C   -0.0058387889   -0.0007135868   -0.0910945646
 C    0.5736314960   -0.9348172079   -1.1616805924
 C    0.0565100794   -1.8495523440   -0.0543942216
 N    0.5740508823   -0.8969261284    1.0500153368
 C   -0.7948583374   -0.9409730984    1.7117256625
 C   -1.2113169506   -0.9744405899    0.2400552492
 C   -2.5084959799   -1.0276377585   -0.3708420933
 C   -3.5970573118   -1.0624185610   -0.8837845300
 H    1.0475922555    1.8613272501   -0.0624409647
 H   -0.5353630191    1.9240543198   -0.8641210381
 H   -0.4387724494    1.8613441986    0.9042406418
 H    0.0504950205   -0.9714613182   -2.1199654551
 H    1.6594266503   -0.9003180194   -1.2859249682
 H    0.1366502630   -2.9307147625    0.0676514819
 H   -0.9635368896   -1.8461342204    2.3033318515
 H   -1.0382180791   -0.0492253121    2.2969719029
 H   -4.5577227759   -1.0964699703   -1.3352690070