20

 C   -0.2214153645    1.1820791427    0.8429006561
 O   -0.1880648941    0.1311230320   -0.1039804933
 C   -1.3344694860   -0.6513197229   -0.1076154354
 C   -1.3389563627   -1.8084795943   -1.0497678816
 C   -1.3076172630   -2.0744144927    0.4438171971
 N   -0.1271974547   -2.6137440824    1.0417564633
 C    0.2320295739   -2.1739480115    2.3816742467
 C    0.5224106386   -3.6907986971    0.5008971781
 O    1.4574131655   -4.2738662165    1.0084433519
 H    0.7234658767    1.7216777216    0.7509972838
 H   -1.0495826690    1.8770159549    0.6395568366
 H   -0.3242028822    0.8125573963    1.8724261956
 H   -2.2629984259   -0.0977737667    0.0338181606
 H   -2.2376303540   -2.0484017609   -1.6053385795
 H   -0.4114386074   -1.9596686052   -1.5893494883
 H   -2.2412286618   -2.4128562267    0.8958184186
 H   -0.6339893843   -2.2331896158    3.0519654865
 H    1.0196571484   -2.8334543210    2.7465009984
 H    0.5988590177   -1.1439719971    2.3706577292
 H    0.0955895686   -3.9767438566   -0.4766526444