19

 C    0.5733777954    1.3267128626    0.4058289672
 O    1.4199357341    0.1813538561    0.2275240960
 C    0.0057236582    0.0005524993    0.1504817472
 C   -0.6604495874   -0.8289709218    1.2327016804
 C   -0.1969974753   -2.3172251946    1.2328668475
 C    0.4690850214   -2.5095005589    2.5866046102
 C    1.6631986417   -1.6276870058    2.9160635620
 C    0.2749119290   -1.2287803986    3.3343604637
 O   -0.4044751470   -0.2924625232    2.5325634073
 H    0.5398919124    1.7161898050    1.4191592383
 H    0.6172461201    2.0615635937   -0.3962762985
 H   -0.3584246016   -0.2239940524   -0.8545215624
 H   -1.7437092120   -0.7623796194    1.0544159944
 H   -1.0564626220   -2.9867701899    1.1375762302
 H    0.4770185085   -2.5206734926    0.3953409651
 H    0.3745736032   -3.4720603053    3.0749669616
 H    2.3398051578   -1.9823518128    3.6867520031
 H    2.1186516086   -1.0591392234    2.1130427524
 H   -0.0175084051   -1.1669786379    4.3764083741