18

 C   -0.1105315771    1.7258818641    0.1841126599
 C   -0.0962206602    0.2168095278    0.0947109249
 C   -1.3838727690   -0.4191187173   -0.4355747522
 C   -1.6492667864   -0.0917604179   -1.8336598045
 C   -1.8493561718    0.1808425362   -2.9868537858
 N    1.1826805833   -0.3764599189   -0.3016533687
 C    0.6870056977   -0.6012588189    1.0822862855
 C    1.4315148531   -0.0243709068    2.1670203394
 C    2.0290040337    0.4447451080    3.0990512134
 H    0.8477556277    2.0943419799    0.5521147824
 H   -0.2970351206    2.1583935655   -0.8034774573
 H   -0.9000391412    2.0666864365    0.8627606809
 H   -1.3274804395   -1.5095635766   -0.3223083739
 H   -2.2289092678   -0.0910769006    0.1840102234
 H   -2.0326168252    0.4197122726   -4.0052224776
 H    1.0361840946   -1.2180545735   -0.8553999898
 H    0.2771135507   -1.5857320534    1.3020634223
 H    2.5657161481    0.8618657331    3.9148622577