21

 C   -0.0714326288    1.5567448391   -0.1163834617
 C   -0.0136261068    0.0275282435   -0.0507813944
 C    0.9366051198   -0.5520429183   -1.1495683337
 C    2.2734937020   -0.6593226774   -0.4380415271
 C    2.1048963270   -0.6401750031    0.8803319329
 C    2.9714097015   -0.4229718108    2.0920458139
 C    1.9993096274    0.3253389543    2.9962263996
 C    0.7433906118    0.3007642223    2.5389131217
 C    0.6400195796   -0.5024656990    1.2593966471
 H    0.9271792043    1.9916343571   -0.0044637907
 H   -0.4793996322    1.8880715373   -1.0771443489
 H   -0.7046340908    1.9682348954    0.6760636195
 H   -1.0276826618   -0.3686097409   -0.1690377075
 H    0.5848528403   -1.5315937798   -1.5048692955
 H    0.9834535667    0.0964089676   -2.0328869629
 H    3.2217715413   -0.6971843632   -0.9630231939
 H    3.2930102750   -1.3633630039    2.5662189214
 H    3.8858838496    0.1403964888    1.8727810917
 H    2.3170441731    0.7874794363    3.9248000801
 H   -0.1089296653    0.7349182196    3.0500103179
 H    0.1955694462   -1.4857283451    1.4921754704