17

 O    0.0645847736    1.4267998568    0.0465628592
 C    0.0185510041    0.0151912771   -0.0356603579
 C    0.7690346489   -0.6657596660    1.1122718804
 O    0.1969148958   -0.3476167357    2.3965302333
 C   -0.1267841878   -1.6084355946    1.7878108868
 C   -1.4724890810   -1.6373687648    1.0701689750
 O   -2.0334022698   -2.8887317608    0.8321599340
 C   -2.3053191183   -0.3885466988    1.1774727843
 C   -1.3906468095   -0.6040772015   -0.0189538023
 H   -0.2214746438    1.6598267976    0.9377555498
 H    0.5057413673   -0.2385566367   -0.9833178890
 H    1.8531449841   -0.7433561442    1.0965796959
 H    0.2085462697   -2.4961241493    2.3176117650
 H   -2.5460174209   -3.1414379761    1.6080367931
 H   -3.3643573420   -0.5012823790    0.9703411463
 H   -2.0549151661    0.3418106815    1.9368862851
 H   -1.8770422444   -0.7827562555   -0.9703169188