18

 C    0.0703652288    1.2591309567   -0.0297821465
 O   -0.0872561614   -0.1326313227    0.2470940510
 C   -1.3370720322   -0.6143618921    0.0126142962
 O   -2.2629276212    0.0491692506   -0.4001517160
 N   -1.3853263326   -1.9367972412    0.3178391387
 C   -2.5871779306   -2.6924176399    0.2070239022
 C   -2.7236989965   -3.7455077917   -0.8804830265
 C   -2.4923565138   -4.1468400228    0.5578373860
 O   -1.2211928979   -4.5784823133    0.9573173016
 H    1.1098725242    1.4914079190    0.2049909141
 H   -0.1383279630    1.4755242650   -1.0809881330
 H   -0.6012078092    1.8601145315    0.5892658296
 H   -0.5703231210   -2.3959119982    0.6923084197
 H   -3.4751343685   -2.1412087507    0.4937901149
 H   -3.6991286513   -3.9196024087   -1.3211153418
 H   -1.8807536803   -3.8462429290   -1.5556903846
 H   -3.3171448704   -4.5937727903    1.1106506814
 H   -1.0334085132   -5.4159862720    0.5219186831