22

 C   -0.3075524058    1.3918044518   -0.8288098146
 C   -0.0667866145   -0.0556168199   -0.4504888684
 O    1.0325039822   -0.5558440019   -0.5252990818
 C   -1.2655615941   -0.8821379554    0.0862072607
 C   -1.0557418979   -2.3614685433   -0.2784766658
 C   -1.2478843836   -0.7202497202    1.6218969177
 N   -2.5068187263   -0.2475962467   -0.3882263788
 C   -3.1592263652   -0.6516653719   -1.6257562531
 C   -3.7826002062   -0.9389522995   -0.3015283499
 H    0.6541175656    1.8826152931   -0.9849465113
 H   -0.8963593402    1.4394958084   -1.7509381365
 H   -0.8945829201    1.9116604682   -0.0677930478
 H   -0.0780636864   -2.6790576725    0.0854697247
 H   -1.8200451599   -2.9971082425    0.1773113419
 H   -1.0601438324   -2.5241553846   -1.3595925655
 H   -1.3834665088    0.3265883556    1.9065350776
 H   -2.0648925544   -1.2985629563    2.0648789346
 H   -0.3026280067   -1.0819722346    2.0338513985
 H   -3.5273039037    0.1621789206   -2.2454313209
 H   -2.7737945739   -1.5026402533   -2.1815399688
 H   -3.8010047547   -1.9798356143    0.0137846174
 H   -4.6162854532   -0.3432702108    0.0611231999