21

 C    0.2647068956   -1.1902358998   -0.0729532663
 C    0.1669924541    0.0088792141   -0.0303825299
 C    0.0351086686    1.4423408508    0.0087728104
 C    0.4042900634    2.1361844858    1.3154159235
 C    1.3206349927    2.2527609972    0.1339486120
 C   -1.0990491310    2.0281165054   -0.8130850286
 C   -1.2255062469    1.6697307411   -2.3217872571
 C   -2.7677607292    1.6494122453   -2.1447237912
 C   -2.5494738280    1.5012777545   -0.6147834484
 H    0.3576164543   -2.2473256933   -0.1050635235
 H   -0.1913924776    2.9982866649    1.5959201317
 H    0.7126963542    1.5098582612    2.1437748887
 H    2.2557214223    1.7061559499    0.1543161044
 H    1.3578989557    3.1953856087   -0.4015994461
 H   -1.0798025970    3.1170665229   -0.6906955484
 H   -0.7956975425    2.3646188807   -3.0474925722
 H   -0.8322070380    0.6677982884   -2.5155438488
 H   -3.2199234429    2.6122818007   -2.4004076092
 H   -3.3243293548    0.8597055917   -2.6543340122
 H   -2.5411807790    0.4503570397   -0.3121445449
 H   -3.2052556140    2.0580363801    0.0591767662