20

 C    0.0612728966    1.5217780674   -0.6508220572
 C    0.2031796008    0.0686459448   -0.2515502070
 C    1.4492314005   -0.7714277918   -0.4093040496
 C    2.7023741808   -0.0002077863    0.0227989512
 N    2.1196624416    0.1736194185    1.3792332292
 C    2.1360069323    1.4477538821    2.0629546387
 C    3.4361819879    1.6289311137    2.8349029872
 O    3.9818144779    2.6856930001    3.0154930003
 C    0.8813335232   -0.4853119464    0.9797620724
 H    0.9878211547    2.0852274586   -0.5237556689
 H   -0.2241417778    1.6005191848   -1.7057160412
 H   -0.7133947059    2.0206759488   -0.0585939208
 H   -0.6836781018   -0.5225310905   -0.4806806844
 H    1.4646989854   -1.7073329124   -0.9512483746
 H    3.6149121648   -0.6050845547    0.0401537420
 H    2.9119695347    0.9325431816   -0.5187120381
 H    1.9824397523    2.3357397295    1.4310908783
 H    1.3295652967    1.4411660730    2.8110430053
 H    3.8453412688    0.6725401364    3.2333392187
 H    0.3743619965   -1.1467559571    1.6761808686