20

 C    0.0391660801    1.5667794066    0.0070786842
 C    0.0048600445    0.0377821657   -0.0444125075
 C   -1.4073170086   -0.5645830178    0.0714912303
 C   -1.4161990300   -2.0866929544   -0.1171246516
 N   -2.0975143265   -0.1637345558    1.3204216096
 C   -3.2693976608    0.6023087594    1.2227307113
 O   -3.9467212738    0.9982672701    2.1284743219
 C   -1.5677825280   -0.5762661055    2.5494927364
 O   -2.0152920026   -0.3397430331    3.6377767306
 H    1.0614680312    1.9350570535   -0.1157196847
 H   -0.5693920807    2.0045596048   -0.7921299363
 H   -0.3386815904    1.9476188405    0.9604260981
 H    0.4257421417   -0.3097060676   -0.9954555929
 H    0.6509100858   -0.3796272633    0.7377391525
 H   -2.0118513653   -0.1279274776   -0.7319090934
 H   -0.7926647054   -2.5939557856    0.6256308517
 H   -2.4319477704   -2.4832585683   -0.0356263348
 H   -1.0252772664   -2.3425768708   -1.1063094993
 H   -3.5049712207    0.8070422401    0.1583436958
 H   -0.6473126635   -1.1712418611    2.4014401981