16

 N   -0.5930552251    0.7696361065   -1.0313046110
 C   -0.2933697519   -0.2041553304   -0.2973846838
 O    0.7819186377   -0.4152932481    0.5319974625
 C    0.2333474376   -1.6976814245    0.9832161352
 C   -0.9724611897   -1.5201317599    0.0265555058
 C   -2.3687915359   -1.4546108965    0.6031380921
 C   -2.8482948217   -0.2612479820    1.3454314375
 N   -3.3717009090   -0.5654635593    0.0029375674
 H    0.1038688709    1.5144515160   -0.9824367341
 H    0.9234713311   -2.5148259725    0.7637730549
 H   -0.0012403418   -1.6618099603    2.0493539607
 H   -0.9466269145   -2.2116811198   -0.8212580260
 H   -2.7673597898   -2.4267793615    0.8891108570
 H   -3.5589536761   -0.3824139658    2.1580796182
 H   -2.1741512467    0.5843572948    1.4519701145
 H   -2.9111940450    0.0474562532   -0.6705071507