9

 O   -0.0015537614   -0.0533981660    0.0034221796
 C    0.0220539477    1.1331156185    0.0087683398
 O   -1.1872137159    1.8331497411    0.0292604154
 N   -1.2432003213    3.2423124795    0.0368109911
 N   -0.1859915344    3.8832457871    0.0249249269
 C    1.0404305014    3.1802298087    0.0042158906
 N    1.1885777637    1.9092689523   -0.0039741343
 C    2.1952865449    4.0403899463   -0.0079819582
 N    3.1162123851    4.7380242526   -0.0176611008