17

 O   -0.0302487720   -0.0270328925   -0.0820400406
 C   -0.0323586617    1.1718206671    0.0206208621
 C   -1.2836007707    2.0578292140    0.1509270976
 C   -0.7563279808    3.4459997658    0.4715992254
 O   -0.3367387536    3.5650832494    1.8598800738
 C    1.0567889863    3.6805046484    1.4975793952
 C    1.7725421561    2.3147055201    1.4822288968
 C    1.2124187365    2.0613404128    0.0318094849
 C    0.7168471582    3.5352791906   -0.0061395051
 H   -1.8124413678    2.0457697834   -0.8113176736
 H   -1.9687984631    1.6703761578    0.9088001041
 H   -1.4318428034    4.2613978401    0.1967847604
 H    1.5396388361    4.5346882537    1.9771807854
 H    2.8606941928    2.4211870952    1.4661474246
 H    1.4889624751    1.6066397405    2.2641755114
 H    1.9487186122    1.7171285303   -0.6935646073
 H    1.0135490298    4.2099328434   -0.8052903451