22

 C    0.0510384847    1.5283937478   -0.0548353629
 C   -0.0117500205    0.0002990690    0.0053048849
 C   -1.4910512821   -0.4551595356    0.1098189949
 N    0.6902454846   -0.5298771406   -1.1799648761
 C    0.8895541321   -1.9749585917   -1.2330661718
 C    1.7906624289   -2.3920321863   -0.0723622279
 C    1.1588509269   -1.9657138596    1.2620439440
 C    0.7274446932   -0.5050075817    1.2657751653
 O    0.9086799337    0.2099842637    2.2232957706
 H    1.0868556570    1.8624841371   -0.1461143044
 H   -0.5090187772    1.8939412624   -0.9229990077
 H   -0.3766278835    1.9684313143    0.8473680901
 H   -2.0503122613   -0.0823747974   -0.7556000595
 H   -1.5931195948   -1.5433975625    0.1320495255
 H   -1.9601735747   -0.0543972584    1.0137304207
 H    0.2182303332   -0.2030331492   -2.0167696443
 H   -0.0482827075   -2.5603788133   -1.1955846031
 H    1.3690336667   -2.2107092762   -2.1888618566
 H    1.9558211955   -3.4744452968   -0.0825621970
 H    2.7652090535   -1.9058052245   -0.1903488984
 H    0.2557852022   -2.5681201981    1.4387187765
 H    1.8229831797   -2.1232919125    2.1152805475