24

 C   -0.2349754348    1.5133450175    0.0126551329
 C   -0.0347099750    0.0093123289    0.0025380687
 O   -1.3334573658   -0.6001551451    0.0115559515
 C   -1.3774255208   -1.9499192275    0.0043953903
 N   -0.3022267266   -2.6264627448   -0.0093817349
 C   -2.8333463113   -2.4316852964    0.0160131517
 C   -2.9006822797   -3.9660112898    0.0087040584
 C   -3.5243119177   -1.8918061886    1.2876049961
 C   -3.5488149059   -1.8787091533   -1.2362542952
 H    0.7359748962    2.0177661838    0.0062297528
 H   -0.7977956764    1.8396594392   -0.8668188295
 H   -0.7810254666    1.8299646796    0.9061341208
 H    0.5123631408   -0.3270517298   -0.8844638427
 H    0.5290992753   -0.3366437918    0.8752591815
 H   -0.4981623407   -3.6233237751   -0.0127266330
 H   -2.4145454009   -4.3973981554    0.8899671626
 H   -3.9458052332   -4.2903649377    0.0172068152
 H   -2.4318576056   -4.3881790044   -0.8862964197
 H   -3.4878329819   -0.8012136036    1.3194719657
 H   -4.5734785661   -2.2049177710    1.3074541665
 H   -3.0401815697   -2.2757629261    2.1916831042
 H   -3.0823043771   -2.2531424436   -2.1534943488
 H   -4.5981729551   -2.1917974217   -1.2390212900
 H   -3.5129435914   -0.7878405735   -1.2574620153