21

 C   -0.2229588230    1.4799886912   -0.0696732568
 C    0.0898546241    0.0012825509    0.0606654055
 O    0.9156873579   -0.3962853966   -1.0379528846
 C    1.3896629838   -1.6994186525   -0.7447774308
 C    1.4560957185   -1.7857402661    0.7850245879
 C    1.4326983326   -3.0560072261    1.5152464615
 O    2.6446693446   -2.3032033305    1.3813522548
 C    0.8744277478   -0.4653041991    1.3100120722
 C    1.9865644762    0.4931425055    1.7501444220
 H    0.6908222481    2.0785824791   -0.0736498774
 H   -0.7566466844    1.6663788004   -1.0056321942
 H   -0.8565896536    1.8117658124    0.7586953520
 H   -0.8564363105   -0.5684578518    0.0195563072
 H    0.7073806497   -2.4624980238   -1.1525168371
 H    2.3760220913   -1.8335931865   -1.1975322311
 H    1.0160924417   -3.0975345463    2.5214564197
 H    1.4074357721   -3.9985631405    0.9677041715
 H    0.1921191481   -0.6459897541    2.1468558249
 H    2.6222587987    0.7706080169    0.9037853467
 H    1.5724908694    1.4074991547    2.1841280650
 H    2.6200684768    0.0096541728    2.4972396712