17

 O   -0.0063660654   -0.0157539668   -0.0287320516
 C   -0.0425106170    1.1831513743   -0.0102741066
 C   -1.2404040856    2.1247306095    0.0411282144
 C   -1.2449836764    2.7463030701    1.4682195150
 C   -0.0145888369    3.7083811726    1.4564205172
 C    0.5706062084    3.5405728176    0.0238396458
 C   -0.7113584003    3.3038393639   -0.8136209237
 C    1.1947154237    2.1504062812   -0.0219098294
 O    2.3491814647    1.8258113102   -0.0513960552
 H   -2.1752818783    1.6539779297   -0.2595040382
 H   -2.1776709524    3.2944640542    1.6247834277
 H   -1.1800705241    1.9847400288    2.2492038073
 H   -0.3198500456    4.7471821334    1.6067898816
 H    0.7180311731    3.4690740165    2.2310977307
 H    1.2494120400    4.3313316994   -0.2922440211
 H   -0.5069130112    3.0296266866   -1.8532352645
 H   -1.3849368368    4.1655367789   -0.8037402793