16

 C    0.0217097386    1.5032091462    0.1144220649
 C    0.0215772084    0.0187515972   -0.0254829833
 C   -0.0315335231   -0.7796394209   -1.1660565448
 C   -0.0896755083   -0.3747687483   -2.5136605394
 C   -0.1279544621   -0.0600923720   -3.6779013208
 C   -0.0052871760   -2.1208006849   -0.6657262830
 N   -0.1024835317   -3.2738483223   -1.4246279173
 N    0.0664634228   -2.1519646807    0.6563524614
 N    0.0758179285   -0.8344104666    1.0158289989
 H    0.9129475975    1.8616217612    0.6417943498
 H    0.0065545803    1.9607580061   -0.8766238101
 H   -0.8563481226    1.8587660922    0.6655903599
 H   -0.1775817324    0.2234311058   -4.6994590282
 H    0.2705658653   -3.1770721397   -2.3583221995
 H    0.2500719916   -4.0939560451   -0.9514157202
 H    0.1217404134   -0.6042022982    1.9930943916