16

 C    0.0520049876    1.5317367679    0.0954898644
 C    0.0158959504    0.0155114966   -0.0101410425
 O    0.6925836082   -0.5032548338    1.1143168498
 C   -1.4563403246   -0.5340685227   -0.0455374335
 C   -2.1900470636   -0.0635996820   -1.2208586374
 C   -2.7676560008    0.3365671950   -2.1950112709
 C   -1.4335964861   -1.9988121853    0.0222412585
 C   -1.3463812882   -3.1956218141    0.0951509926
 H    1.0899862306    1.8728250540    0.1152185370
 H   -0.4573563806    1.9930955378   -0.7531048042
 H   -0.4312067173    1.8582661710    1.0220481037
 H    0.4986075576   -0.3060021815   -0.9456535250
 H    0.6392631619   -1.4660620003    1.0690523281
 H   -1.9472227319   -0.1544170251    0.8619314970
 H   -3.2886330334    0.6859522069   -3.0520288838
 H   -1.3052909300   -4.2557415245    0.1499859661