16

 C   -0.0480355546    1.5392324975   -0.0165746641
 C    1.4537338994    1.8803415251   -0.0153691408
 O    2.1877695620    1.4363913841    1.1276844274
 C    2.2586345416    0.6392045366   -0.0842380934
 C    1.2582025811   -0.4426748290   -0.1087221033
 C   -0.0318040502    0.0285454150   -0.0307120415
 C   -0.8914865083   -1.0939881396    0.0740908523
 C   -0.0804769761   -2.2136927306    0.0415271539
 N    1.2327677121   -1.8081154847   -0.0602047693
 H   -0.5405861100    1.9605293774    0.8673588461
 H   -0.5352277977    1.9771624911   -0.8968744365
 H    1.7932501403    2.8214225171   -0.4415167893
 H    3.2412482321    0.5795836471   -0.5420886189
 H   -1.9684406159   -1.1073011580    0.1466678211
 H   -0.3313918010   -3.2624269969    0.0578086725
 H    2.0269916853   -2.4233031324   -0.0798767661