19

 C   -0.0381756589    1.5113300766    0.0603486505
 C    0.0256757771    0.0104359291    0.0011315907
 C   -0.0589912359   -0.6870337040   -1.1356152357
 C    0.0155273490   -2.1870376042   -1.1943323350
 O    0.4330666742   -2.7809100909    0.0210402377
 C   -0.2158507664   -2.2158338411    1.1429294977
 C    0.1468170271   -0.7480487119    1.2829389568
 C    1.0252869759   -0.3039985241    2.3803765240
 O   -0.3896672398   -0.1230056176    2.4626727589
 H    0.9062620658    1.9412779762    0.4165640783
 H   -0.2423668929    1.9314414113   -0.9273365462
 H   -0.8157782520    1.8399288177    0.7563837832
 H   -0.1941390696   -0.1758491217   -2.0861990338
 H   -0.9654737830   -2.5948736313   -1.5037957972
 H    0.7408188301   -2.5055811324   -1.9524242386
 H   -1.3114807292   -2.3035914020    1.0542358258
 H    0.1016971611   -2.7864829088    2.0191070501
 H    1.4444626906   -1.0487625938    3.0562904104
 H    1.6070152166    0.6107785429    2.2824459024