16

 O   -0.1489412026   -0.0499597887    0.0629246291
 C   -0.0737867833    1.1502294788    0.1255441086
 C    1.2140034381    1.9439681690    0.1529624927
 C    1.5679686250    2.9913108611    1.1177931888
 C    1.2517966612    2.5663057213    2.5561699729
 O    0.1191478605    1.6669069930    2.6906534905
 C    1.0105611815    0.5080518344    2.7795695177
 C    2.1999608445    1.3835870234    2.3803889874
 N    2.4590741879    1.7443573451    0.9181567663
 H   -0.9725414089    1.7962686390    0.0305258173
 H    1.4755906242    2.2043093668   -0.8769441209
 H    1.9111253232    3.9802619983    0.8298145335
 H    1.3005148304    3.3230414617    3.3405533693
 H    1.0782705572    0.1601676055    3.8176120606
 H    0.7084736896   -0.3067715021    2.1221639816
 H    3.1528561215    1.2680068433    2.8922005745