21

 C   -0.0171561458    1.5554407162   -0.4316225286
 C    0.0513219336    0.0573214355   -0.1749771316
 C    1.2163470133   -0.7194521630   -0.8134259399
 O    2.4320036233   -0.2312983420   -0.2274285749
 C    1.6721071868   -1.2110882838    0.4935923938
 C    0.5509745199   -0.4622855623    1.2268185655
 C    0.9293813800    0.4173429982    2.4418709823
 C    0.3926963476   -0.7051692845    3.3733675399
 C   -0.3612878985   -1.3052140614    2.1545553005
 H    0.9560254978    2.0184304038   -0.2472090462
 H   -0.3040737711    1.7639364833   -1.4682489230
 H   -0.7552523819    2.0375828391    0.2184324592
 H   -0.9032310569   -0.4265000136   -0.4138195772
 H    1.2906477055   -1.1601021159   -1.8016500259
 H    2.1805554926   -2.1286266215    0.7715642594
 H    1.9781565576    0.7099094604    2.5302793945
 H    0.3112908533    1.3190604299    2.4958544693
 H    1.1917437400   -1.3636373714    3.7248460403
 H   -0.2074624885   -0.4027536103    4.2343644324
 H   -1.4012864782   -0.9665650389    2.1084249695
 H   -0.3464549406   -2.3915551876    2.0238625608