18

 C    0.0310288300    1.3825781336   -0.1239273839
 N    0.0225015970   -0.0554096485    0.1058195728
 C    0.6847279011   -0.4066176124    1.3543297322
 C   -1.3023361586   -0.6032030986    0.0286016712
 C   -1.9256523384   -0.7533766308   -1.3918198212
 O   -1.0107867895   -1.8902000879   -1.6576943666
 C   -1.4223428616   -2.1312115251   -0.2532124876
 C   -2.8487602016   -1.8545285570   -0.8020843808
 O   -3.9368377174   -2.3176166931   -0.8814910374
 H    1.0632971255    1.7447531113   -0.1187328685
 H   -0.4001616681    1.6109097384   -1.1024345008
 H   -0.5323848714    1.9495094621    0.6419816518
 H    0.1777058608    0.0062561749    2.2475966008
 H    0.7339681420   -1.4935383204    1.4625497283
 H    1.7092850198   -0.0233337105    1.3419443000
 H   -1.9978318310   -0.2193306600    0.8005659670
 H   -2.0692485968   -0.0206468324   -2.1822628472
 H   -0.9874073218   -2.9823379737    0.2651776100