21

 C   -0.0122309617    1.3846160873   -0.3334813160
 C   -0.0224491123   -0.0410087860    0.2303161592
 C   -1.3911612370   -0.6918534441    0.1258834391
 C   -1.9739597222   -1.3225873065   -1.1121037389
 C   -1.6784311125   -2.1687327894    0.1375493053
 C   -0.6159475617   -2.9629662689   -0.6174427601
 O   -1.0693407534   -4.2970211261   -0.7909992755
 C   -0.9018762557   -2.0886811520   -1.9087116281
 O   -1.3841622242   -2.8543772589   -2.9808449289
 H    0.9743996516    1.8466077250   -0.2295061730
 H   -0.2780862388    1.3890951963   -1.3956511009
 H   -0.7351008503    2.0208677974    0.1892255661
 H    0.7355381161   -0.6398787229   -0.2856576809
 H    0.2786605412   -0.0218600328    1.2856500442
 H   -2.1504164024   -0.1424033088    0.6825123096
 H   -2.9275921213   -1.0203356492   -1.5293743649
 H   -2.3602029136   -2.6246596556    0.8459242320
 H    0.4044332764   -2.9554528712   -0.2118861921
 H   -0.3954762252   -4.7702289461   -1.2915839091
 H   -0.0711680727   -1.4917390737   -2.2982345734
 H   -1.8689496404   -3.5897429438   -2.5785005338