25

 C    0.0315673550    1.5279967152    0.0928939599
 C    0.0183735821    0.0123929471   -0.0547523412
 C    0.7778307750   -0.4771640457   -1.2920010319
 C    0.8518763246   -2.0083296562   -1.3057357563
 C    1.4253219006   -2.5177971410    0.0229274740
 C    0.6855328387   -1.9394800117    1.2489394681
 C   -0.7133102575   -2.5585495290    1.4225116973
 C    1.5067419718   -2.1674041040    2.5197182315
 O    0.5987956775   -0.5096290955    1.1373159414
 H    1.0602748043    1.8930464928    0.1747892452
 H   -0.4394413831    2.0039269612   -0.7727800707
 H   -0.5095419036    1.8283585016    0.9942254698
 H   -1.0294767092   -0.3234724976   -0.1352678926
 H    0.2894914646   -0.1000152389   -2.1980769110
 H    1.7916762741   -0.0557569036   -1.2679717968
 H   -0.1507706882   -2.4228059666   -1.4716990742
 H    1.4699784325   -2.3583690995   -2.1396735742
 H    1.4013690720   -3.6128376205    0.0632604976
 H    2.4788416837   -2.2188758468    0.0913463447
 H   -0.6305535002   -3.6240097638    1.6595023075
 H   -1.2372634057   -2.0628663795    2.2450015888
 H   -1.3310384288   -2.4693250241    0.5254980861
 H    2.4760110193   -1.6681575797    2.4361357985
 H    0.9859481840   -1.7571951065    3.3898905192
 H    1.6756791867   -3.2356910577    2.6870870592