17

 O    0.0187074108    1.3930223814   -0.0025004578
 C    0.0109383862   -0.0226426431   -0.1065004418
 C   -1.3907781843   -0.5641240480   -0.0632290819
 C   -2.5961812422   -0.2951585286   -1.0455189772
 C   -3.2528435221   -1.1836265379    0.0750142849
 C   -1.9323810892   -2.0483330761    0.0350143568
 O   -1.7075106948   -2.9567079147   -0.9986072558
 C   -2.4468601816   -0.2793493452    1.0074723720
 O   -2.5615293929    0.3731871285    2.0029227662
 H   -0.3853266257    1.6199004921    0.8431393140
 H    0.4996621029   -0.2652350680   -1.0559281919
 H    0.6048731476   -0.4941452954    0.6927893349
 H   -2.9412428184    0.7344824590   -1.1390071664
 H   -2.5132081450   -0.7549762677   -2.0329348176
 H   -4.2821410887   -1.5264408261    0.1427727788
 H   -1.6848731449   -2.5811391313    0.9550317315
 H   -1.9604794978   -2.5695872490   -1.8428428590