15

 O   -0.2481066356    1.4809609536    0.2905506239
 C   -0.0012064045    0.1485732967    0.0952700510
 C   -0.9439035280   -0.9720237354   -0.0393092270
 C   -0.4446201157   -1.2900219676   -1.5109237854
 C    0.7994588616   -0.5674136103   -1.0196678834
 C    1.8613934390   -1.2451848300   -0.5289869072
 C    1.5864727907   -1.4690234471    0.9404445610
 O    2.2435790230   -2.0894259692    1.7402612769
 C    0.1762790279   -0.9455305325    1.1182880789
 H    0.5475396937    1.8921221034    0.6490050699
 H   -1.9822102482   -1.0298335444    0.2758438989
 H   -0.3206368434   -2.3258797767   -1.8359646067
 H   -1.0978301377   -0.7394160301   -2.1947297245
 H    2.4047124078   -2.0154524906   -1.0681349788
 H   -0.2521179305   -0.8544106400    2.1122642326