15

 C    1.0779146926    0.9125785589   -0.0772245952
 N    0.1230007673    0.1446039407   -0.8760976518
 C   -0.2980232737    0.6442827630    0.4427958447
 C   -0.5544372322   -0.3726267866    1.4925739994
 C   -0.1206996420   -1.7036316061    1.3909155728
 N   -0.3511230557   -2.5688951143    2.3652159051
 C   -1.0198616013   -2.0663967490    3.4118497975
 N   -1.4743339890   -0.8239749729    3.5466824143
 N   -1.2366022902    0.0395965245    2.5621958447
 H    1.9164409401    0.3404700365    0.3104877302
 H    1.3146589636    1.9337661003   -0.3633728780
 H   -0.2783441442    0.7155664301   -1.6140705376
 H   -0.9696989689    1.4961834089    0.4999099686
 H    0.3969340761   -2.0505121472    0.5011954605
 H   -1.2271698225   -2.7373855365    4.2402027148