16

 O    0.5686436315    0.8984727353   -0.7032340346
 C    0.1242517499   -0.1918393255    0.0359640119
 C   -0.0706632382   -0.0910065627    1.5733650398
 C   -1.3092855115   -1.0127092296    1.4422244268
 C   -1.3623615285   -0.6867013681   -0.1007945321
 C   -2.3433711273    0.4102573662   -0.3742424582
 O   -2.1250349057    1.5964371919   -0.2499114980
 C   -3.6900231904   -0.0418417154   -0.7855295874
 N   -4.7375723633   -0.4162104559   -1.1015315307
 H   -0.0518460866    1.6227648838   -0.5461648696
 H    0.7860461093   -1.0271490871   -0.2118257308
 H    0.7495933049   -0.4250946525    2.2111427808
 H   -0.3560694675    0.9243777462    1.8605433555
 H   -1.0788403059   -2.0688464832    1.5923630066
 H   -2.1928544924   -0.7600089881    2.0306929322
 H   -1.5627091182   -1.5352992552   -0.7590380020