14

 C    0.0081483097    1.5043317355   -0.0092918703
 C   -0.0038361613    0.0020520143    0.0094355685
 N    0.1038901298   -0.6316359046   -1.1605469911
 C    0.0917558142   -1.9688011265   -1.1281466245
 C   -0.0274992766   -2.6861691289    0.0669308897
 N   -0.1352101219   -2.0597399269    1.2361278876
 C   -0.1228971236   -0.7288228585    1.2013874426
 C    0.2066012651   -2.6724220143   -2.3774841754
 N    0.2966646256   -3.2746458583   -3.3607855801
 H    0.9377146787    1.8705953842   -0.4554900523
 H   -0.8143504960    1.8824797791   -0.6239654785
 H   -0.0857831863    1.9185893063    0.9969813585
 H   -0.0350082002   -3.7717815711    0.0687965345
 H   -0.2106982072   -0.2137896703    2.1546829608