11

 O   -0.8877692701    1.2013930405    0.1381760672
 C    0.2284157248    0.8375265636   -0.1253140862
 C    1.4153195288    1.7609240772   -0.0330145626
 N    2.5689481684    1.2735254245   -0.3387372905
 C    3.6766859953    2.1255402779   -0.2555023428
 O    4.7965297236    1.8087978987   -0.5068406941
 O    3.4543913680    3.4527525788    0.1558099439
 N    2.2145856692    3.9513306122    0.4772073240
 C    1.2282782613    3.1300353348    0.3849916685
 H    0.4846537123   -0.1862468754   -0.4566666101
 H    0.2473172984    3.5144296273    0.6364160126