15

 N    0.0106556072    1.3792812858    0.1531535570
 C   -0.0107930949    0.0030651083    0.0602478167
 C   -1.1806858290   -0.7070163507    0.0433138169
 O   -2.3937046383   -0.0966326133    0.0552739566
 C   -1.1798023934   -2.1410911110    0.0036326949
 N   -2.3047720509   -2.7743736910   -0.0171190976
 N    0.1094893626   -2.6841430231   -0.0123926485
 C    1.2313067897   -1.9069065855   -0.0067476121
 N    1.2209474963   -0.6188925264    0.0277059946
 H    0.8583188507    1.8019817193   -0.1938739309
 H   -0.8405583744    1.8409868739   -0.1301918474
 H   -3.0318569134   -0.8342178792    0.0239664105
 H   -2.2076387707   -3.7858288507   -0.0513612317
 H    0.2046990678   -3.6885236720   -0.0410643157
 H    2.1750977806   -2.4438191344   -0.0344629334