16

 C   -0.0559237715    1.4733967306   -0.0109554157
 C    0.0138242899   -0.0391286697   -0.0228053250
 O    1.0846342384   -0.6336249577   -0.0185481534
 C   -1.2455931536   -0.7846150342   -0.0295211487
 N   -2.4457124842   -0.1774462382    0.0172880833
 N   -3.3181304201   -1.1732192597    0.0372789392
 C   -2.7484094692   -2.4170844311   -0.0009846034
 C   -1.3815784674   -2.2068554567   -0.0479659110
 N   -0.3500541640   -3.1192263263   -0.1647213079
 H    0.9561012180    1.8787368806    0.0139016671
 H   -0.5850821478    1.8348212806   -0.8982416484
 H   -0.6262490455    1.8225786287    0.8549925771
 H   -4.3010674695   -0.9596624143    0.0755230477
 H   -3.3423289240   -3.3161128075    0.0030610872
 H   -0.4944956560   -4.0077221622    0.2903621768
 H    0.5501026164   -2.6974632529    0.0287676151