19

 C   -0.5617138686    2.0139865619   -0.6752984497
 N   -0.7236446690    0.5946461312   -0.4298613643
 C    0.1700732000   -0.2505727049   -0.7762573413
 N   -0.2149429773   -1.5741590943   -0.4310802805
 C    0.3225821167   -2.8235602122   -0.5538541003
 O    1.3828875581   -3.1440534207   -1.0442281498
 C    1.4461724881    0.0898678139   -1.4504914098
 C    2.8099896352   -0.5430595229   -1.2162986095
 C    2.1477635693   -0.6972662315   -2.5475743606
 H   -0.4711568095    2.2523863786   -1.7442395467
 H   -1.4448024045    2.5351499357   -0.2964891158
 H    0.3149054661    2.4359594311   -0.1642527495
 H   -1.1227192411   -1.5366321537    0.0161533213
 H   -0.3730302028   -3.5690196626   -0.1214874676
 H    1.5016496661    1.1596751173   -1.6019468365
 H    3.6370999780    0.1500228170   -1.1090427473
 H    2.8607075160   -1.4312893578   -0.6027623965
 H    1.7755504738   -1.6839946458   -2.7837550364
 H    2.5022755355   -0.1144024903   -3.3905127895