21

 O   -0.0542246800    1.4412055421   -0.0155759956
 C    0.0219097893    0.0227465005   -0.0028729558
 C    0.7719070387   -0.5029893881    1.2262332428
 C    0.7503583227   -2.0368674703    1.2924529227
 C   -0.6936324160   -2.5827918526    1.2634293494
 C   -1.4531376682   -2.0362587521    0.0349350773
 C   -1.4113693465   -0.5034446938   -0.0240733673
 C   -0.6710864626   -4.0947343283    1.2259201718
 O   -1.1432382393   -4.8224309356    2.0604427616
 H    0.8427132850    1.7891509473    0.0183746244
 H    0.5397483507   -0.3372279344   -0.9102155781
 H    1.8099825290   -0.1458751915    1.2132981685
 H    0.2999479728   -0.0797166613    2.1219010656
 H    1.3072169975   -2.4494463604    0.4390627028
 H    1.2635094071   -2.3830655121    2.1959170063
 H   -1.2164495157   -2.2890117539    2.1808019394
 H   -1.0037293552   -2.4522568652   -0.8780687786
 H   -2.4920115063   -2.3820640302    0.0554752533
 H   -1.9438579641   -0.0782787523    0.8359555129
 H   -1.9191970200   -0.1403951411   -0.9232499502
 H   -0.1602095491   -4.5143912967    0.3244611268