18

 C   -0.3012547316    1.5470657031    0.2715990763
 C   -0.0635771942    0.0895569665    0.0445909398
 C    0.1921395608   -0.6338641954   -1.1068675746
 C    0.3608384508   -2.0013961003   -0.7285024052
 C    0.2086177376   -2.0736773230    0.6315319514
 N   -0.0440012600   -0.8031515480    1.0904904673
 C    0.2850922506   -0.0995328193   -2.4782182419
 C    1.3220928930   -0.5271616201   -3.4359090672
 O   -0.0154754116   -1.0061888064   -3.5531274712
 H    0.5708401486    2.0519117285    0.7072207377
 H   -0.5296321743    2.0510888222   -0.6703225353
 H   -1.1485229081    1.7173731471    0.9467433025
 H    0.5373926600   -2.8256761838   -1.4012738602
 H    0.2421190253   -2.9124608368    1.3078764443
 H   -0.2039993714   -0.5569269840    2.0518619002
 H   -0.1293076366    0.8986807771   -2.6250993691
 H    1.6501615420    0.1513307393   -4.2237920002
 H    2.0581348392   -1.2643011368   -3.1177681346