21

 C    0.0259989050    1.4970327901   -0.0079633724
 C   -0.0279518891   -0.0120352179    0.0305638233
 C   -0.8896375761   -0.7223093696    1.0447211271
 C    0.6128518118   -0.8546636072    1.1141780282
 C    1.3647056556   -1.9859161323    0.3294775672
 C    1.8503001241   -1.1515736061   -0.8899536780
 C    0.3973557107   -0.7622104547   -1.2881815363
 C   -0.2277238911   -2.1478742480   -1.3305512269
 C    0.3497793599   -2.8780677243   -0.3702627847
 H    0.9746055798    1.8545295092   -0.4264979707
 H   -0.7815364131    1.9104969842   -0.6246157578
 H   -0.0750211222    1.9238059794    0.9952198315
 H   -1.3487360379   -0.0919605345    1.8012425077
 H   -1.4896996907   -1.5754515282    0.7518649195
 H    1.1419588422   -0.4011402473    1.9456280805
 H    2.1229442683   -2.4973890533    0.9227355984
 H    2.4644935766   -0.2915821090   -0.6031819244
 H    2.3670642948   -1.7449227778   -1.6501866150
 H    0.2697247086   -0.1521750069   -2.1835024402
 H   -1.0549118407   -2.4342653067   -1.9679670928
 H    0.0897333135   -3.8824855389   -0.0604641942