18

 C   -0.1751057860    1.5309493272   -0.0810912524
 C    0.0036838832    0.0185103328   -0.0478504027
 C    1.2094580354   -0.5068935071   -0.8812730196
 C    2.0489528082   -0.6244407938    0.4161576052
 C    0.7215382666   -0.5483695630    1.2412419742
 C    0.7043373407    0.2182565257    2.4613302171
 C    0.6975769066    0.8778994844    3.4762304709
 C    0.6917860286    1.6180094883    4.6220445424
 N    0.6868404521    2.2490391300    5.5981657031
 H    0.7655797760    2.0560977690    0.1165405134
 H   -0.5309120449    1.8451303113   -1.0677920652
 H   -0.9032363440    1.8642301011    0.6645885691
 H   -0.9516856887   -0.4715107801   -0.2524761394
 H    1.0086042089   -1.4814481509   -1.3337450710
 H    1.5897666902    0.1634556079   -1.6552736005
 H    2.6511263995   -1.5231305630    0.5589474170
 H    2.6774713169    0.2508328698    0.5909539815
 H    0.3529568807   -1.5586792096    1.4484614569