17

 C    0.0186739301    1.4859521203    0.3140103224
 C    0.0699408206   -0.0209395804    0.1197612063
 C    1.3768902528   -0.6673720422   -0.3460975640
 C    0.9324935036   -0.8783344246    1.0557264447
 O    1.6792580588   -0.2347999472    2.0449452142
 C    1.1216064291   -0.1925336463    3.2838471456
 N    1.7163452147    0.4227277459    4.2062650761
 C   -1.1540940152   -0.6338609260   -0.3285876692
 N   -2.1402338903   -1.1309367192   -0.6748285274
 H    0.9576094037    1.8410655150    0.7424198591
 H   -0.1457346853    1.9907645608   -0.6418306084
 H   -0.7941592874    1.7648878041    0.9906571530
 H    1.3286489840   -1.5015365654   -1.0349924029
 H    2.2051532882    0.0156146976   -0.4962978321
 H    0.5434532805   -1.8525917229    1.3398632445
 H    0.1690245918   -0.7334564449    3.3509316949
 H    1.1881906002    0.3516659353    5.0734675033