18

 C   -0.0043340385    1.5640409907    0.0610135507
 C   -0.0042003522    0.0637945156    0.0255084992
 C   -1.2626839210   -0.8088277866   -0.0803513948
 C   -0.6362805545   -1.7982474063    0.9563815828
 O   -0.3874825669   -3.1444716557    0.5488712695
 C    0.6321304206   -0.9647202175    1.0145162453
 C    1.1787056805   -0.7727238647   -0.3701127872
 O    1.1440944964   -1.7524942414   -1.3651084966
 H    0.9937732793    1.9557954002    0.2833496500
 H   -0.3134407042    1.9782876961   -0.9064790947
 H   -0.6923299836    1.9518388796    0.8216489061
 H   -2.1676135650   -0.3256513139    0.2959947675
 H   -1.4546444872   -1.2253340642   -1.0736918959
 H   -1.1867048894   -1.7889487934    1.9043825037
 H   -1.2337680406   -3.5837594757    0.4128299643
 H    1.2294113004   -0.8099736189    1.9060948253
 H    2.1136249147   -0.2150274936   -0.3936554445
 H    0.7672263612   -2.5483015303   -0.9646033707