18

 O    0.1264223627    1.4088506589   -0.3790239821
 C    0.0781453966    0.0453044222   -0.0674858895
 C   -1.3407402755   -0.6304307695   -0.0874433766
 C   -2.1613900107   -0.5357777166   -1.4127596614
 N   -1.6215780007   -1.8623932924   -1.9310447287
 C   -0.6786018689   -1.7034806378   -3.0695651362
 C    0.4578366068   -0.8423706780   -2.4863927051
 C    0.4218074258   -0.9699860531   -1.1587972634
 C   -0.7249451941   -1.8896126699   -0.7462274430
 H    1.0010286127    1.7471316533   -0.1648366857
 H    0.5397266354   -0.1651816926    0.9087489114
 H   -1.9010534282   -0.6294907582    0.8480905087
 H   -3.2402722862   -0.5971658473   -1.2534967246
 H   -1.9407334586    0.3320680414   -2.0405814172
 H   -0.3672668738   -2.6959337634   -3.4208327082
 H   -1.1673811154   -1.1998130600   -3.9106242950
 H    0.9487591015   -0.0528355202   -3.0431402994
 H   -0.5342006693   -2.8433120769   -0.2513336739