15

 O    0.0024417923   -0.0047983511    0.0037463592
 C    0.0077868878    1.1881433577    0.0099307113
 O   -1.1145774945    1.9493014377    0.0288007740
 C   -0.8343919981    3.3668681432    0.0329314723
 C    0.6778348473    3.5093055973    0.0132800493
 C    1.4254274130    4.6007860575   -0.7360026347
 C    1.4455256269    4.5934321875    0.7527546539
 C    1.2253470966    2.1352012980   -0.0010779095
 O    2.3754050554    1.7827286451   -0.0179935320
 H   -1.3191896291    3.7996667376   -0.8474930423
 H   -1.2950706419    3.7897164451    0.9309747461
 H    2.3191512983    4.2826697533   -1.2620207871
 H    0.8195888764    5.3426618736   -1.2455419661
 H    0.8537946389    5.3301927530    1.2857563431
 H    2.3530894007    4.2702572346    1.2512775224