16

 O   -0.1199462900    0.0324427071    0.1297313592
 C    0.0216458732    1.2168511867   -0.0608618692
 C    1.3130383150    1.9276676300   -0.0308320526
 C    1.2953877939    3.4205912544    0.2510614450
 C    1.6214430929    2.9697956315   -1.1385364564
 C    3.0651745830    2.7568577710   -1.4479807995
 C    3.6089512959    1.8047461502   -0.6865810927
 C    2.6001375743    1.1516594072    0.2323671876
 H   -0.8534012759    1.8711050385   -0.2869779971
 H    0.3202380859    3.8675884466    0.4217006076
 H    2.0955860296    3.8188518512    0.8658533722
 H    0.9099730860    3.1691520281   -1.9332011105
 H    3.5857878608    3.3444870170   -2.1951438913
 H    4.6542183398    1.5177237458   -0.6970061043
 H    2.9049259011    1.1987053203    1.2851963184
 H    2.4501092245    0.0901854145    0.0015938236