17

 O   -0.0489314015    1.3840331310    0.0203630818
 C    0.0200273799   -0.0128133371    0.0199461124
 C    0.3840807135   -0.7355598674   -1.3242499413
 C   -0.8504073886   -1.6235680921   -1.1131939066
 C   -1.3526081366   -0.7465072253   -0.0146397503
 N   -0.9706457273   -2.1198602530    0.2680074759
 C    0.2785732014   -2.1411471933    1.0705432696
 C    0.7634975855   -0.6758587539    1.1848968089
 H    0.8479247334    1.7330782379   -0.0130875440
 H    0.2292955938   -0.0562135362   -2.1662905421
 H    1.3675568265   -1.2124684959   -1.4084282859
 H   -1.3932156988   -2.1623582269   -1.8819760104
 H   -2.3303313104   -0.3508212052    0.2320662479
 H    0.0496916325   -2.5748013079    2.0475815410
 H    1.0138270320   -2.7911333609    0.5864750136
 H    1.8517884673   -0.5821296488    1.0970735179
 H    0.4529324873   -0.2168260250    2.1297144718