15

 C    0.0015328300    1.4808999266    0.0503578354
 C   -0.0604529396   -0.0021250839   -0.0413240472
 C   -0.0822203052   -0.8378285469   -1.0822354419
 C   -0.0211434722   -2.2390703575   -0.4693923503
 O   -0.7379936478   -2.0549716918    0.7700063348
 C    0.0233528514   -0.9494952486    1.1708274985
 O    1.3936361544   -1.4836324739    1.1863739110
 C    1.4129824139   -2.3351978175    0.1153441911
 O    2.3606581478   -2.9654976541   -0.2413684490
 H    0.9294751836    1.7975470318    0.5432127947
 H   -0.0357636302    1.9457394735   -0.9376249178
 H   -0.8264510721    1.8784667610    0.6499286627
 H   -0.0357077929   -0.6176448995   -2.1387379685
 H   -0.3673581616   -3.0989511794   -1.0339249717
 H   -0.2272010695   -0.5957722898    2.1679943181