18

 C   -0.2612070700    1.4675002455    0.0409864015
 C   -0.0655302456   -0.0421580890   -0.0403467267
 C    1.1430360023   -0.4894142996   -0.9314000584
 C    1.9501412906   -0.6844823692    0.3495795550
 C    3.3002264922   -1.1423549588    0.6589192400
 O    2.9637892558    0.2588037934    0.7155324884
 C    0.6783001819   -0.6593733956    1.2047059807
 O    0.7588293753    0.0511482108    2.4052068276
 H    0.6865048004    1.9858753259    0.2214308506
 H   -0.6784072646    1.8552677571   -0.8940309484
 H   -0.9414947132    1.7277844881    0.8569374413
 H   -1.0122951758   -0.5348888761   -0.2770806238
 H    0.9673113474   -1.4261993249   -1.4673168963
 H    1.5419882800    0.2534861504   -1.6262325830
 H    3.5048114495   -1.6072818762    1.6222929468
 H    3.9819428941   -1.4149002861   -0.1452146931
 H    0.3030286538   -1.6652034936    1.4249114391
 H    1.5290839257    0.6304954076    2.3192109788