16

 O   -0.0798296947    1.3786868926    0.3153378796
 N    0.0564256017   -0.0143635212    0.1759935716
 C   -1.0758732830   -0.5793896797   -0.0025748375
 C   -1.1936817385   -2.0813265530   -0.1908538749
 C   -2.7283311419   -2.3610058248   -0.0847858469
 C   -3.3396926951   -0.9674316602   -0.1256582306
 C   -2.4178601456   -0.0006715598   -0.0634496592
 C   -3.2479914295   -3.2521159795   -1.1169378416
 C   -3.6790125839   -3.9786447277   -1.9719637620
 H    0.8331967391    1.6586151334    0.4363520381
 H   -0.8323016875   -2.3678314690   -1.1823503347
 H   -0.6129991750   -2.6397685807    0.5453297322
 H   -2.9533423645   -2.8111174230    0.8934020324
 H   -4.4124116786   -0.8249686002   -0.1768658827
 H   -2.6009157839    1.0637463586   -0.0380252469
 H   -4.0581362593   -4.6231460858   -2.7259280967