17

 O   -0.2697267140    1.4128439176    0.4597524274
 C   -0.0693399313    0.0484570164    0.1547589198
 C   -1.3796978629   -0.6525277215   -0.1927112921
 O   -2.2708912733   -0.7174090897    0.9076328901
 C   -3.2887712274    0.2459834298    0.7088692761
 C   -3.3705878898    0.3028427612   -0.8288211311
 O   -2.0274632882    0.1077403041   -1.2148896518
 C   -4.2963904580   -0.7796748475   -1.3703822614
 O   -3.9222562900   -1.7859556163   -1.9073122205
 H   -0.6743894642    1.7998947839   -0.3251434211
 H    0.6360246389   -0.0909367254   -0.6797901230
 H    0.3567207346   -0.4261395415    1.0432553232
 H   -1.2042222356   -1.6798060537   -0.5378305722
 H   -4.2040530656   -0.1047831075    1.1941891360
 H   -3.0052616942    1.2234376900    1.1172446520
 H   -3.7136323507    1.2786197097   -1.1932716224
 H   -5.3792763083   -0.5662128996   -1.2050389792