23

 C   -0.6339290386    1.2291218231   -0.0534287124
 C   -0.0363746318   -0.1802134467   -0.0537177429
 C    0.7072556468   -0.5166400118   -1.3387217462
 C    1.3306983814   -1.9322676217   -1.3981856852
 C    1.0846267056   -2.3976355194   -2.8575240882
 C    0.1515442025   -3.6031620043   -2.9123655781
 O   -0.0081734779   -3.9766775974   -4.2732713859
 C    0.4356620458   -1.1545005436   -3.5020697639
 O   -0.2011293683   -0.4694052464   -2.4361866990
 H    0.1487541188    1.9895809028   -0.1531398978
 H   -1.3267543941    1.3517665837   -0.8897345892
 H   -1.1760128566    1.4284887366    0.8759787249
 H    0.6602372794   -0.2964775721    0.7861591074
 H   -0.8289437153   -0.9260847418    0.0865735687
 H    1.5025316808    0.2331660188   -1.5046620496
 H    2.3911439805   -1.9183243624   -1.1355369413
 H    0.8284887106   -2.5984393623   -0.6869590567
 H    2.0141213461   -2.6641092149   -3.3686561421
 H    0.5770866433   -4.4293618829   -2.3204289304
 H   -0.8128573828   -3.3283130606   -2.4553437100
 H   -0.6753775390   -4.6671254515   -4.3212351847
 H    1.2004787941   -0.5140759879   -3.9709739743
 H   -0.3150570213   -1.4083706273   -4.2531404830