21

 C    0.2269758700    1.6184908980   -0.1002216307
 C   -0.0066570434    0.1130404966   -0.0334611427
 O    0.6463684201   -0.4491317419   -1.1692486129
 C    0.1807518535   -1.7200949475   -1.5790373315
 C    0.6239863788   -2.8894302369   -0.6966032550
 C   -0.0036183481   -2.8901607756    0.7001666809
 O    0.2772101184   -4.1639375499    1.2712040554
 C    0.4984273744   -1.7668537352    1.5838720895
 C    0.4854005341   -0.4714576490    1.2795055164
 H    1.2982308577    1.8351930646   -0.0413554997
 H   -0.1555036026    2.0219412829   -1.0404616794
 H   -0.2747896309    2.1223624344    0.7315506548
 H   -1.0905563961   -0.0831789750   -0.1260548214
 H   -0.9209360871   -1.7100576396   -1.6565506436
 H    0.5757478556   -1.8639548697   -2.5898116416
 H    0.3307631771   -3.8233579052   -1.1904595625
 H    1.7147206639   -2.8912680482   -0.6039233456
 H   -1.0964241199   -2.7742349817    0.5725543592
 H   -0.1407366366   -4.2003953697    2.1374534548
 H    0.9076543264   -2.0865366991    2.5406431548
 H    0.8694445547    0.2415043677    2.0055624108