17

 C   -0.1834090341    1.5412323965   -0.0254470784
 C    0.0124924038    0.0385868454    0.0454644057
 O    0.8241614584   -0.4146904194   -1.0915848513
 C    1.9364620533   -1.1502050971   -0.5670713419
 C    2.8529863511   -0.1712959901    0.1615499736
 O    2.0617468258    0.2209235376    1.3226086361
 C    0.8175747347   -0.4864000485    1.2441951658
 C    1.2802929194   -1.8266436458    0.6503078369
 O    1.1612520155   -2.9640282612    0.9940067583
 H    0.7575342430    2.0630043492    0.1608647234
 H   -0.5544499250    1.8176155544   -1.0162360772
 H   -0.9166203218    1.8649643525    0.7205348943
 H   -0.9574750276   -0.4766066611   -0.0043554124
 H    2.3758090273   -1.7807168283   -1.3360331570
 H    3.7898383628   -0.6320519749    0.4982095548
 H    3.0708622157    0.7121732084   -0.4468182212
 H    0.3259225078   -0.4930376476    2.2137796305