16

 O   -0.5147882423    1.5516130500    0.2420722785
 C    0.0590754776    0.2629379815    0.2771366920
 C   -0.9291314073   -0.7870600167   -0.2313349991
 N   -1.3651931026   -0.3853008715   -1.5619987473
 C   -2.1828873909   -1.1449708004   -2.1695053699
 N   -2.7889869607   -2.3498114217   -1.8426405744
 N   -3.6083368685   -2.8010336854   -2.8406468747
 N   -3.5643879036   -1.9633909974   -3.7872683548
 N   -2.7266239069   -0.9568174289   -3.4290113358
 H   -0.9187432302    1.6163417885   -0.6340288356
 H    0.9746271921    0.2131038436   -0.3348788887
 H    0.3359472335    0.0548620673    1.3161245900
 H   -0.4427030833   -1.7780182268   -0.2330279902
 H   -1.7809875133   -0.8368252107    0.4678143352
 H   -2.6995044317   -2.8786275109   -0.9938028737
 H   -2.5496155518   -0.1905189006   -4.0547399913