19

 C    0.2038250551    1.4973281759   -0.1587795134
 C   -0.0423781004   -0.0069054562   -0.0756152005
 C   -1.5153518043   -0.3731898737    0.0573840523
 O   -2.3982654728    0.4429451247   -0.0186067207
 C   -1.7884806344   -1.8696152433    0.3065108321
 C   -3.1887115635   -2.2498652887    0.2509055800
 C   -4.3469787349   -2.5669105431    0.1924657343
 C   -5.7592074065   -2.9196593871    0.1363299256
 O   -5.9316207721   -4.0847258837   -0.6632597752
 H    1.2697264745    1.7080494328   -0.2815658380
 H   -0.3374361337    1.9322475404   -1.0022006762
 H   -0.1460805043    2.0013157611    0.7459998711
 H    0.3411895225   -0.5180857057   -0.9703077625
 H    0.5039553533   -0.4578761889    0.7639343618
 H   -1.2008650394   -2.4519715743   -0.4163057096
 H   -1.3540657229   -2.1144350461    1.2871526543
 H   -6.1318965751   -3.0821516626    1.1610379713
 H   -6.3221901483   -2.0662252349   -0.2750638846
 H   -6.8753251728   -4.2721588867   -0.6938907020