18

 O   -0.0039072343   -0.1020656878    0.2755264067
 C   -0.0050184324    1.1049658816    0.1071031075
 C   -1.3397760524    1.8601371084   -0.0840014618
 C   -1.3215191040    3.3202795154    0.3945174941
 N   -0.1385387599    3.9428746552   -0.1683742374
 C    0.5003324532    5.2354042269    0.1441414106
 C    1.8707775592    4.5302267901   -0.1205801115
 C    1.0527351565    3.2526628406   -0.1360435448
 C    1.2015743170    1.9191780786    0.0152111072
 H   -1.5610769811    1.8405352753   -1.1596303440
 H   -2.1250302602    1.2927113829    0.4196940338
 H   -2.2241992687    3.8520038625    0.0773778260
 H   -1.2779632159    3.3587305127    1.4970670447
 H    0.2103873810    6.0571065146   -0.5162270660
 H    0.3718026439    5.5410649053    1.1904108741
 H    2.3334728245    4.7869814162   -1.0757515466
 H    2.6137559637    4.6046006545    0.6745392607
 H    2.1716412999    1.4425595369    0.0694362568