16

 C    0.2108579544    1.5946434342    0.1631493195
 C    0.0851881563    0.0956110204    0.0704959198
 O   -1.1404841380   -0.3923838647   -0.4042300941
 C    1.2563990580   -0.8237341429   -0.2592277999
 O    2.5592488919   -0.3188912307   -0.0728365448
 C    2.7599818103   -0.0570635842    1.2474693997
 N    3.8352536606    0.4227178828    1.6816467268
 O    1.6356726750   -0.3609671474    1.9740111455
 C    0.6390860419   -0.8555865398    1.1074097967
 H    1.1714988285    1.9082064505    0.5752135645
 H    0.1164450275    2.0430463796   -0.8325084972
 H   -0.5863642698    1.9936553198    0.7969599365
 H   -1.2146805746   -0.1584073589   -1.3371479912
 H    1.1858265426   -1.6044927806   -1.0058090780
 H    3.7839837851    0.5486315941    2.6893872791
 H    0.0403903802   -1.6564776320    1.5210645671