18

 O   -0.0375941494    1.3102832801   -0.4016143362
 C   -0.0517101045   -0.0347732748    0.0640570735
 C   -1.4728220366   -0.5129372596    0.0734148048
 C   -2.5418940397    0.1297827003    0.9421398628
 N   -3.7312347554   -0.6656621089    0.6160278573
 C   -3.6431492614   -1.1006107250   -0.7895915003
 C   -3.3144589012   -2.0459271620    0.3113733683
 C   -1.8060921708   -1.9838266910   -0.0675148385
 C   -2.1424234127   -1.0180845275   -1.1871410399
 H    0.8581206389    1.6483544446   -0.3088044881
 H    0.5585249108   -0.6864524499   -0.5813215384
 H    0.3652134767   -0.1021867516    1.0819208041
 H   -2.3237892473    0.0486104400    2.0127814302
 H   -2.7095056754    1.1800823550    0.6892459470
 H   -4.5049546691   -1.0120226586   -1.4382221095
 H   -3.8533778830   -2.8817336243    0.7384610189
 H   -1.0891007396   -2.7923124767   -0.0382936148
 H   -1.7273684405   -0.9312660100   -2.1807688313