18

 C    0.0783331186    1.5616557355   -0.1995177888
 C    0.0131711588    0.0644563570    0.0043771019
 O   -1.1591230021   -0.5195052853   -0.5113496547
 C    1.2696299522   -0.7781338387   -0.0301067585
 C    0.4870711361   -0.6116573694    1.2585181565
 C    1.0629347402    0.1423875879    2.4486378437
 C    1.9082348545   -0.7013624796    3.2893746021
 C    2.5969269706   -1.4110532183    3.9723394605
 H    0.9830802013    1.9994040250    0.2297635790
 H    0.0810218775    1.7985409524   -1.2707955545
 H   -0.7928527020    2.0503773592    0.2487976517
 H   -1.1312645824   -0.4337868236   -1.4711796678
 H    1.2176983046   -1.7391954204   -0.5290762229
 H    2.2265408950   -0.2711845098   -0.1124661256
 H   -0.1170638687   -1.4698938640    1.5354244959
 H    1.6485535652    1.0041658244    2.1066750267
 H    0.2458264346    0.5545235136    3.0557537706
 H    3.2084496659   -2.0318887559    4.5786492943