14

 O    0.0056813680    1.4635960140   -0.1233278177
 C    0.0014839595    0.1059184387    0.0184325799
 C   -0.1905938889   -0.7921021872   -1.1792927954
 C   -1.1471922414   -0.9231088787   -0.0083441072
 N   -0.4487288916   -1.5883680102    1.1077253425
 N   -0.1636659594   -2.7893839711    1.6421297318
 N    1.0385715769   -2.6589045456    2.1477804268
 C    1.5769598802   -1.4343789904    1.8233543954
 C    0.6057685652   -0.7335599931    1.1484809455
 H   -0.2888643478    1.8628747591    0.7040731743
 H   -0.6129063711   -0.2874915270   -2.0448853351
 H    0.5110943903   -1.5891600834   -1.4033002153
 H   -2.2212999156   -0.8138038369   -0.0370267407
 H    2.5723723958   -1.1672856783    2.1355801751