17

 C   -0.0864711077    1.5083913299   -0.0014213275
 C    0.0336530877   -0.0020252108    0.0297270006
 O    1.1074446974   -0.5698273941    0.0621189995
 C   -1.2222659415   -0.7859340568    0.0193456794
 N   -2.4215310093   -0.1962660035   -0.0157538842
 N   -3.2875530863   -1.2174354016   -0.0139168839
 C   -2.6940424334   -2.4480480527    0.0210556469
 C   -3.4795657123   -3.7179713824    0.0289410121
 C   -1.3409036142   -2.1971948432    0.0436889624
 H    0.9113898324    1.9478316838    0.0101178302
 H   -0.6310502548    1.8281170723   -0.8952188145
 H   -0.6659536618    1.8614430247    0.8571988634
 H   -4.2745911650   -1.0170807034   -0.0372395432
 H   -4.1037474931   -3.8166254317   -0.8665077481
 H   -2.8017139095   -4.5729243921    0.0585940336
 H   -4.1394168437   -3.7835973374    0.9015551061
 H   -0.5367006151   -2.9129017910    0.0733584670