20

 C   -0.0189625061    1.5600373228   -0.0116372536
 C   -0.0644019531    0.0299554657    0.0858992471
 C   -1.4620074626   -0.5155500703    0.0859653878
 N   -2.5259980021   -0.1431926417    1.0848744279
 C   -3.2291575078   -1.1161900639    0.1886498275
 C   -2.5100739425   -0.5723021041   -1.0708885534
 O   -2.0867203964   -1.8766158339   -1.5577414717
 C   -1.9669015412   -2.0025654134   -0.1043795633
 C   -1.4985147387   -3.2924800334    0.4856001208
 H    1.0117197699    1.9241644164    0.0291453849
 H   -0.4614552413    1.9056870351   -0.9513286837
 H   -0.5806657639    2.0181589539    0.8070244417
 H    0.4701026388   -0.4251323783   -0.7573290304
 H    0.4506353102   -0.3023728664    0.9973575503
 H   -2.3265921726   -0.5778285433    1.9903481784
 H   -4.2719728298   -1.4110801661    0.3111902574
 H   -2.8192458057    0.1870596248   -1.7870504930
 H   -0.4925922079   -3.5375955945    0.1310005720
 H   -1.4721635882   -3.2211431653    1.5782752954
 H   -2.1713329392   -4.1102482742    0.2097464079