21

 C   -0.1605190348    1.4740414014   -0.0020448051
 C   -0.0134512421   -0.0296463158    0.0390079838
 C    0.8699696655   -0.8397197751   -0.9839093886
 C    0.7495351416   -1.9441110133    0.1228605725
 C    0.8147801214   -0.7666081682    1.1305590871
 C   -0.7547128915   -2.2665179005    0.0152052049
 C   -1.7306446406   -1.7818417204    1.0774174714
 C   -1.3145365064   -0.8732739276   -0.0541032148
 O   -2.2306915072   -0.5219753147   -1.0479683021
 H    0.8148258084    1.9701190506   -0.0278439346
 H   -0.7186908199    1.7849990935   -0.8917833663
 H   -0.6979770256    1.8441539037    0.8797749005
 H    0.4323596419   -1.0515206603   -1.9629587634
 H    1.8814645371   -0.4361786806   -1.0905968837
 H    1.4426875899   -2.7831583722    0.1840892224
 H    1.8250170962   -0.3552708886    1.2001511473
 H    0.4077989518   -0.8827505426    2.1363378886
 H   -1.0815771306   -3.0338728137   -0.6768281301
 H   -2.7331994472   -2.1844054137    0.9680962441
 H   -1.4347509747   -1.6179172653    2.1069863470
 H   -2.8022881432    0.1678613432   -0.6938529309