19

 C    0.1473141827    1.4293394428   -0.0507694941
 C    0.1343781997   -0.0756185527    0.1806830679
 C    0.3432326519   -0.9359076191   -1.1070724467
 C    1.4629439494   -1.9300473659   -0.7617924729
 O    2.6788235014   -1.3999399353   -1.2728659355
 C    1.5002676630   -1.8716839260    0.8007434767
 N    1.1902870474   -0.4804547531    1.1383294597
 C    0.5142627985   -2.7930152208    1.3876339116
 N   -0.2594347219   -3.5431631594    1.8047584285
 H    1.0843698377    1.7420519113   -0.5271115009
 H   -0.6755079355    1.7257286960   -0.7076277355
 H    0.0413067414    1.9695201639    0.8945029209
 H   -0.8242459728   -0.3541741965    0.6340192809
 H   -0.5724495487   -1.4587333470   -1.3924327870
 H    0.6662143029   -0.3306011861   -1.9574543872
 H    1.2782032512   -2.9409598761   -1.1438035860
 H    3.3711792788   -2.0593284526   -1.1574267039
 H    2.4883268367   -2.1472235705    1.1825353561
 H    2.0297261562    0.0568976571    0.9335713474