19

 C   -0.1993320580    1.5516588487    0.1303641879
 C    0.0023762248    0.0371927533    0.0504093799
 C    0.6540680857   -0.4112380806   -1.2645909531
 O    1.9059010489    0.2209877447   -1.4900046681
 C    0.8050863916   -1.9274328891   -1.3357302211
 C    1.6311891447   -2.5162415205   -2.4924854378
 C    2.5897000059   -2.9422701451   -1.3839193647
 O    3.6189182625   -3.5222965079   -1.2706483794
 O    1.8271100441   -2.3907933293   -0.3752512928
 H    0.7503566997    2.0761234634   -0.0017675998
 H   -0.8821522810    1.9008630907   -0.6521354067
 H   -0.6219649828    1.8409432762    1.0967333138
 H    0.6295887975   -0.3094966415    0.8823904137
 H   -0.9602193230   -0.4789245556    0.1575305473
 H    0.0199986032   -0.1033635993   -2.1072332063
 H    2.4867357784   -0.0370649440   -0.7635134288
 H   -0.1414453904   -2.4362265015   -1.1345684424
 H    1.1840867735   -3.3412988942   -3.0482028727
 H    2.0585223147   -1.7796997783   -3.1737976391