18

 C   -0.0606487175    1.5409827590    0.0290015399
 C   -0.0036787613    0.0089312701    0.0107102484
 C    0.7066985088   -0.5383101803    1.2545949795
 N   -1.3696623495   -0.5109447029   -0.0167929582
 C   -1.7514332627   -1.2348604545   -0.9593982790
 O   -1.0414863972   -1.6590320151   -2.0681667412
 C   -1.9024677307   -2.4388271451   -2.8167239746
 C   -3.0782068025   -2.4925862900   -2.2032164501
 O   -3.0196691227   -1.7525458757   -1.0411706687
 H    0.9484821238    1.9633517687    0.0757432832
 H   -0.5527548183    1.9244294682   -0.8696989969
 H   -0.6258858293    1.8893441074    0.8990658823
 H    0.5617825778   -0.3060655666   -0.8778679874
 H    0.1617585778   -0.2519089498    2.1595412334
 H    0.7618916658   -1.6305368959    1.2241682345
 H    1.7260533062   -0.1439650172    1.3209951680
 H   -1.5203248194   -2.8618023491   -3.7284994427
 H   -4.0109847291   -2.9765828113   -2.4304160802