19

 C   -0.0744283373    1.5474661647    0.0174542767
 C    0.0633085724    0.0356259025    0.0854262348
 C   -1.2338633817   -0.6811094892   -0.2668334697
 O    1.1372263879   -0.4504788606   -0.7993655044
 C    1.7317673284   -1.1787282047    0.2822901499
 C    2.2222620660   -0.2259680718    1.3391271696
 C    0.7602428110   -0.5926688517    1.3011092004
 C    2.2124300493   -2.4980659088    0.0634558385
 C    2.6253111641   -3.6123988143   -0.1248200540
 H    0.8535341382    2.0505075644    0.2975445945
 H   -0.3330653329    1.8542060081   -1.0012016770
 H   -0.8704638598    1.8883438251    0.6874830072
 H   -1.5619776092   -0.3954425586   -1.2707082291
 H   -1.0919685974   -1.7647076578   -0.2450287010
 H   -2.0258411344   -0.4178384819    0.4431299183
 H    2.7797702001   -0.6808869267    2.1511562596
 H    2.5701331004    0.7546126799    1.0291645307
 H    0.2553295275   -1.0868330253    2.1206233521
 H    2.9884363773   -4.5957839532   -0.2939645370