13

 O    0.0802159533   -0.1218458980    0.0054965036
 C    0.0260669636    1.0730859806    0.1175571485
 C    1.2433406191    1.9867811594    0.0036605902
 C    1.4983280345    2.8328260746    1.2775752888
 O    2.5152932235    2.1260733772    1.9813016993
 C    3.1108866538    1.2072925083    1.1541913022
 O    4.0205648810    0.5098258920    1.4897951495
 N    2.4890237582    1.2667791611   -0.0875360789
 H   -0.9361656529    1.6062304464    0.2921700821
 H    1.0685245664    2.6456220900   -0.8583506547
 H    1.8594721701    3.8338405960    1.0216930096
 H    0.6172440187    2.9248544278    1.9187547872
 H    2.5076846707    0.4053344347   -0.6146841374