16

 O   -0.5201416445    1.2948800303    0.5458786276
 C    0.0024930681    0.0808820753    0.0216478711
 C    0.7769319111   -0.7210849286    1.1076805402
 C   -0.2522492543   -1.6805355835    1.6368904631
 C   -1.3367844881   -1.7321695865    0.8499055732
 C   -1.2124352101   -0.8039761213   -0.3351507987
 C   -2.4893234438   -2.6027315471    1.0872382252
 O   -3.4508926878   -2.6764007149    0.3536996659
 H    0.2205229120    1.8623385664    0.7824618707
 H    0.6327398504    0.2839794026   -0.8542999808
 H    1.6286478569   -1.2680469210    0.6784480754
 H    1.1885713554   -0.0596226754    1.8796652555
 H   -0.1128797980   -2.2717038344    2.5364597273
 H   -2.1018511807   -0.1884665962   -0.4916141795
 H   -1.0473268709   -1.3712246975   -1.2585769013
 H   -2.4241906055   -3.2148046681    2.0150767350