18

 C   -0.1468935253    1.5123657953   -0.1121692544
 C    1.4079771160    1.7354829350    0.0928909223
 C    2.1270559175    1.7794781156    1.4737257656
 C    3.1050762725    0.5255158504    1.4239299240
 C    2.2338210422   -0.4539094798    0.6676263280
 C    1.3631249940   -1.4867528667    0.9939432678
 C    0.0704576894   -1.1829179210    0.4271466412
 C    0.2065790454    0.0071042372   -0.2683155008
 N    1.5566536555    0.3132561444   -0.2417350595
 H   -0.7665839285    1.7148540459    0.7636189878
 H   -0.5621521774    2.0332746434   -0.9780026465
 H    1.8677588634    2.4176445130   -0.6292429157
 H    2.6494885400    2.7225108519    1.6579552284
 H    1.4079385164    1.6283474080    2.2848788211
 H    4.0295776833    0.7872308161    0.8966307364
 H    3.3751548273    0.1765183342    2.4219242798
 H    1.5825169570   -2.3419733640    1.6182602604
 H   -0.8325222687   -1.7501524789    0.6028177938