21

 C    0.2581545291    1.5734516061   -0.0735982404
 C   -0.0136505659    0.0869246152    0.0510263857
 O    0.7955259705   -0.7137025920   -0.8533966004
 C    1.4575061351   -1.4044324713    0.2276246295
 C    0.6160916158   -0.6413431116    1.2439619341
 O    1.1321269048    0.0069101519    2.3887507545
 C    0.1008692460   -0.9986600008    2.5681855808
 C   -1.2331832557   -0.4603210782    3.0338782573
 C    0.5724405701   -2.2682869219    3.2415138295
 H    1.3076162958    1.7968112727    0.1355052694
 H    0.0204353916    1.9120451343   -1.0864584324
 H   -0.3598491645    2.1368008964    0.6330957755
 H   -1.0806267446   -0.1287957345   -0.1008032839
 H    1.3048785734   -2.4902777103    0.1825403668
 H    2.5326960576   -1.1893871307    0.2690143647
 H   -1.4903593957    0.4637035579    2.5113529098
 H   -2.0284874270   -1.1927893576    2.8583379225
 H   -1.2050446576   -0.2481312114    4.1081502264
 H    0.6496914059   -2.1206394160    4.3241682728
 H   -0.1347429444   -3.0859888915    3.0650131424
 H    1.5539956097   -2.5698089568    2.8685693651