18

 C   -0.1651810887    1.6528952970    0.1163543546
 C    0.1135870292    0.1590215026    0.0053901017
 N    1.1354644360   -0.1729636148   -0.9974859619
 C    1.6830056114   -1.5081496480   -0.7187618063
 C    3.0416865197   -1.7536576438   -1.3632848842
 C    1.7153809114   -1.5297483273    0.8044636189
 O    2.3706508001   -2.2338548504    1.5220225157
 C    0.6990944124   -0.4501134050    1.2734115104
 O    0.4385801749   -0.1813212320    2.4135493166
 H    0.7684849010    2.2001648327    0.2695637281
 H   -0.6418843484    2.0309842824   -0.7929704185
 H   -0.8295563256    1.8437488773    0.9632297480
 H   -0.8429752442   -0.3772722868   -0.1665433748
 H    0.7832675927   -0.0934763774   -1.9437885791
 H    0.9891661713   -2.3235080727   -1.0119381342
 H    3.7347596022   -0.9508177251   -1.0990730509
 H    3.4518179806   -2.7041998779   -1.0121706778
 H    2.9569014239   -1.7918768608   -2.4534313862