21

 C   -0.0799527099    1.4527092966    0.2154926924
 C    1.3045541236    2.0320393305   -0.0315846772
 C    2.3138696159    0.9054717735    0.1207124080
 C    1.5469983003   -0.3632549584    0.4609693289
 C    0.0807585237   -0.0826811741    0.0231837370
 C   -0.1774862715   -0.5069916092   -1.4042368578
 C    0.4818095692   -0.0605003855   -2.4707125912
 C    1.6049488137    0.9402889007   -2.5106750666
 C    2.1144365077    1.5709800373   -1.2220615373
 H   -0.3751421944    1.6754440997    1.2486679491
 H   -0.8541092261    1.8615307378   -0.4408662043
 H    1.5099233371    3.0233548222    0.3600044075
 H    3.2615594158    1.0682198806    0.6243209880
 H    1.9449272220   -1.2626866045   -0.0185465668
 H    1.5937845010   -0.5222372836    1.5457428803
 H   -0.6164613480   -0.6196878242    0.6715799732
 H   -0.9689373018   -1.2367991552   -1.5578814533
 H    0.2005592665   -0.4448472916   -3.4500603556
 H    2.4612017656    0.4669656087   -3.0168397052
 H    1.3079753727    1.7542236883   -3.1909120207
 H    2.9225733968    2.2643710101   -1.4487183185