15

 O   -0.2795995868    0.0730592824    0.2221241306
 C   -0.0883197514    1.2414884668    0.0181140707
 C    1.2901603291    1.8839574994   -0.0427841762
 C    1.4561673288    2.6951660268   -1.3212559383
 O    2.5241427620    2.9560631217   -1.8118787810
 C    1.4701100214    2.7694785370    1.2019806704
 C    2.5700411371    3.7584040564    1.2917553978
 N    1.1690615450    4.2114514436    1.2191715715
 H   -0.9360050419    1.9526328940   -0.1164178983
 H    2.0466043273    1.0928444399   -0.0246776190
 H    0.5128722000    3.0610792927   -1.7861998512
 H    1.1656536453    2.2630399259    2.1157327531
 H    3.0563090399    3.9271741699    2.2478804038
 H    3.2044390921    3.8853075324    0.4194942706
 H    0.9683187422    4.5625379310    0.2857395055