16

 N    0.1170200453    1.1486851170    0.6420749344
 C   -0.0242639520    0.0083544451    0.1196954092
 O   -1.0667995450   -0.7688075210    0.4666437802
 C   -1.0896092121   -2.0903903191   -0.0850902936
 C   -2.4819156914   -2.6226113957    0.0052809889
 N   -2.6900339289   -3.8658950996    0.4335944483
 N   -4.0230126219   -4.0259811249    0.3545982849
 C   -4.6663559882   -2.9216974098   -0.0976513015
 C   -3.6926118124   -1.9795608935   -0.3418277713
 H    0.9391804552    1.6068551428    0.2545366544
 H    0.6331976788   -0.4482922277   -0.6343556652
 H   -0.7525510864   -2.0522293282   -1.1309378932
 H   -0.4130803446   -2.7509867096    0.4686547514
 H   -4.4252199132   -4.9021354227    0.6409620126
 H   -5.7394126306   -2.8933389204   -0.2021427937
 H   -3.8277101025   -0.9719799427   -0.6976993858