18

 C    0.8681993558    0.3933341595   -0.3231270967
 C   -0.3912373126    0.4634218548    0.5138492375
 O   -0.5034237439    1.2020977160    1.4639682928
 C   -1.5733923298   -0.4142286578    0.0880052851
 N   -1.1446967011   -1.6525077939   -0.5493835658
 C   -1.0727139486   -2.8404436893    0.2865967311
 C   -2.1499502709   -2.7137838186   -0.7507189544
 C   -3.5204920981   -2.5384945372   -0.3553862651
 C   -4.6783645612   -2.3871722190   -0.0668250941
 H    1.3301727101   -0.5939206312   -0.2207545704
 H    0.6324719349    0.5086144237   -1.3859936076
 H    1.5651205686    1.1664167484    0.0024650060
 H   -2.2233203748   -0.5540992711    0.9618861631
 H   -2.1460654570    0.1653657988   -0.6494475625
 H   -0.2322849662   -3.5050839666    0.1062991353
 H   -1.3858114920   -2.7559789827    1.3254471195
 H   -2.0173218203   -3.2499811913   -1.6877544098
 H   -5.6986690929   -2.2592144026    0.1989743561