20

 C   -0.0941308894    1.5787296894   -0.0857206161
 C    0.0060067933    0.0470230617    0.0026783192
 C   -1.3725342489   -0.6484898406    0.1144405059
 C   -2.1519682305   -0.2844460024    1.3621088514
 C   -3.1660814176    0.8344931555    1.3603858199
 C   -3.6240469430   -0.5995882956    1.4481733575
 C    0.7107323273   -0.4828504356   -1.2301356021
 O    1.7028129963   -1.1644448516   -1.2307194204
 H    0.8988796740    2.0347457603   -0.1458761864
 H   -0.6603296930    1.8860278811   -0.9728511985
 H   -0.6029314272    1.9848712737    0.7909214919
 H    0.6201864670   -0.2386241540    0.8641209648
 H   -1.9756302863   -0.4092278311   -0.7726299280
 H   -1.2130062296   -1.7345558948    0.0951950250
 H   -1.5916428801   -0.4113518450    2.2856044396
 H   -3.2512698133    1.4592635890    2.2428015758
 H   -3.3379682798    1.3617103837    0.4276606092
 H   -4.0990890287   -1.0332079438    0.5739548683
 H   -4.0205641942   -0.9593289173    2.3910117381
 H    0.2175443836   -0.1904188530   -2.1900100651