19

 O   -0.2036702401    0.1792434387    0.5941829126
 C   -0.0968063742    1.3277168038    0.2536895103
 C   -1.2487604184    2.3213831797    0.0762423827
 O   -0.6816310908    3.5426145604   -0.3496512975
 C    0.7166647292    3.5531721968   -0.0446507617
 C    1.0856090806    4.0833528162    1.3537784248
 C    2.4332719277    3.4031032690    1.6406991866
 C    2.2695672153    1.9642060339    1.0874434139
 C    1.2006043692    2.0891478006   -0.0273665725
 H   -1.9684007364    1.9672210443   -0.6704151457
 H   -1.7827233065    2.4154383072    1.0348879048
 H    1.1932702122    4.1561974928   -0.8225955654
 H    1.1205622073    5.1743922945    1.3998961049
 H    0.3300050864    3.7472726277    2.0754470665
 H    3.2315821824    3.9223783770    1.0971810032
 H    2.7045360575    3.4194214518    2.6994986555
 H    3.2104840994    1.5586771063    0.7098484561
 H    1.9190001800    1.2754262945    1.8624164707
 H    1.5684656993    1.7583813647   -1.0039367197