17

 C    0.1287766764    1.3450342807    0.3921904384
 N   -0.1067252397    0.0284697363   -0.2092554845
 C   -1.4289880137   -0.4356144530   -0.1467789038
 C   -2.0655868456   -0.9181809788    1.1493464364
 N   -3.5330592657   -0.7474826026    0.9937819299
 C   -3.3391827923   -1.4137616302   -0.3486437865
 C   -1.9209294070   -1.9405516362    0.0758161522
 C   -2.5618997628   -0.3230864568   -1.1221307907
 O   -2.6607693770    0.1650841317   -2.2147162642
 H    1.1875986000    1.5968612808    0.2884826050
 H   -0.4695456027    2.1517877111   -0.0555864544
 H   -0.1031430408    1.3038383755    1.4604456769
 H    0.2148604857    0.0186881432   -1.1714614680
 H   -1.5419983366   -0.8052868396    2.0906390430
 H   -3.9705507666   -1.4377464540    1.6050842811
 H   -4.1605774631   -1.9677562186   -0.7918525324
 H   -1.3318925184   -2.8288183396   -0.1011232684