19

 C   -0.0775884982    1.4916756038   -0.1213443494
 C   -0.2408932077   -0.0032573023   -0.3744711133
 N   -1.3110510838   -0.5577376095    0.4691964527
 C   -1.6349038485   -1.8949579997    0.2731132231
 C   -2.8231231926   -2.4742085043   -0.0686716698
 N   -4.0488224892   -1.8162087002   -0.2346684855
 C   -2.5852201573   -3.8889984081   -0.1307346956
 C   -1.2733889638   -4.0620556480    0.1795330816
 O   -0.6705841267   -2.8811614558    0.4398346913
 H    0.7037923105    1.9093099063   -0.7629645149
 H   -1.0130224500    2.0242077180   -0.3170104169
 H    0.2100843008    1.6869133066    0.9185306784
 H   -0.5247567375   -0.1837321585   -1.4172588412
 H    0.7187749421   -0.5182000858   -0.2141752145
 H   -1.1401958321   -0.3347737591    1.4461258483
 H   -3.9071218670   -0.8143004514   -0.2967936600
 H   -4.5632122706   -2.1394088321   -1.0446612715
 H   -3.3011807722   -4.6617285682   -0.3646331727
 H   -0.6485187162   -4.9379813117    0.2496917798