17

 O   -0.0048626716    1.1681287222   -0.6422399905
 C    0.0395553044   -0.0271257986    0.1270097149
 C   -1.3416550130   -0.6311198835    0.1163813682
 C   -1.9632299622   -1.3183135299   -1.0739982219
 N   -1.0004266779   -2.1440537387   -1.8150004787
 C   -0.6708996227   -2.8914363202   -0.6426632205
 N    0.0440345355   -3.9023470591   -0.3978733397
 C   -1.6349139556   -2.1131477921    0.2085794308
 O   -2.3910848240   -2.6052487564    1.2394874164
 H    0.8288002856    1.6327757335   -0.5217734975
 H    0.7719855683   -0.7386346277   -0.2829673004
 H    0.3358802072    0.1728293907    1.1673959369
 H   -2.0783861988   -0.0636520354    0.6826172021
 H   -2.9169020896   -1.0528307099   -1.5097878104
 H   -0.2518298004   -1.6815676510   -2.3232254178
 H    0.5462968761   -4.2138029317   -1.2318781569
 H   -2.5896239514   -3.5290314821    1.0450558350