21

 O   -0.1153982341    1.5329345798   -0.1828433159
 C    0.0180469935    0.1339602416    0.0415649745
 C   -1.3818523716   -0.4680584807    0.0585093959
 C   -2.0026201507   -0.5382517857   -1.3871352546
 C   -1.5543768848   -2.0472312744   -1.4769281089
 C   -1.4359614663   -1.9769323319    0.0292163581
 C   -1.8609970359   -2.5154510621    1.1670425198
 C   -2.0472185496   -1.4121308429    2.2086264693
 C   -2.1704732144   -0.1163269333    1.3394126213
 H    0.7637191448    1.9226464654   -0.1829345831
 H    0.6258348266   -0.3349835731   -0.7486540301
 H    0.5175610298   -0.0681339157    1.0024946657
 H   -3.0905506045   -0.4436491728   -1.3696656488
 H   -1.5859193567    0.1491372115   -2.1264504705
 H   -2.2580128118   -2.7721189018   -1.8928136006
 H   -0.5974914151   -2.1523911321   -1.9984103172
 H   -2.1429794539   -3.5479482833    1.3405395703
 H   -2.9401665625   -1.5801391324    2.8207417058
 H   -1.2043257260   -1.3537509120    2.9117958210
 H   -1.7988481910    0.7812233854    1.8411098190
 H   -3.2250190860    0.0540156507    1.0978949989