15

 O    0.2705886967    1.4115614339    0.3062493559
 C    0.1461630319    0.0510465828    0.1131719600
 C    1.3104072191   -0.7434348684    0.7622185588
 C    1.1211297253   -2.2281149026    0.6972635299
 C    1.5522479097   -1.5062337979   -0.5485824720
 C    0.3720343046   -0.7550077584   -1.1927622946
 O   -0.9488073130   -1.3794822516   -1.0320123129
 C   -1.2479688818   -0.6222502868    0.0877540538
 O   -2.2827640231   -0.5682444204    0.6691602363
 H   -0.4999683028    1.8570787928   -0.0636877227
 H    2.0140412746   -0.2562511693    1.4242480152
 H    1.9072631665   -2.8015146681    1.1772686845
 H    0.1379604028   -2.6825373681    0.7624932089
 H    2.4829187427   -1.7238209399   -1.0556092775
 H    0.4949492069   -0.3113498181   -2.1780529337