16

 C    0.1076459428    1.6530994773    0.0423835956
 C    0.1150931643    0.1342578896    0.0000424569
 C    0.7710025491   -0.6235502173   -1.2107904945
 O    1.8229577419    0.1184075288   -1.7696615698
 C    1.3404853111   -1.6948501651   -0.2128587106
 O    2.6630687648   -2.1070017017   -0.4351491645
 C    1.1276835123   -0.6241744463    0.8644659539
 O    1.7852376552   -0.3583876740    1.8320148168
 H    1.0860905606    2.0416912400   -0.2463979901
 H   -0.6410831689    2.0616429332   -0.6425577165
 H   -0.1228107310    2.0048347443    1.0520217773
 H   -0.8860662893   -0.2813110141    0.1725481954
 H    0.0796666855   -0.9912577367   -1.9767232271
 H    2.5922413307   -0.4704434038   -1.7698372215
 H    0.6651963661   -2.5525777438   -0.1070428799
 H    3.1826001146   -1.7936624504    0.3177111786