17

 C   -0.0564795871    1.5203708310    0.3688627063
 C    0.1888495358    0.0679564577   -0.0096339180
 O    1.2719621978   -0.3832655515   -0.2695916291
 N   -0.9965656246   -0.6922258711   -0.0212873278
 C   -1.1429745446   -2.0458241819   -0.3229566360
 O   -0.2349309083   -2.7884690620   -0.6148109107
 C   -2.5664315618   -2.5260061595   -0.2551723270
 C   -3.0201306935   -3.3859782198   -1.3928627574
 N   -2.7556066414   -3.9704538835   -0.0841983499
 H    0.8968148796    2.0469636657    0.3601138462
 H   -0.7412635815    1.9989411892   -0.3396782141
 H   -0.5023648635    1.5944017769    1.3666683327
 H   -1.8450925061   -0.1978432397    0.2105111221
 H   -3.2890985049   -1.8986360908    0.2613258510
 H   -4.0643551378   -3.3549737151   -1.6897628354
 H   -2.3026795757   -3.5530878226   -2.1909217342
 H   -1.8242383625   -4.3889183031   -0.1001498485