19

 C   -0.0230057272    1.5412292190   -0.0110764468
 C    0.0080997140    0.0300054670    0.0132685387
 C   -1.3134934673   -0.7574013902    0.2825281703
 C   -0.6173946177   -1.5406667963    1.4399117687
 C    0.7071472597   -0.7702569211    1.1672544603
 C    1.6819659001   -1.3601680631    0.1244905326
 N    0.8746636503   -2.0915666728   -0.8834310192
 C    1.0089728703   -0.6197215258   -0.9801262252
 H    0.9902928948    1.9604554530   -0.0202255219
 H   -0.5428300962    1.9120235842   -0.9036421839
 H   -0.5425323076    1.9413720487    0.8662799810
 H   -2.1299874720   -0.1103959057    0.6158913648
 H   -1.6608636052   -1.3733320434   -0.5482405054
 H   -1.0376315104   -1.3319770695    2.4268245709
 H   -0.5583612667   -2.6202617395    1.2962409117
 H    1.1871133530   -0.2459724476    1.9951243260
 H    2.7264284826   -1.6117981150    0.2673716409
 H    1.5282179990   -2.4967441701   -1.5525589518
 H    1.4155365867   -0.1649461018   -1.8774062416