21

 C    0.1458065215    1.5539107675    0.0260712319
 C    0.3500466075    0.0374499971    0.0416951246
 C    0.6052992162   -0.5198091033    1.4487652746
 O   -0.4346760259   -0.1701035770    2.3619698197
 C    0.8169298673   -2.0233243825    1.4163365675
 C    2.1140621323   -2.6380248485    0.9176762106
 O    3.1871682337   -1.8127735611    0.5743334424
 C    1.7438123285   -2.7238362251    2.3801040560
 O    2.4907135529   -1.8901092597    3.2330369432
 H    1.0454618626    2.0733484900    0.3744460981
 H   -0.0767994372    1.9130730432   -0.9832536814
 H   -0.6765680617    1.8422496153    0.6860001571
 H   -0.5321159157   -0.4653347792   -0.3830065251
 H    1.2014739370   -0.2418329624   -0.5887387543
 H    1.4947093293   -0.0374879152    1.8631724030
 H   -1.2517425166   -0.5631106830    2.0349454234
 H   -0.0839648952   -2.5825459082    1.1662081422
 H    2.0702946641   -3.5228567071    0.2898519811
 H    3.4813763182   -1.4020644527    1.4000365376
 H    1.4300128072   -3.6668734813    2.8224189595
 H    3.2163450339   -2.4132566567    3.5912035185