23

 C   -0.0626747382    1.5759305451    0.2387182765
 C   -0.1045677408    0.0578460580    0.0442953770
 C    0.7741222630   -0.4225930982   -1.1171750053
 C    0.7307980995   -1.9365310758   -1.3218755807
 C   -0.5827807432   -2.4506432418   -2.0000255351
 C    0.2279526067   -2.6233217174   -3.2937977442
 O   -0.0601055143   -2.7049341060   -4.4533525912
 C    1.5614150549   -2.4842580824   -2.5440375730
 C    2.6939345204   -1.6994712842   -3.1916284048
 H    0.9569959897    1.9212172651    0.4427773760
 H   -0.4145994482    2.0997088377   -0.6569793763
 H   -0.6937518678    1.8887793718    1.0762984091
 H    0.2185791005   -0.4407617110    0.9678332780
 H   -1.1413740820   -0.2610812718   -0.1232471293
 H    0.4624328825    0.0858359404   -2.0409458271
 H    1.8105695869   -0.1090167422   -0.9350964484
 H    0.9690010430   -2.4389524486   -0.3802136949
 H   -0.9352727590   -3.4110444060   -1.6104910600
 H   -1.4331063942   -1.7653966790   -2.0549394095
 H    1.9057060546   -3.4997417061   -2.3038589744
 H    2.3888903326   -0.6799810773   -3.4431285829
 H    3.5674558147   -1.6409811136   -2.5345282664
 H    3.0014967889   -2.1894878269   -4.1202202829