25

 C   -0.1192270570    1.5131120177    0.1006970916
 C   -0.0246736513   -0.0016902326    0.0448042491
 C   -1.2690350601   -0.6534646743   -0.5311422874
 C    1.3139172977   -0.6259874515   -0.2807994376
 C    0.7604140405   -0.7278730798    1.1255572647
 C    1.4424728157    0.0346654068    2.2709995716
 C    1.8985427103   -1.0706180756    3.2362987519
 C    0.7360913994   -2.0735503975    3.1824019243
 C    0.3258490896   -2.0972121566    1.6922337353
 H    0.7971261136    1.9714950685    0.4804510078
 H   -0.3061981166    1.9244890609   -0.8984468828
 H   -0.9449568610    1.8364081622    0.7466799512
 H   -1.4837693707   -0.2527635226   -1.5290810841
 H   -1.1611348924   -1.7368406088   -0.6281721867
 H   -2.1490982476   -0.4602220297    0.0949917299
 H    1.3204699349   -1.5248805634   -0.8919121593
 H    2.1634830389    0.0300984464   -0.4508339493
 H    2.2660306900    0.6690145058    1.9313612437
 H    0.7215705965    0.6885004242    2.7803707511
 H    2.8159714160   -1.5400748485    2.8596847284
 H    2.1076383485   -0.7024734921    4.2450241108
 H    0.9974741980   -3.0643692278    3.5646338612
 H   -0.0948223873   -1.7010374909    3.7938665693
 H   -0.7456034866   -2.2830911325    1.5757833573
 H    0.8447138511   -2.9076401884    1.1675500981