20

 C   -0.0970441306    1.3943564238    0.0975659699
 O   -0.1760220193   -0.0105326956    0.1196867818
 C    0.7296126060   -0.5949103203    1.0375501098
 C    0.6261296423   -2.0802128376    0.9452266513
 C   -0.3700559151   -2.9143047839    1.7048185916
 C    1.1033350247   -3.1503017404    1.9005258310
 N    1.8657228183   -3.8981146829    0.8214266092
 C    0.9477192380   -4.3174722178   -0.2571509257
 C    1.3267539027   -2.8937738913   -0.1657091608
 H    0.9076817721    1.7448966611   -0.1887634824
 H   -0.8188715615    1.7514715629   -0.6409246329
 H   -0.3443439620    1.8344630476    1.0772116873
 H    1.7595962386   -0.2674637237    0.8092702811
 H    0.5066992811   -0.2643203542    2.0667949477
 H   -0.8222718746   -2.3897960828    2.5418786375
 H   -1.0464866887   -3.6140561021    1.2284445520
 H    1.5875460124   -3.0669118461    2.8655771067
 H    1.4626383605   -4.9082803937   -1.0097205615
 H   -0.0536133965   -4.6675920746   -0.0362570515
 H    1.9888910516   -2.4175363185   -0.8825737623