13

 O   -0.0358205437    1.2936009376    0.0097421607
 C    1.1197091425    1.9850969374    0.0019196689
 N    2.3099619603    1.4966125364   -0.0125744445
 C    2.4588820938    0.1303794773   -0.0213805825
 C    1.3723843738   -0.6935713833   -0.0149644882
 C    1.0471668048   -2.0851861379   -0.0191809149
 C   -0.3261342208   -2.1228999575   -0.0057157182
 N   -0.9472399141   -0.8642592612    0.0072554553
 C    0.0592352060   -0.0523319913    0.0015722621
 H    0.9357019555    3.0525037369    0.0094708331
 H    3.4832717939   -0.2294399524   -0.0335189272
 H    1.7307877197   -2.9193094810   -0.0304661038
 H   -0.9530445817   -3.0049952110   -0.0042074510