21

 C    0.1426838735    1.4266903393   -0.2546206548
 C    0.0601304892   -0.0482819393    0.0996739851
 C   -1.0700695061   -0.7764869124   -0.6059026075
 C    1.3444866889   -0.8091288732    0.3368686319
 C    0.4098985012   -0.5310892830    1.4947402785
 C    0.8084267073    0.3922625128    2.6153772922
 O    1.5044963916   -0.3369974096    3.6437008747
 C    2.8458124421   -0.2592993668    3.6722149779
 O    3.5165354151   -0.8782720190    4.4425992394
 H    0.9953440546    1.9263758787    0.2124035613
 H    0.2505893397    1.5479172966   -1.3385328016
 H   -0.7666279088    1.9607302787    0.0453774563
 H   -0.9580008318   -0.7085839877   -1.6943139804
 H   -1.0932760902   -1.8370966726   -0.3381145597
 H   -2.0432611827   -0.3438502968   -0.3455342816
 H    1.4262981245   -1.8285684701   -0.0246276098
 H    2.2748749737   -0.2500122561    0.2950401727
 H   -0.1699911009   -1.3799283530    1.8478698483
 H    1.4377461774    1.2167140070    2.2611797916
 H   -0.0660539891    0.8239773521    3.1107851528
 H    3.2514935306    0.4470298245    2.9201945027