14

 N    0.0296382494    1.3393763275    0.1726278455
 C   -0.0845315646   -0.0169616376    0.0275720965
 C   -1.1433817878   -0.8804948920    0.0779689511
 C   -0.5104725718   -2.1375815950   -0.0743263738
 O   -1.1937620571   -3.3036174234   -0.0919584068
 C   -0.4895076485   -4.4748426677    0.0205422090
 N   -1.1130502774   -5.5535947110   -0.1460106918
 N    0.7926846496   -2.0701350643   -0.2154402739
 O    1.0660516997   -0.6845373962   -0.1411204134
 H    0.8781732784    1.7322964257   -0.2089432449
 H   -0.7963684321    1.8697284654   -0.0573453908
 H   -2.1899479266   -0.6736391453    0.2117623348
 H    0.5630251414   -4.3217706268    0.2642377876
 H   -0.4819828926   -6.3408887291   -0.0075186391