20

 O    0.0997944326    1.4325135206    0.7144114737
 C   -0.0276213498    0.1412491836    0.1373651156
 C   -1.4347634814   -0.4271563556    0.2359531383
 C   -2.4523729417    0.2853490908   -0.6450592977
 C   -3.9012589529   -0.2215289031   -0.5120906688
 C   -4.8446811463    0.5988578017   -1.2607936170
 C   -5.6027409665    1.2902383612   -1.8873607596
 C   -1.5429999125   -1.8688412414    0.5872567823
 N   -1.9039825691   -0.8322522824    1.5692581723
 H   -0.3566973951    2.0642340370    0.1507260494
 H    0.3029823721    0.1387268437   -0.9134231643
 H    0.6632321406   -0.4977934361    0.6986236888
 H   -2.4467097093    1.3523915278   -0.3882446573
 H   -2.1348322160    0.2142300076   -1.6927455617
 H   -3.9707407049   -1.2576142940   -0.8655434008
 H   -4.1696260460   -0.2380117614    0.5497692755
 H   -6.2859721844    1.8919278351   -2.4333643915
 H   -2.3745488704   -2.4690800498    0.2306462386
 H   -0.6206967319   -2.4281787284    0.7264890219
 H   -1.1638878972   -0.7037359670    2.2550886125