23

 C   -0.0191666895    1.5968441296   -0.2726988510
 C   -0.0125760214    0.0970011225    0.0575012560
 C   -1.3953570651   -0.5372280804    0.0081324344
 C   -2.1140070548   -0.7007947640   -1.3648208006
 C   -2.6311812893   -2.0839405341   -0.8862558388
 C   -1.5275962235   -2.0744039480    0.2053316134
 C    1.3623319568    2.2018709421   -0.2345979610
 C    1.6219620007    3.5603983684    0.2560300849
 O    1.9280725674    2.4218173730    1.0628017052
 H   -0.4477936884    1.7569724849   -1.2713050354
 H   -0.6590978721    2.1312312223    0.4399519463
 H    0.6490762979   -0.4280335730   -0.6463541255
 H    0.4247794388   -0.0418679250    1.0544563322
 H   -2.0621354111   -0.0193699684    0.7092491459
 H   -2.8531031469    0.0506581286   -1.6540845856
 H   -1.3877330995   -0.8035776919   -2.1790508394
 H   -3.6320178851   -2.0125928278   -0.4504638360
 H   -2.6271518498   -2.9051209877   -1.6068600647
 H   -0.6237700861   -2.5934471764   -0.1315142389
 H   -1.7854754785   -2.4413647144    1.2019869003
 H    2.0731222280    1.7838561209   -0.9514284260
 H    2.4816742542    4.1190292960   -0.1123534828
 H    0.7903340673    4.1711442829    0.6065709371