19

 O    0.3577165507    0.3859266789    0.9644023233
 C   -0.1244138340    0.1788126476   -0.3537167648
 C   -1.4676202594   -0.5632871011   -0.4198434597
 O   -1.9489900424   -0.5542805577   -1.7633995184
 C   -1.4189869882   -1.9857655312    0.1239909676
 C   -1.2085994126   -2.2482667518    1.6648013751
 C   -2.5650517214   -2.9619682746    1.6772013354
 O   -3.5404445476   -2.0092070631    1.2313454126
 C   -2.7750947435   -2.7076252853    0.2432091228
 H   -0.2250277765    1.0206625706    1.3934861609
 H   -0.2299161245    1.1233655214   -0.9065784132
 H    0.6474092304   -0.4131607575   -0.8634625557
 H   -2.2160297221   -0.0008086879    0.1514658965
 H   -1.3406129779   -1.0773309461   -2.2980126736
 H   -0.7067032907   -2.5815482491   -0.4615988696
 H   -0.3583977073   -2.9050256568    1.8598088194
 H   -1.1378752391   -1.3693325817    2.3055514539
 H   -2.9175394172   -3.7651890130    2.3136531597
 H   -3.3260144368   -3.2582281116   -0.5098924823