18

 O    0.0261487749    1.4177049898   -0.2001554803
 C    0.0181949822    0.0040295136   -0.0035129197
 C    0.5651245110   -0.4420994475    1.3754297404
 N   -0.5611076958   -0.5893895014    2.3210021573
 C   -1.4431134978    0.5853032418    2.3764554774
 C   -1.7980038334   -0.5710013872    1.5095481694
 C   -1.4372407492   -0.4564347144    0.0581110507
 C   -2.3830535822   -0.2661640076   -1.0407463330
 O   -1.8067074940   -1.5529874833   -0.7857838542
 H    0.9419848279    1.7137311611   -0.1737029443
 H    0.5300994846   -0.5043013497   -0.8300577530
 H    1.0414314223   -1.4241286046    1.2821762757
 H    1.3078595459    0.2594074182    1.7702832932
 H   -1.9591975015    0.7117807366    3.3238187198
 H   -1.1229513232    1.5016807651    1.8903417018
 H   -2.5904232599   -1.2633993751    1.7759534360
 H   -3.4468295793   -0.1801232877   -0.8237668720
 H   -2.0516373526    0.2278549523   -1.9521878552