21

 C   -0.2942920539    1.4585177976    0.0862083743
 C    0.0234355121   -0.0265205383   -0.0687207086
 C    0.7221588052   -0.3706969603   -1.3766142025
 O    1.0818036389    0.4847095184   -2.1560002578
 C    0.9300283518   -1.8540223052   -1.6551711958
 C    1.8472615148   -2.1304785037   -2.8453013470
 C    3.3396150590   -1.9301603575   -2.5295711619
 C    1.6101592261   -3.5033172901   -3.4398313759
 O    0.7299194809   -4.2620173457   -3.1203204433
 H    0.6156829827    2.0594744830    0.0181327481
 H   -0.9676034367    1.7993768554   -0.7047166061
 H   -0.7694700282    1.6534216392    1.0515296397
 H    0.6716320954   -0.3779592639    0.7469334826
 H   -0.8823043032   -0.6431136846    0.0078231715
 H    1.3000151153   -2.3462487978   -0.7467611608
 H   -0.0542584562   -2.3060344065   -1.8355963797
 H    1.5927104971   -1.4150629696   -3.6426816790
 H    3.5244129283   -0.8923876338   -2.2436860224
 H    3.6615274567   -2.5804506523   -1.7086556008
 H    3.9631498761   -2.1542668427   -3.4013198654
 H    2.3340072079   -3.7775747515   -4.2425558592