12

 C   -0.0751612778    1.5308805623   -0.0620082781
 C   -0.0101517448    0.0300790672    0.0567311102
 N    1.2873428950   -0.6030812904   -0.1804122267
 C    0.7067136513   -0.6628011301    1.1778415143
 C    1.3942849362    0.0755656202    2.2097610759
 N    1.9171053644    0.6643565979    3.0563604233
 H    0.8302255714    1.9910511336    0.3397587042
 H   -0.1713781882    1.8225214569   -1.1125952052
 H   -0.9387948019    1.9244792301    0.4831194788
 H   -0.8930802582   -0.5023060513   -0.2951329289
 H    1.1848032154   -1.5096586769   -0.6287972064
 H    0.2930101673   -1.6063025595    1.5235469486