17

 C   -0.0890394606    1.5310744857    0.1596152304
 C    0.1361956353    0.0623704576    0.0120505405
 O   -0.7017689607   -0.8453187415    0.7335901275
 C    0.7280870220   -0.9237790082    0.9592803246
 C    1.2165970789   -1.7506135272   -0.2257046209
 O    1.8362681720   -2.7659829885   -0.3655390207
 C    0.6276828424   -0.7205544320   -1.2293368850
 C   -0.3561748336   -1.2648964842   -2.2629231615
 O    0.2921711268   -2.1770249843   -3.1312060116
 H    0.7889216409    2.0914399348   -0.1759090958
 H   -0.9451263459    1.8536818898   -0.4424874800
 H   -0.2930458063    1.7824485359    1.2034458531
 H    1.0802483746   -0.8295668306    1.9798380062
 H    1.4627253996   -0.2166458725   -1.7323727434
 H   -1.2106400252   -1.7232647913   -1.7454133008
 H   -0.7421475432   -0.4581489129   -2.8954677789
 H    0.7290879230   -2.8408136710   -2.5838012437