21

 C   -0.0289060905    1.6044974520    0.1789054361
 C    1.4669540538    1.2333914283    0.0523603281
 C    1.1758315110    0.0455057384    1.0324464772
 C    0.0070514070    0.0454941869    0.0041644779
 C   -1.1689440577   -0.8339418833   -0.3228420451
 C   -1.8012920797   -0.2952210103   -1.6344877442
 C   -0.8268474468    0.2728545176   -2.6490160955
 C    0.4572902191    0.5722462748   -2.4222654416
 C    1.0740692455    0.2430842963   -1.1023387656
 H   -0.3582634571    1.9692525056    1.1561114891
 H   -0.4647505294    2.1865668967   -0.6341250505
 H    2.3223294414    1.9099969821    0.0862587771
 H    1.8626087883   -0.8054954293    0.9943107520
 H    0.9342097267    0.3202002386    2.0631946534
 H   -0.8195157171   -1.8631962593   -0.4725972502
 H   -1.9215488970   -0.8621359469    0.4730326438
 H   -2.3981699759   -1.0832898464   -2.1101541748
 H   -2.5232376603    0.4968439772   -1.3858175873
 H   -1.2518467772    0.4690758150   -3.6319188618
 H    1.0722126599    0.9784562937   -3.2227265797
 H    1.7913513160   -0.5833819776   -1.2027901985