19

 C    0.5948991949    0.4055930405    0.7189973298
 C   -0.4820837240    0.2816481184   -0.3378516535
 O   -1.5348837476    0.8772192708   -0.2591210820
 C   -0.2434205037   -0.6671254332   -1.5034238204
 C    1.1853995932   -1.0908829436   -2.0029487030
 C    0.8147835286   -2.5466268109   -1.6977286072
 O    0.5013883646   -2.6161981926   -0.2975838028
 C   -0.5217549706   -2.1724235100   -1.2014646194
 C   -1.8499937547   -2.8517707150   -1.1686488334
 H    1.4700583978    0.9194497381    0.3033606761
 H    0.2130783127    0.9782243849    1.5651605481
 H    0.9280619940   -0.5884321869    1.0321245606
 H   -0.8742109859   -0.3332572184   -2.3303023120
 H    1.3203353351   -0.8837257775   -3.0667393863
 H    2.0459985472   -0.7117635961   -1.4483252430
 H    1.1669820929   -3.4590710859   -2.1654418371
 H   -2.4434021049   -2.4945175567   -0.3200784980
 H   -2.4141531996   -2.6416689704   -2.0824205039
 H   -1.7220076599   -3.9329107455   -1.0699930526