24

 C    0.1323597317    1.5507096964    0.2185298492
 C    0.0463779550    0.0194432276    0.0741257282
 C    0.5121862034   -0.6503691591    1.3812950581
 C   -1.4189246015   -0.3752907433   -0.1903145496
 C    0.8906851019   -0.4665317520   -1.1299353031
 C    2.3902461246   -0.1411298707   -1.0852845357
 N    3.0935332646   -0.6461679281   -2.2564179043
 C    3.6267197850    0.1602397101   -3.2121596224
 O    3.6225986312    1.3732417842   -3.1931893607
 H    1.1427262738    1.8833634535    0.4758936903
 H   -0.1582217698    2.0533990500   -0.7103389586
 H   -0.5379250067    1.9005843297    1.0110869417
 H   -0.1395284120   -0.3632641774    2.2135134269
 H    0.4830615121   -1.7429738640    1.2996482410
 H    1.5317989386   -0.3594630538    1.6527382772
 H   -1.7956270273    0.0906563816   -1.1074345828
 H   -1.5248753512   -1.4605214886   -0.2984264802
 H   -2.0646343462   -0.0575587923    0.6354851856
 H    0.7693256456   -1.5553519705   -1.2229135393
 H    0.4799773866   -0.0324806575   -2.0501150096
 H    2.5604713562    0.9368510338   -1.0815759448
 H    2.8542668325   -0.5574510393   -0.1839450360
 H    3.1319248012   -1.6420714069   -2.4063659941
 H    4.0858351708   -0.4281668335   -4.0320807569