15

 C    0.0178352251   -1.2239045413    0.0071752221
 C    0.0199402705   -0.0297656622    0.1406171200
 C    0.0574693613    1.4188371050    0.2869110043
 C    1.3575963542    2.0325553146   -0.2945791068
 C    1.4123482773    3.5155708551   -0.1106890350
 N    1.1679807507    4.3544967388   -1.0841041001
 O    1.2875373936    5.6053694826   -0.5485060201
 N    1.6116167929    5.5505669439    0.7765540394
 C    1.6907014023    4.2813249507    1.0608079444
 H    0.0005359880   -2.2796258348   -0.1062142536
 H   -0.8053043363    1.8696692817   -0.2176101507
 H   -0.0333556817    1.6858683456    1.3473378346
 H    2.2204701500    1.5678053439    0.1925101148
 H    1.4206318216    1.8037760575   -1.3606169285
 H    1.9417201206    3.9509572789    2.0571431952