19

 C    0.4348710943    0.8084570059    0.6755402572
 C   -0.2044672401    0.2126230187   -0.5858892152
 N    0.6067194629   -0.5881134474   -1.4902229191
 C    1.6948070259   -1.1442688183   -1.1998976658
 N    2.6121745217   -1.2005413741   -0.0829643266
 C    3.6821240324   -1.6869580324   -1.0085579050
 C    3.2757777606   -3.0591991690   -1.4569669054
 C    2.6315121337   -1.8694958577   -2.1216907038
 O    2.6108271458   -1.7353852511   -3.4857598205
 H    0.7885632313    0.0328302574    1.3600552465
 H    1.2722997241    1.4690833192    0.4241029916
 H   -0.3056980287    1.4127911229    1.2095900013
 H   -1.0625607542   -0.4096213025   -0.2957734312
 H   -0.6305979215    1.0271449646   -1.1847510585
 H    2.7942685187   -0.3090567029    0.3613464842
 H    4.6832152530   -1.2792538556   -0.9972415373
 H    3.9849646622   -3.5529404082   -2.1158673560
 H    2.7255017380   -3.7124464967   -0.7844058730
 H    2.1016806199   -0.9359716728   -3.6733237133