17

 O   -0.2932231257    1.3387081360    0.0788679160
 C    0.0375357638   -0.0363306929   -0.0229008522
 C    0.7571820036   -0.3120653156   -1.2871634283
 N    1.3515630229   -0.5012507597   -2.2599593518
 C    0.8300735661   -0.5408344679    1.1569185618
 C    2.2863058465   -0.1748578634    1.5055939745
 C    2.4720499011   -1.6188893153    2.0824281847
 C    1.0138382150   -1.9276955527    1.7127091710
 N    0.0911705313   -0.9807957263    2.3289129496
 H    0.5241486455    1.8492914029    0.0464986216
 H   -0.9178256321   -0.5694359312   -0.0412630862
 H    2.9113057197   -0.0048484059    0.6256626263
 H    2.4086483947    0.6647618190    2.1972198483
 H    3.1959198749   -2.2004212419    1.5082140116
 H    2.7142241305   -1.7056473783    3.1462650191
 H    0.6147010249   -2.8761872341    1.3720041594
 H    0.4413373873   -0.5816114028    3.1981907847