17

 O   -0.1000048308    1.3676879956   -0.0346267055
 N    0.0541229838   -0.0364326837   -0.0237454688
 C   -1.0604057702   -0.6165721902    0.0460857290
 C   -2.5543938423   -0.3346257489    0.0336539575
 N   -2.5872345972   -1.5291693700   -0.9063476820
 C   -1.5011904989   -2.0642058791    0.0135569463
 C   -2.2194619246   -2.2241489145    1.3811898375
 C   -1.9632989129   -1.1947084103    2.4553623844
 C   -3.0064901297   -0.9211603461    1.3981751254
 H    0.8115284265    1.6665212044   -0.1236640561
 H   -2.9859169418    0.6015436608   -0.3115722590
 H   -3.4555251280   -2.0583172223   -0.7918919105
 H   -0.8736891970   -2.8740737715   -0.3527516809
 H   -2.6572924779   -3.1831542022    1.6327126716
 H   -2.3374751710   -1.4325754852    3.4467382275
 H   -1.0343142357   -0.6349178030    2.4551150425
 H   -4.0552112723   -0.8672237238    1.6664001213