17

 C   -0.2390943195    1.3723434425    0.3422056809
 O   -0.5424340273    0.0260355138    0.6282472479
 C   -0.9529059949   -0.6965288705   -0.5127819216
 C   -1.1486682239   -2.1180785598   -0.1035199391
 O   -1.8775260961   -2.9986945877   -0.9520589461
 C   -2.2912963446   -2.8741641475    0.4112774220
 C   -1.3142766739   -3.7455221661    1.3000588053
 O   -0.3603354356   -4.3661251494    0.4411801734
 C   -0.1704764835   -2.9953633457    0.7882875435
 H    0.0755573375    1.8406292428    1.2775100006
 H    0.5760270656    1.4588733600   -0.3931899407
 H   -1.1146576986    1.9124084624   -0.0503263518
 H   -1.8913142542   -0.2999681929   -0.9325143297
 H   -0.1867167743   -0.6361558327   -1.3058847213
 H   -3.3143451426   -2.5868025357    0.6198170573
 H   -1.5138490245   -4.1864353527    2.2682629633
 H    0.7585182806   -2.6887034910    1.2505883462