13

 C   -0.0254670335    1.5570769216    0.0304356395
 C   -0.0217505154    0.0081300217   -0.0374279179
 C   -1.3971512311   -0.5160374894    0.0409439457
 N   -2.4806849145   -0.9075066349    0.1207607580
 C    0.6592778706   -0.4881236190   -1.2317676260
 C    1.2478057398   -0.8772210559   -2.2130652729
 C    1.9049125487   -1.3136315178   -3.3218973947
 C    2.4886377004   -1.7014480763   -4.3045475937
 H    1.0036783893    1.9214386307    0.0182852398
 H   -0.5581438106    1.9739497585   -0.8261824507
 H   -0.5147683893    1.8884411311    0.9490929314
 H    0.5091025230   -0.3722851920    0.8468055289
 H    2.9999561724   -2.0427728482   -5.1705475474