25

 C   -0.2026176038    1.5573924033    0.1133079215
 C    0.0049335569    0.0404063719    0.0495675610
 C    0.7285642447   -0.4964374522   -1.2227406231
 C    0.8067357725   -2.0339308738   -1.1257443922
 C    0.0104704085   -0.0689105487   -2.5261355244
 C   -1.4677170629   -0.4560671416   -2.6441595667
 C    2.1517645738    0.1082808911   -1.2340509325
 C    3.1977845485   -0.4682320516   -0.2883335322
 O    2.4426695320    1.0304360085   -1.9632954886
 H    0.7415473696    2.1021657259    0.0198632653
 H   -0.8624518811    1.9104012169   -0.6844335107
 H   -0.6595251339    1.8377161318    1.0674120223
 H    0.5649454503   -0.2849675298    0.9347251298
 H   -0.9654907247   -0.4651452096    0.1185921438
 H   -0.1972363996   -2.4674991716   -1.1321341410
 H    1.3576485898   -2.4611394077   -1.9707052234
 H    1.2922531987   -2.3634717957   -0.2030106045
 H    0.1181300056    1.0116556894   -2.6425802015
 H    0.5626287546   -0.5018967464   -3.3692064097
 H   -1.6251511983   -1.5377522595   -2.5827797844
 H   -2.0823885706    0.0130892618   -1.8692879398
 H   -1.8613733794   -0.1274383460   -3.6111471911
 H    2.8038207711   -0.6461577881    0.7161269299
 H    3.5496670600   -1.4333494137   -0.6695815811
 H    4.0440266278    0.2182090754   -0.2410938365