17

 C   -0.1822991344    1.6246954642   -0.2405200320
 C   -0.0613614199    0.1478066353   -0.0197607700
 C    0.5176857574   -0.9706369789   -0.8109008264
 C    1.5489813107   -1.3177953707    0.3405863835
 C    0.5010733923   -0.6174933106    1.1883029507
 C   -0.4474743494   -1.3208018647    1.8487012121
 C   -1.5768863266   -1.5188802600    0.8694675431
 O   -2.5920854018   -2.1562300600    1.0088080187
 C   -1.0253925010   -0.9431108193   -0.4210581708
 H    0.7855213757    2.1254931013   -0.1299035659
 H   -0.5559795030    1.8335429429   -1.2475124574
 H   -0.8771422085    2.0727307748    0.4773590357
 H    0.7765316760   -0.9838127628   -1.8673194978
 H    1.7765572302   -2.3577570552    0.5878319198
 H    2.4665851771   -0.7602679450    0.1263377110
 H   -0.2436457029   -2.1108068193    2.5650427535
 H   -1.6863320819   -0.8227410520   -1.2753897578