17

 C    0.0161919973    1.4693162485    0.0025246089
 C   -0.2076504200    0.0130037384    0.3585094537
 O    1.0641001234   -0.5445125266    0.7553194514
 C    1.0370742661   -1.8228795526    1.1472833873
 C    1.3588286424   -2.4458678170    2.3118485855
 N    1.8369976409   -1.9172843488    3.5094731909
 N    1.2312354398   -3.8165096140    2.1341452427
 C    0.8501332090   -3.9519924692    0.9046698743
 O    0.7166508164   -2.7997348454    0.2197606352
 H    0.7354975860    1.5576173429   -0.8161583376
 H   -0.9260919283    1.9275209493   -0.3117762677
 H    0.4028301102    2.0242014384    0.8619203417
 H   -0.9187747891   -0.0980169092    1.1878704618
 H   -0.5935455583   -0.5512389046   -0.4983956004
 H    1.5909888288   -0.9446874905    3.6357859969
 H    1.5430411549   -2.4702139860    4.3042722579
 H    0.6228618805   -4.8644844434    0.3766128575