18

 C   -0.0034383210    1.4400941747    0.0354403888
 C   -0.0254818562   -0.0581197104   -0.0280076406
 C   -1.2423512775   -0.9623810581   -0.2638130481
 C   -0.3368806427   -2.1403044583    0.2062065012
 C    0.5996201546   -1.0581645039    0.8984535749
 C    1.2165127675   -0.8620106328   -0.4948960996
 C    0.7226178599   -2.2026265118   -0.8846347711
 N    1.1884465893   -3.0664537182   -1.6846319018
 O    0.4454104035   -4.2726750141   -1.6078526305
 H    0.9741619698    1.8103433029    0.3617117404
 H   -0.2169776481    1.8815456100   -0.9444904538
 H   -0.7536406740    1.8122874268    0.7421076320
 H   -2.0330184852   -0.7467479537    0.4615109386
 H   -1.6665203850   -1.0290744943   -1.2718379402
 H   -0.7414840471   -3.0433115900    0.6511465124
 H    1.0674826276   -0.9995355537    1.8701505727
 H    2.1435157107   -0.3717352095   -0.7572543553
 H    0.9133355940   -4.8293118356   -2.2384657897