20

 C    0.0446317922    1.5358309200    0.1372368062
 C    1.5721914597    1.4431328638   -0.1212541283
 N    1.8400613020    0.8965278215   -1.4464693351
 C    1.4652960994   -0.0434710657   -0.3809516583
 C    2.1796560024   -1.3345767024   -0.1064113770
 C    1.2348145262   -2.4618981723   -0.5885138425
 C   -0.1582910460   -2.4226353328    0.0810070694
 C   -0.7564118732   -1.0329615943    0.1754225722
 C    0.0066810654    0.0208110130   -0.0860404255
 H   -0.2247868066    1.8175993308    1.1597543837
 H   -0.5040109246    2.1808764579   -0.5585873278
 H    2.3490428081    2.0176523835    0.3700032907
 H    1.0800075184    1.0766496967   -2.1017746988
 H    3.1431861495   -1.3805641283   -0.6205206314
 H    2.3661954856   -1.4426719278    0.9695529160
 H    1.1091316510   -2.3606893646   -1.6735604533
 H    1.6932020818   -3.4409095991   -0.4154090052
 H   -0.8366824777   -3.0902818378   -0.4659418673
 H   -0.0948015649   -2.8460100646    1.0953478471
 H   -1.7852997986   -0.9395065176    0.5147803352