13

 N   -0.0394575499    1.1728609445   -0.4587689478
 C    0.0420584391   -0.0066113573   -0.0436735435
 N    0.9593018973   -0.8640860735    0.5313218760
 C    0.1244641466   -2.0637704459    0.4728348368
 C   -1.0516057993   -1.1330281856   -0.0287369033
 C   -2.1116756076   -0.9221108843    0.9506860483
 N   -2.9261950631   -0.7642408556    1.7536225746
 C   -1.5749155956   -1.4733193306   -1.3461199273
 N   -1.9521279995   -1.7651816030   -2.3975569726
 H    0.8338238533    1.6930149829   -0.3755602322
 H    1.9658676516   -0.8039905322    0.5096244559
 H    0.4199848972   -2.8035468127   -0.2759299214
 H   -0.0570453001   -2.5424463268    1.4372038564