17

 N   -0.0876565241    1.4721029926    0.0722896794
 C    0.0146492074    0.0040410963    0.0089224638
 C   -1.4291389412   -0.5592102922    0.0038093921
 O   -1.4524716352   -1.9341008247   -0.2849574196
 C   -1.0123789693   -2.2293909954   -1.5962891882
 C    0.2397701947   -1.4924399105   -1.9751126329
 C    0.7375099559   -0.5105515657   -1.2286620988
 C    0.7325833109   -0.4496199705    1.2144045291
 N    1.3194701033   -0.8026629101    2.1450470512
 H    0.8279927379    1.8801456594    0.2384334512
 H   -0.4001855618    1.8127568553   -0.8335666448
 H   -1.8925504279   -0.4212103470    0.9816910773
 H   -2.0030621517    0.0190312735   -0.7390749834
 H   -0.8413470509   -3.3112899177   -1.6263446733
 H   -1.8101319808   -2.0112304929   -2.3304175086
 H    0.7288292431   -1.7985103588   -2.8961449841
 H    1.6636471397   -0.0054626015   -1.4887651501