13

 O    0.1260565204    1.3068132072   -0.0120470127
 C    0.0851982844   -0.0412500547   -0.0353677579
 C   -0.0284593403   -0.6969491129   -1.2606583866
 C   -0.0664285810   -2.0860668867   -1.2310761826
 C    0.0070259174   -2.7704102689   -0.0235013636
 C    0.1187218429   -2.0006744213    1.1337513776
 O    0.1932472516   -2.6189193020    2.3302912485
 N    0.1575955780   -0.6690515134    1.1373958721
 H    0.2051792457    1.5599594711    0.9174524121
 H   -0.0829064185   -0.1280332563   -2.1788601270
 H   -0.1542152701   -2.6413470780   -2.1592050172
 H   -0.0192070187   -3.8496620248    0.0417032657
 H    0.2647495782   -1.9192579694    2.9933706415