18

 C   -0.2336512028    1.4620099410    0.0089877567
 C    0.0235747797   -0.0239311820    0.0308097328
 O   -1.1713573590   -0.7963790093    0.3325377235
 C   -0.4803872369   -1.5432319448    1.3553481999
 C    0.8148964043   -0.7293292342    1.1605798624
 C    1.9956552015   -1.4546400179    0.4940972004
 N    1.6528336438   -1.4164109959   -0.9187905345
 C    0.6585154281   -0.5453996543   -1.2754925083
 O    0.3278458933   -0.2547222061   -2.4034835673
 H    0.7050046318    2.0176441207   -0.0901776080
 H   -0.8614839689    1.7034893632   -0.8533246133
 H   -0.7402751200    1.7780307627    0.9245707534
 H   -0.9687134171   -1.4387965161    2.3308358616
 H   -0.3999115975   -2.6095494382    1.1071035479
 H    1.1164603676   -0.1226486584    2.0137235315
 H    2.9450569721   -0.9386831254    0.6920653081
 H    2.0980125459   -2.4854826783    0.8538388619
 H    2.2267920441   -1.8392309467   -1.6317515288