16

 C   -0.0652503065    1.5205716202    0.1103185344
 O    0.0421218515    0.0951352871    0.1249076156
 C   -1.1201774133   -0.5888087924    0.1137075075
 C   -0.8124109644   -2.0893715692    0.1003041923
 C   -1.0459798680   -2.6943997089   -1.2087658839
 N   -1.2385324244   -3.1709206964   -2.2435031365
 N   -2.2386673926   -0.0087949221    0.1190264905
 C   -3.4842583663   -0.7428788657    0.0803850028
 H    0.9603574395    1.8909907665    0.1100494512
 H   -0.5986563931    1.8576172797   -0.7823763296
 H   -0.6047916604    1.8772454477    0.9917551935
 H    0.2344946678   -2.2292314582    0.3789301874
 H   -1.4293311334   -2.6055725217    0.8421863009
 H   -3.3936705305   -1.8342949013    0.1688296911
 H   -4.1349844917   -0.3866622943    0.8862449965
 H   -3.9996278241   -0.5301869912   -0.8631236435