18

 C    0.0717105915    1.3205838272   -0.1710559779
 N    0.0543441037   -0.0793600882    0.1987045119
 C   -1.0184807320   -0.7068966167    0.0335983095
 O   -1.0830344071   -2.0279694866    0.3619460097
 C   -2.3103425531   -2.6582440530    0.1656031175
 C   -2.6515402644   -3.1707812338   -1.2332062249
 C   -2.2196455141   -4.1294220752   -0.1702443252
 C   -3.4389752291   -2.2083430210    1.0224051825
 O   -3.3960164106   -1.2691834162    1.7742172674
 H    0.8574953332    1.4935574528   -0.9151409499
 H   -0.8826142943    1.6891617989   -0.5810294683
 H    0.3246831338    1.9265749901    0.7060535941
 H   -1.9490332087   -0.2940100682   -0.3758753275
 H   -3.6902070698   -3.1604479308   -1.5453648632
 H   -1.9350210423   -2.9069154066   -2.0019082644
 H   -1.2093860717   -4.5177061874   -0.2122674801
 H   -2.9547596791   -4.7950573625    0.2681919008
 H   -4.3598587459   -2.8238472027    0.8988476680