17

 C   -0.1559503479    1.4819965800   -0.0523914336
 N    0.1058685848    0.0506503645    0.0432347797
 C    1.4265811924   -0.5065702186   -0.1542426184
 C    2.5541635338    0.3371273490    0.4106642843
 C    3.2066887476   -0.3966575536    1.5655987555
 C    1.8808461019    0.2911163244    1.7794110948
 O    1.7339111359    1.3640208376    2.6448567390
 C    0.7446152852   -0.5409845870    1.2031817012
 H    0.6263355046    2.1212074714    0.3747301560
 H   -0.2854471568    1.7405784927   -1.1083789866
 H   -1.0943266631    1.6984148334    0.4672889466
 H    1.5423769128   -1.3281507013   -0.8531743102
 H    3.0284142832    1.1889248234   -0.0608255957
 H    3.2841040394   -1.4809120231    1.5548393944
 H    4.0547128242    0.1152236981    2.0128729376
 H    1.8291136867    1.0424791845    3.5476710417
 H    0.2511437153   -1.3748774455    1.6923827439