14

 N   -0.0758889002    1.3374041555    0.0081090490
 C   -0.0375923638    0.0585612009    0.0013180371
 C   -1.2919327791   -0.6736544367    0.0048557779
 C   -1.5049611848   -2.0043918936   -0.0006852878
 C   -0.5498260940   -3.0851065952   -0.0116773764
 N    0.7390179636   -3.0966012304   -0.0192000149
 N    1.5042790236   -1.9849153299   -0.0179924996
 C    1.3297935093   -0.6075981243   -0.0101501087
 O    2.3297978764    0.0837046201   -0.0127921264
 H    0.8888298804    1.6878782666    0.0041828889
 H   -2.1530108154   -0.0123112029    0.0131979061
 H   -2.5399801480   -2.3353717683    0.0036143581
 H   -0.9716766701   -4.0874266355   -0.0142882394
 H    2.4906944621   -2.2144205064   -0.0249662639