17

 C   -0.0309467777    1.3834149186    0.0094230400
 O   -0.0065779875   -0.0237841309   -0.0108887444
 C    0.6466570241   -0.5464076981   -1.1450377436
 C    0.5807308663   -2.0810857210   -1.0707468088
 C   -0.8738702741   -2.5889227392   -1.0906141142
 C    1.3720981203   -2.6638663866   -2.1515896702
 C    2.0104615728   -3.1282128419   -3.0583558886
 H    0.9847751480    1.8093552240    0.0204988323
 H   -0.5650509866    1.7953639479   -0.8613266674
 H   -0.5515943228    1.6885784761    0.9202961784
 H    0.1634462148   -0.1965793966   -2.0729379334
 H    1.6974059140   -0.2171508784   -1.1763050560
 H    1.0333756987   -2.3676855332   -0.1119523209
 H   -1.3532068921   -2.3403508386   -2.0426409683
 H   -0.9066279311   -3.6742347458   -0.9675779749
 H   -1.4376806728   -2.1197374769   -0.2819242347
 H    2.5797873554   -3.5480982094   -3.8501485052