16

 C   -0.0996942816    1.3573854204   -0.0256710683
 N   -0.0553951558   -0.0849794504    0.0404223824
 N   -0.1365441440   -0.8081314157   -1.0973279090
 C   -0.0738466036   -2.0832737627   -0.7085777200
 N   -0.2051459470   -3.1138851434   -1.6368634531
 C    0.0608038133   -2.1929920636    0.6898499839
 C    0.0720986173   -0.8790084108    1.1435467168
 C    0.1810827151   -0.3662162069    2.4532389040
 C    0.2754033042    0.0691546997    3.5727828636
 H   -0.0117351901    1.7544525058    0.9858253751
 H    0.7242302933    1.7333491798   -0.6391128081
 H   -1.0450254789    1.6863806902   -0.4667387683
 H   -0.0510980802   -2.7868853276   -2.5819463718
 H    0.3789880643   -3.9136975497   -1.4357298703
 H    0.1275478032   -3.0820164434    1.2943007484
 H    0.3579954504    0.4465529681    4.5618707447