22

 C    0.0945576269    1.5990472285   -0.0884155114
 C    0.0265944528    0.0708431376   -0.0126498969
 C   -1.4015173514   -0.4920101340    0.0765083793
 C   -1.4610406851   -2.0415394688    0.0122796949
 C   -2.6249912045   -2.4785061921    0.9402823194
 C   -2.3703889666   -3.7914654018    1.6887518624
 C   -2.7878745244   -1.2659979895    1.8324413971
 C   -2.1345059645   -0.2017985528    1.3709591218
 H    1.1295483192    1.9447835643   -0.1740704274
 H   -0.4546059165    1.9764135605   -0.9584712166
 H   -0.3354405764    2.0692654898    0.8021197890
 H    0.5132403104   -0.3551293952   -0.8998828803
 H    0.6016337158   -0.2850442638    0.8523986742
 H   -1.9766875794   -0.0624509711   -0.7603562655
 H   -1.5653532820   -2.4194431926   -1.0088349579
 H   -0.5218346200   -2.4462123701    0.4113239547
 H   -3.5444713086   -2.6053252701    0.3470016352
 H   -1.4717468259   -3.7171979782    2.3112279101
 H   -3.2113836765   -4.0473505229    2.3424321847
 H   -2.2281826251   -4.6225768867    0.9895910282
 H   -3.4058854017   -1.2843713845    2.7249822460
 H   -2.1440108165    0.7810304834    1.8301942590