20

 C    0.1581636529    1.5598711874   -0.0518349744
 C    0.0282525181    0.0338628894   -0.0378920824
 C   -1.4515670784   -0.3967118942    0.0354672185
 C    0.7239750807   -0.6588114467   -1.1985509878
 N    2.1901253339   -0.4968338281   -1.1758513386
 C    1.5932366745   -1.7641613524   -0.7049702545
 C    1.5275583012   -1.8280529629    0.8027672138
 C    0.7494262931   -0.5620821609    1.1995034522
 O    0.6805070294   -0.1080534122    2.3112594411
 H    1.1992713898    1.8514029891   -0.2113195877
 H   -0.4524068525    1.9963524013   -0.8495087820
 H   -0.1736787537    1.9705638309    0.9057236087
 H   -1.9999935021   -0.0200222969   -0.8347209260
 H   -1.5587331314   -1.4868096027    0.0526459303
 H   -1.9198757107    0.0063847755    0.9375534497
 H    0.2162196237   -0.7271313125   -2.1563333036
 H    2.5660716528   -0.6174278441   -2.1126016078
 H    1.7453057949   -2.6669621297   -1.2866985217
 H    0.9711670628   -2.7082857383    1.1491381597
 H    2.5044482311   -1.8377549921    1.2928954026