13

 C   -0.0335651437    1.4526603536    0.0100988986
 C    0.0158992012    0.0025764812    0.0024512396
 C    0.0554567424   -1.2024678866   -0.0040466934
 C    0.0868378578   -2.6219872983   -0.0116828687
 N    1.2707330527   -3.2477003419   -0.0219599238
 C    1.1600686516   -4.5682365998   -0.0282618957
 N    0.0186845530   -5.2633637422   -0.0251708582
 N   -1.1142294038   -4.5738885062   -0.0148634399
 N   -1.1082204481   -3.2606975180   -0.0080104724
 H    0.9719602248    1.8847993582    0.0025474793
 H   -0.5735660010    1.8255017816   -0.8669266851
 H   -0.5563779115    1.8166288972    0.9011623889
 H    2.0760447545   -5.1536992788   -0.0366787892