19

 C   -0.0211147091    1.4582797730   -0.0249724744
 C   -0.0154276549   -0.0346424650    0.0026814568
 O    1.0286225924   -0.6694679431   -0.7233174240
 C    0.6908036210   -2.0453988228   -0.4771528515
 C    0.6037420231   -2.1049760995    1.0681941582
 C   -0.3477097920   -0.9239770740    1.1967487145
 C   -1.2286748183   -0.9260987107   -0.0648444269
 O   -2.4984479470   -0.3733288576   -0.1139670156
 C   -0.7898708092   -2.1185990886   -0.9091560371
 H    0.8544367945    1.8693013769    0.4873736072
 H   -0.0167337101    1.8218101599   -1.0574556241
 H   -0.9238667007    1.8336832535    0.4629254334
 H    1.4043562524   -2.6968562681   -0.9773755052
 H    0.1909944175   -3.0511987156    1.4308086442
 H    1.5752091848   -1.9294741486    1.5389754583
 H   -0.6929950189   -0.5113963313    2.1356989683
 H   -3.0958756099   -0.9394455299    0.3870192024
 H   -0.9224824865   -1.9416861363   -1.9799353755
 H   -1.2677064092   -3.0628860222   -0.6290784991