18

 O    0.0408920742    1.3995751713   -0.1742251090
 C    0.1506477105    0.0104689516    0.0932502828
 C   -1.2256075583   -0.6335043619    0.0869365231
 N   -1.9438708320   -0.5999945736   -1.2351430342
 C   -1.6078979755   -1.9161904521   -1.9075118871
 C   -0.6886542080   -2.7433359275   -1.0123996544
 C   -1.4941290457   -2.1516860411    0.1630717020
 O   -1.5100431881   -2.8707547711    1.3387259425
 C   -2.6731039983   -1.8453611807   -0.8848545369
 H   -0.5047231958    1.4820018037   -0.9656184004
 H    0.8161209672   -0.4791794247   -0.6322039154
 H    0.6119839479   -0.0862745659    1.0824654614
 H   -1.8672317302   -0.0939023629    0.7962189328
 H   -1.6951824414   -1.9302549436   -2.9853699882
 H   -0.9102388376   -3.8080109975   -1.1213725123
 H    0.3928246513   -2.5842769125   -1.0362648194
 H   -1.9794426350   -2.3601592020    2.0077412172
 H   -3.7489586352   -1.9609139996   -0.9083890645