18

 C    0.0691848107    1.5340504022    0.0143049956
 C    0.0454222415    0.0306566444   -0.0155209421
 C   -0.0414407473   -0.6720755064   -1.1752409150
 N   -0.1704355926   -2.0282066179   -1.2719859486
 C    0.0587244358   -2.8712407057   -0.1382316030
 C    1.3707371104   -2.8214781839    0.5967873872
 C    0.1360518145   -2.1789643372    1.2083661399
 C    0.0273213652   -0.6791345150    1.2615917848
 O   -0.0942465621   -0.1112182489    2.3376392030
 H    0.9785597141    1.9102926064    0.4960439924
 H    0.0164524745    1.9542874096   -0.9945685635
 H   -0.7705499739    1.9249427369    0.5985733340
 H   -0.0606253748   -0.1558153613   -2.1315682619
 H   -0.0189280489   -2.4403655122   -2.1784794207
 H   -0.4609170591   -3.8217141170   -0.2006480147
 H    1.7317602244   -3.7362130680    1.0519669727
 H    2.1414846547   -2.1612337772    0.2146845143
 H   -0.3001337671   -2.6703589888    2.0703513253