18

 O   -0.0401952387    1.4730260462    0.3238603677
 C    0.0001370257    0.0948698536    0.0463161909
 C    0.3022202083   -0.9105914969    1.2003203331
 N   -0.9196178706   -1.7127833195    0.8505821348
 C   -2.0798209948   -1.4653640851    1.7789173901
 C   -2.5924654574   -0.3131625795    0.8835644274
 O   -3.4708759526   -0.7500295811   -0.1773786773
 C   -2.3768516731   -0.8423155390   -1.1293721880
 C   -1.3680892470   -0.5586269234   -0.0261289511
 H    0.8554891332    1.8219653649    0.2792519468
 H    0.5992358790   -0.1212210214   -0.8495799199
 H    1.2286027631   -1.4874189867    1.1301859431
 H    0.2482989724   -0.4248516574    2.1820018296
 H   -2.7611569892   -2.3181771614    1.8427783538
 H   -1.7724090435   -1.1683456634    2.7880940275
 H   -2.9066332582    0.6343088390    1.3266292116
 H   -2.3083529497   -1.8289448858   -1.6007469317
 H   -2.4514589270   -0.0613300331   -1.8978202386