22

 C    0.0245156765    1.5349372094   -0.0351546768
 C   -0.0138830658    0.0042869069    0.0597962538
 C    0.7668454426   -0.5184455239    1.2724638524
 N   -1.3882889693   -0.4952148562    0.0556360165
 C   -2.3501344500   -0.2406633658    1.0025729346
 C   -3.5047104201   -0.8915090352    0.6340354616
 C   -3.2467526522   -1.5758999672   -0.5896630949
 C   -4.2043466925   -2.4207131808   -1.3756770085
 C   -1.9344201089   -1.3068005547   -0.9116685111
 H    1.0584929759    1.8849586465   -0.1133875459
 H   -0.5279634835    1.8829751458   -0.9119496991
 H   -0.4202598786    1.9956383783    0.8524461997
 H    0.4438920564   -0.4071252647   -0.8460274310
 H    0.7349567759   -1.6104584433    1.3127510814
 H    1.8130800627   -0.2023410498    1.2157666752
 H    0.3486732867   -0.1309492277    2.2067403722
 H   -2.1375615570    0.3798752633    1.8584012677
 H   -4.4364803386   -0.8806789479    1.1805736478
 H   -5.0835428715   -1.8496904250   -1.6976302446
 H   -3.7288184245   -2.8247252859   -2.2746537792
 H   -4.5748446719   -3.2705693450   -0.7899098487
 H   -1.3408467624   -1.6280465770   -1.7542680732