18

 C   -0.3570934510    1.3983077411    0.0427467232
 C    0.2318228819   -0.0140909508    0.1108130289
 C    0.8171276462   -0.4695012312   -1.2164392040
 C    0.6435272512   -1.8685984039   -1.6594654830
 O   -0.1672249911   -0.8364800742   -2.2099984032
 C    1.9459823582    0.2857566660   -1.7111277508
 C    2.8885802550    0.9326159637   -2.0910639758
 C    4.0250114528    1.7074619711   -2.5663710444
 H    0.4093242487    2.1298249967   -0.2297874228
 H   -1.1526442918    1.4461897288   -0.7066618737
 H   -0.7790002328    1.6902805164    1.0087673836
 H    1.0186101467   -0.0612132243    0.8732118596
 H   -0.5445746396   -0.7304797715    0.3998748202
 H    1.3722138584   -2.3069223986   -2.3391551756
 H    0.1327409143   -2.5713665711   -1.0011753129
 H    4.8344422929    1.0568230581   -2.9151363348
 H    3.7377304293    2.3574750613   -3.4001598714
 H    4.4289689507    2.3453190424   -1.7726841531