14

 O   -0.0474486418    1.4469348700    0.0645846895
 C    0.0167185486    0.0497949595    0.0216926840
 C   -1.4224347256   -0.4674298991   -0.0602653532
 O   -2.3600129289    0.2788372122   -0.1390193176
 N   -1.6119364573   -1.8846172139   -0.0158106216
 C   -2.9721168213   -2.3424216098    0.0502287842
 O   -3.3038115713   -3.4892158532    0.0148202584
 C   -0.5246039302   -2.7910827881   -0.0300379010
 O   -0.6039781887   -3.9729507409    0.1339542444
 H    0.8532693360    1.7845044825    0.0749116043
 H    0.5739264449   -0.3172397175   -0.8562461817
 H    0.4979919509   -0.3814772717    0.9146248984
 H   -3.6538043040   -1.4862307734    0.1295726530
 H    0.4345278886   -2.2841957665   -0.2228767612