19

 C   -0.0491155118    1.6208911890    0.0315889325
 C    0.0224034350    0.0961467289    0.0602707037
 C   -1.3523451471   -0.5272994142   -0.2168223604
 C    1.0724614190   -0.6167676692   -0.8523290094
 O    1.1522688319   -0.6945479546   -2.0487255446
 C    1.7538667679   -1.3010195345    0.2813015462
 C    2.1579217442   -0.2538628165    1.3317511537
 C    0.7303316212   -0.5981816348    1.2517013227
 O    0.0938808330   -1.1013739113    2.3594336696
 H    0.9108654953    2.0852584387    0.2727749867
 H   -0.3415304133    1.9629533346   -0.9664927991
 H   -0.7913581593    1.9930560772    0.7465178605
 H   -1.7182306712   -0.2095228277   -1.1966433114
 H   -1.3119603681   -1.6232241326   -0.2271697767
 H   -2.0818807788   -0.2116649669    0.5379608231
 H    2.2058675174   -2.2853921658    0.2817309535
 H    2.6733889854   -0.6961816295    2.1788313952
 H    2.5454771021    0.7149509053    1.0312625446
 H   -0.6814982129   -1.5962862762    2.0705747196