18

 C    0.0217492728    1.5085822330   -0.0350072376
 C   -0.0567012587   -0.0084778089    0.1552008447
 C    0.8845844342   -0.5250592945    1.2304141363
 C    0.8712602046   -2.0516340245    1.4534851808
 O    2.2517577432   -2.4154406627    1.5908506037
 C    3.0038256633   -1.2301873353    1.5232256401
 O    2.2476741807   -0.2858451171    0.8333383184
 C    3.3381034791   -0.7503806352    2.9022240793
 N    3.6039001007   -0.3766428537    3.9623896192
 H    1.0337726374    1.8118541164   -0.3153288487
 H   -0.6641535538    1.8383368391   -0.8202978560
 H   -0.2444876478    2.0369071058    0.8866664214
 H   -1.0767748245   -0.3023096556    0.4328059149
 H    0.1788515040   -0.5242085919   -0.7834186508
 H    0.7001548215   -0.0037114919    2.1811506974
 H    0.3172294512   -2.3356483815    2.3532823144
 H    0.4607157658   -2.5886391109    0.5915498343
 H    3.9333299864   -1.4159002403    0.9768764882