25

 C   -0.1248657718    1.5590950170   -0.0364619857
 C   -0.0101238460    0.0271091456   -0.0088352956
 C   -1.4322065105   -0.5491004230    0.1144709317
 C    0.7253202152   -0.5360306625   -1.2819467404
 C    1.9413213339   -1.2977551156   -0.7099730078
 C    2.9499890203   -0.2706322373   -0.1399490513
 C    2.2571061874    0.2118990698    1.1747997237
 C    0.8984477912   -0.5230680564    1.1412661743
 C    1.3427676878   -1.8941213533    0.5812068309
 H    0.8300096287    2.0479884173   -0.2474632118
 H   -0.8274142335    1.8729380616   -0.8167239755
 H   -0.4987492610    1.9485827546    0.9178377492
 H   -2.0365041686   -0.2741499956   -0.7574723946
 H   -1.4336272126   -1.6406500739    0.1835738957
 H   -1.9378061197   -0.1580843772    1.0050304566
 H    0.0698810798   -1.2140276851   -1.8394355249
 H    1.0254552762    0.2604297378   -1.9708843316
 H    2.3855702552   -2.0068766116   -1.4118779098
 H    3.9151471918   -0.7413046267    0.0706984031
 H    3.1373496794    0.5472665791   -0.8427516608
 H    2.8251657150   -0.1095951292    2.0535503686
 H    2.1638914242    1.2972206959    1.2396733840
 H    0.3892788698   -0.5391945221    2.1086744530
 H    0.5232040538   -2.5935334538    0.3976610841
 H    2.0847808942   -2.3903460657    1.2152733750