16

 C   -1.0441551683    1.0581798480    0.1512486424
 N   -0.0808785172   -0.0359039936    0.0313505172
 C    0.7530734686   -0.3301807856    1.0894068709
 O    0.7423877189    0.2368710298    2.1573568016
 C    0.0807487043   -0.6899865427   -1.1947751078
 C    1.0911671433   -0.6891429502   -2.1224548581
 N    0.7864159658   -1.5201183444   -3.1734003424
 C   -0.3983400003   -2.0143032602   -2.8964426713
 N   -0.8767940494   -1.5513207084   -1.7085120835
 H   -0.8221854090    1.8446924309   -0.5765661028
 H   -2.0665945982    0.7037061310   -0.0167790664
 H   -0.9614900212    1.4551676889    1.1630702224
 H    1.4393886673   -1.1584096573    0.8367202219
 H    2.0144594626   -0.1312649192   -2.0844712597
 H   -0.9578301828   -2.7011704684   -3.5141063822
 H   -1.7417965745   -1.8057710785   -1.2606565123