19

 C    0.0277136331    1.3021882106    0.2309438270
 O   -0.0069662777   -0.0536639422   -0.1818879435
 C   -1.2990486947   -0.6200254093   -0.1226399100
 C   -1.4127237327   -1.9877580201   -0.7683697457
 C   -0.4412840982   -2.9411406000   -0.1050099651
 C   -1.7030049905   -2.6290499989    0.6179728364
 O   -2.5385116395   -3.6665115728    0.9740155482
 C   -1.6624803053   -1.2503558446    1.2804565907
 O   -0.7842552088   -1.0009102312    2.3464958118
 H    1.0641599186    1.6374894021    0.1448238392
 H   -0.6026206065    1.9301732335   -0.4166715262
 H   -0.3048645321    1.4214109739    1.2699230967
 H   -2.0473674448    0.1000277061   -0.4783980788
 H   -1.8450896040   -2.1935636256   -1.7390021517
 H   -0.4377371684   -3.9372693721   -0.5355045829
 H    0.5309527692   -2.5981223554    0.2355016526
 H   -3.4284037320   -3.3147147168    1.0890832276
 H   -2.6604946235   -0.9455346772    1.6149960171
 H    0.1054247978   -0.9970654599    1.9728769868