21

 C   -1.2996120291   -0.8780841059    0.2853976199
 C    0.0387174062   -0.1623057145    0.0815685891
 C    0.8358947216   -0.6735771136   -1.0922284744
 C    1.1295559637   -2.1793389565   -1.4129883240
 C    1.2327698571   -1.5044530393   -2.8087729934
 O    0.1462794183   -0.6104521657   -2.3948528975
 C    2.4646691279   -0.6035334771   -2.6292771071
 C    2.2073960565   -0.0259610650   -1.4527113677
 C    2.9557194377    0.9673813261   -0.6356459705
 H   -1.8931632589   -0.8441411855   -0.6317849384
 H   -1.1539236157   -1.9294482481    0.5531267710
 H   -1.8743588757   -0.4069197295    1.0880045208
 H   -0.1367747179    0.9101185775   -0.0735939052
 H    0.6581805166   -0.2457846473    0.9837822536
 H    2.0215596396   -2.6438394533   -0.9865976141
 H    0.2462227142   -2.8146344839   -1.3123251414
 H    1.0594203552   -2.0226825679   -3.7508204798
 H    3.3050800467   -0.4920264700   -3.2992967445
 H    3.8901073064    1.2587150044   -1.1234327132
 H    2.3648256102    1.8765284157   -0.4664224817
 H    3.2034702092    0.5692315696    0.3569119086