16

 C   -0.0251496532    1.5106045619    0.0350782368
 C    0.0341689484    0.0061696243    0.0282398623
 C    0.5308149681   -0.9696327533   -1.0661838298
 N    0.0661207607   -1.9497019511    0.0274412767
 C    0.7563541738   -0.9664992152    0.9950841072
 C   -1.1529302703   -1.0047159136    0.1343832863
 C   -1.9369285196   -1.0789310380    1.3587628886
 N   -2.5789614840   -1.1055819434    2.3200292485
 H    0.9793963184    1.9375665565   -0.0514280479
 H   -0.6248902000    1.8849820433   -0.8010957181
 H   -0.4711652148    1.8783294486    0.9647901728
 H   -0.0398741625   -1.0454819059   -1.9962065440
 H    1.6058576274   -1.0193906787   -1.2519045770
 H    1.8466331457   -1.0135484429    0.9446993973
 H    0.4014904195   -1.0401113005    2.0251363624
 H   -1.8168827774   -1.0792085521   -0.7315936521