22

 C   -0.2960675559    1.3539187715    0.2492862264
 C   -0.0358725080   -0.1256633390   -0.0425112979
 C    0.8168348504   -0.3668330080   -1.3093905460
 C    1.1747012999   -1.8497049139   -1.5261712699
 C    0.0177126684   -2.3475254416   -2.4016417777
 O   -0.4113427931   -1.2045091511   -3.1562342675
 C    0.0496727419   -0.0466925115   -2.5810282569
 N   -0.1485821042    1.1050150530   -3.0548666953
 C   -0.9227756290    1.2319505392   -4.2820166121
 H    0.6432877179    1.8826573489    0.4453218141
 H   -0.7749508066    1.8427748048   -0.6021503303
 H   -0.9360935061    1.4703874410    1.1293958393
 H    0.4872227238   -0.5832965386    0.8066443035
 H   -0.9901525597   -0.6604483911   -0.1376248975
 H    1.7061184447    0.2660225665   -1.2575588064
 H    2.1202095916   -1.9394446854   -2.0694442878
 H    1.2645583413   -2.4133712261   -0.5944930815
 H    0.3037004727   -3.1304359657   -3.1084922703
 H   -0.8259418692   -2.7128886867   -1.8031072787
 H   -0.7502930112    0.4111079900   -4.9889409438
 H   -1.9977594396    1.2540114985   -4.0599179548
 H   -0.6685164700    2.1786605754   -4.7667501390