21

 O   -0.0783808861    1.4416081395    0.0131777568
 C   -0.0169746213    0.0214356043   -0.0432357486
 C   -1.4235585812   -0.5041158753   -0.0184139566
 C   -2.5491302070   -0.2366932240   -1.0472555393
 C   -3.1844720827   -1.1586488673    0.0188117907
 C   -1.8702589898   -2.0037378868    0.0551548901
 C   -1.6521534812   -2.5278438942    1.4759629465
 C   -2.0957178805   -1.2754388736    2.2881414449
 C   -2.4690536995   -0.3384440216    1.1388174165
 H    0.8210866562    1.7811455776   -0.0099728189
 H    0.4880204172   -0.3209140349   -0.9618620620
 H    0.5487145501   -0.3873029371    0.8109762435
 H   -2.9235315432    0.7884751020   -1.1042719512
 H   -2.4102514978   -0.6619784876   -2.0464312067
 H   -4.2047774853   -1.5466799889    0.0484255622
 H   -1.6432989114   -2.6600784765   -0.7887067627
 H   -2.2681394325   -3.4080580752    1.6866524067
 H   -0.6105666108   -2.8085938066    1.6634867727
 H   -2.9449443301   -1.4793469793    2.9481730350
 H   -1.2915489971   -0.8679028252    2.9095771531
 H   -2.8296265360    0.6648470010    1.3711589973