17

 C    0.0532119332    1.5242271542   -0.2867320058
 C    0.0109695076    0.0822897338   -0.0971150518
 C   -0.0322862131   -1.1093476894    0.0671302856
 C   -0.0795521488   -2.5493158270    0.2483144767
 N   -0.0567570561   -3.0432509195    1.6705177381
 C   -1.2025003949   -3.9668159251    1.4277134128
 C   -1.4081671436   -3.2861446790    0.0954856858
 N   -2.2819428510   -3.2376572551   -0.8124918177
 O   -3.3575788163   -4.0947941715   -0.5221176275
 H    0.9640149704    1.8336400224   -0.8110731826
 H   -0.8037138486    1.8698626453   -0.8753701377
 H    0.0275814380    2.0489155797    0.6746532737
 H    0.6895303050   -3.0252515194   -0.3804270608
 H    0.8093546058   -3.5109243018    1.9132136768
 H   -0.9487234128   -5.0315971043    1.3304633771
 H   -2.0176441420   -3.8692277188    2.1523909165
 H   -3.9467291730   -3.9409388145   -1.2686276393