13

 N    0.0659968355    1.4203031641   -0.1364609734
 C   -0.0860163019    0.0543043075   -0.0557987488
 C   -1.1236528225   -0.8152931670   -0.0609332040
 O   -2.4936742634   -0.9332745644   -0.0262171897
 C   -2.6999132587   -2.3390345333   -0.2484985905
 O   -1.4622274712   -3.0474479601    0.0062940893
 C   -0.5241122774   -2.0747745665   -0.0241017112
 N    0.7765629328   -2.0871377318   -0.0049855720
 O    1.0645024554   -0.6778918998   -0.0244883618
 H    0.9461036353    1.7429118266    0.2436771529
 H   -0.7171064597    1.9421360006    0.2307770168
 H   -3.4629531578   -2.7040405651    0.4414999596
 H   -2.9875204464   -2.5086497508   -1.2946586372