17

 O   -0.0193909624    1.4580645482   -0.1884963050
 C   -0.0279260677    0.0732331028   -0.1941059697
 C   -0.0755672539   -0.6668553313    1.1771857699
 O   -1.4577354311   -0.1242830840    1.3398582413
 C   -1.4027299751   -0.6517422805   -0.0534313573
 C   -0.7026531097   -1.9137232678    0.5087981128
 C    0.0954397048   -2.8868434540   -0.3668002674
 C    0.9633529027   -3.7462468591    0.4316329137
 C    1.6694621770   -4.4376917027    1.1153040856
 H   -0.6533240386    1.7088355115    0.4999395370
 H    0.6755299525   -0.2697431817   -0.9529777033
 H    0.5900963634   -0.5985549043    2.0375027377
 H   -2.3094024611   -0.5626146049   -0.6533601808
 H   -1.3478792028   -2.4471696665    1.2088197259
 H   -0.6123887843   -3.5069629371   -0.9322640234
 H    0.6958062962   -2.3590428421   -1.1151522820
 H    2.2971113800   -5.0559502765    1.7080281751