17

 O   -0.1631774641    1.5074062640   -0.0914273510
 C    0.0464825491    0.0971647083   -0.1271320440
 C   -1.3792550553   -0.4956822769   -0.0793426977
 O   -1.7021522617   -1.5504799596   -0.5443255472
 C    0.7514191482   -0.3137359052   -1.3422542569
 C    1.3418728810   -0.6163887708   -2.3439985111
 C    0.7493104091   -0.3610009750    1.1530363336
 C    1.5006041602   -1.6597474167    1.2404199351
 C    2.2577538481   -0.3564742648    1.2617575087
 H    0.6968316539    1.9204490470    0.0461501870
 H   -2.0773449165    0.1644611601    0.4798120842
 H    1.8463261314   -0.8890564404   -3.2384550799
 H    0.2007235975   -0.0471810498    2.0368201230
 H    1.4151524538   -2.2290146188    2.1587664286
 H    1.5696005641   -2.2583776853    0.3397388450
 H    2.8263403273   -0.1019723203    0.3740389734
 H    2.6936269140   -0.0190086058    2.1952246390