17

 C   -0.2190314442   -1.3297978821   -0.3558093280
 C   -0.1086953400   -0.1487301048   -0.1647075807
 C    0.0458288581    1.2838149259    0.0972114464
 C   -0.4850788124    1.6892213710    1.5278111897
 C    0.5148864896    2.7159180315    1.9916139433
 C    1.6111657907    2.7353741878    1.2384347075
 C    1.5614498709    1.7255419125    0.1217803493
 C   -0.6701176329    2.0578495734   -0.9248798588
 C   -1.2501142775    2.7076668128   -1.7523058471
 H   -0.3241213348   -2.3710097418   -0.5356637569
 H   -1.5110057868    2.0625181056    1.4702065434
 H   -0.4954672413    0.8130451808    2.1874693208
 H    0.3439400911    3.3300895900    2.8683956138
 H    2.4758902434    3.3679262091    1.4036771792
 H    2.2019282182    0.8609170567    0.3342723512
 H    1.8663756345    2.1224581005   -0.8501624141
 H   -1.7660746366    3.2725143012   -2.4887184791