20

 C   -0.2793064004    1.5436994765    0.1493175711
 C   -0.0026284103    0.0535145733    0.0615468362
 C   -1.1582561641   -0.7455771371   -0.5136811550
 O    1.2278961195   -0.1861410013   -0.7422612447
 C    1.8828702166   -0.7492301007    0.3331177086
 N    3.0406645459   -1.2245983115    0.4392176584
 C    0.7333671225   -0.5754736852    1.2577461492
 C    0.7826607974   -0.1789163002    2.7057467704
 C    0.2619575140   -1.5347870290    2.3131470347
 H    0.5916660191    2.0778899957    0.5367653170
 H   -0.5245174270    1.9461502145   -0.8384374930
 H   -1.1281250649    1.7369526984    0.8139164285
 H   -1.4173112993   -0.3792773757   -1.5119152842
 H   -0.8989672057   -1.8045267291   -0.5875856985
 H   -2.0444011785   -0.6494770508    0.1227489426
 H    3.5510910680   -1.1651736067   -0.4427568703
 H    1.7649994069   -0.1146651567    3.1604824198
 H    0.0687911966    0.5634019397    3.0474992109
 H   -0.8056705394   -1.7136273947    2.3881588884
 H    0.8867603229   -2.4015274394    2.4983072499