16

 O   -0.1013012130   -0.0265432178   -0.1809990519
 C   -0.0081310526    1.1876938121   -0.1637185822
 C    1.2276346519    1.9142536079   -0.0266096753
 C    1.3577481315    3.2600369965    0.0106542966
 N    2.6482155661    3.6747820423    0.2228225743
 C    3.5599657646    2.5159307133    0.0246891022
 C    2.5957960194    1.2872843785    0.1495283250
 C    4.2436098945    2.5930381937   -1.2654955197
 C    4.8090016228    2.6758878501   -2.3229659589
 H   -0.9119342883    1.8327977051   -0.2639150011
 H    0.5681169330    3.9980216132   -0.0670273431
 H    2.9475819154    4.5673551672   -0.1423542429
 H    4.3095812803    2.5079977241    0.8218245451
 H    2.6955283289    0.8225520851    1.1364096940
 H    2.8144570029    0.5202493249   -0.5952473414
 H    5.3077828127    2.7364960138   -3.2590159705