17

 C   -0.0966313312    1.5616945107   -0.0222407087
 C    0.0481472289    0.0344886968   -0.0395658747
 C    0.8705888763   -0.5465544596   -1.2184419797
 C    1.5189116459   -1.8177558233   -0.6358070115
 N    1.6588864511   -1.4725688924    0.7696575046
 C    0.8554808136   -0.4639856765    1.2062141172
 O    0.7720101606   -0.0187281135    2.3251111407
 C   -1.2718488253   -0.6066311416    0.0092779075
 N   -2.3062300814   -1.1231963412    0.0250752410
 H    0.8905469799    2.0264123552   -0.0954095105
 H   -0.7126974631    1.9070583368   -0.8559913642
 H   -0.5547665575    1.8766288437    0.9174026917
 H    0.2684883766   -0.7483956786   -2.1049572800
 H    1.6474519178    0.1765356377   -1.4832715958
 H    0.8770206506   -2.6976035518   -0.7745484192
 H    2.4904663589   -2.0295563216   -1.0907545975
 H    2.1885451783   -2.0194164710    1.4300412089