16

 N   -0.1467265111    1.4758410849    0.1833647397
 C   -0.0628967655    0.0780384205    0.0542893117
 C   -1.1044857942   -0.8137257300   -0.0496149025
 N   -0.5609039006   -2.0957585336   -0.0237436798
 C    0.8024496057   -2.0002879769    0.0485270800
 N    1.5794125916   -3.1632360940    0.0522094890
 C    2.9457370244   -3.2173976171   -0.0029573140
 O    3.6878058030   -2.2644378728   -0.0812732988
 C    1.1531197714   -0.6712246880    0.1138471670
 H    0.6523453110    1.9432440486   -0.2257234504
 H   -0.9914517751    1.8552916554   -0.2247233288
 H   -2.1700264345   -0.6647113648   -0.0971032390
 H   -1.0711642680   -2.9288283002   -0.2577552200
 H    1.0985786798   -4.0423690201    0.1659374358
 H    3.2998941700   -4.2660367552    0.0334269037
 H    2.1560342021   -0.2947277467    0.2121562464