16

 N    0.0531331460    1.4055233766    0.0726104990
 C   -0.0120387938    0.0307382325    0.0170933902
 C   -1.2121692202   -0.6553519698    0.0231837413
 N   -2.4187902265    0.1226041225    0.0070130225
 C   -1.1521521810   -2.0699483983    0.0193147620
 C    0.0237869824   -2.7683351509   -0.0015938914
 C    1.2927677759   -2.0841360710    0.0011471274
 O    2.4141669096   -2.5677471172   -0.0008407140
 N    1.1545834454   -0.6703018866    0.0139244143
 H    0.8097887282    1.8367401236   -0.4396088035
 H   -0.8548104938    1.8133442662   -0.1201692682
 H   -2.8923549888    0.1066095574    0.9060161475
 H   -3.0776341228   -0.2304632984   -0.6793066207
 H   -2.0943345351   -2.6139121076    0.0216423557
 H    0.0527407464   -3.8498143953   -0.0109637464
 H    2.0372415281   -0.1794442338    0.0645222144