19

 C    0.0836766568    1.4151379845   -0.2683050962
 C   -0.1361054696   -0.0761117249   -0.0107086852
 C   -1.6152472688   -0.4811502164    0.1633596660
 C   -2.4236467605   -0.4393386231   -1.1916932507
 C   -2.3531713355   -1.9713395527   -1.2287977780
 O   -2.6010498482   -2.7896501274   -2.0645567075
 C   -1.7906227877   -2.0475286981    0.1963176536
 C   -2.2447603163    0.2171606929    1.2718090765
 C   -2.7694816246    0.7867742577    2.1923972936
 H    1.1497185924    1.6337500313   -0.3800815600
 H   -0.4196425400    1.7447887577   -1.1835722437
 H   -0.3030355906    2.0154197930    0.5599541265
 H    0.2781208236   -0.6640843714   -0.8402345215
 H    0.4096268495   -0.3816091386    0.8897332374
 H   -3.4497071193   -0.0792918812   -1.0757209893
 H   -1.9578594056    0.0872317580   -2.0285309953
 H   -0.8806764748   -2.6381851086    0.3318248807
 H   -2.5435870685   -2.3842086300    0.9145466843
 H   -3.2341710823    1.2900303274    3.0039441586