17

 O   -0.0335554600    1.2034081678    0.7112095357
 C    0.0358001151    0.0405705912   -0.0873342353
 C   -1.3196677678   -0.6293209495   -0.1906572060
 C   -1.5655739417   -2.0969886597   -0.1802797822
 C   -0.4767494662   -3.0683100048    0.2471399458
 O   -0.1390124617   -2.6699770700    1.5845682202
 C   -0.9092245038   -1.6079836636    1.9727072240
 N   -0.7515438689   -0.9452220608    3.0368038647
 N   -1.9072709899   -1.3016256183    1.0103040072
 H   -0.2836700233    0.9228361205    1.6035077476
 H    0.3465177911    0.3634052862   -1.0868920203
 H    0.8004765271   -0.6600308194    0.2778582315
 H   -2.0642781215   -0.0165154497   -0.6927814365
 H   -2.4004866293   -2.5008216187   -0.7445109333
 H   -0.8564814808   -4.0945879765    0.2670471864
 H    0.4294835396   -3.0396308904   -0.3656535686
 H    0.0254686121   -1.3233451443    3.5774444191