14

 O   -0.1034426932   -0.0618053460    0.0035284162
 C   -0.0214309272    1.1449903908    0.0074427670
 C    1.2169135305    1.8801994301    0.0005750496
 C    2.2431945817    2.5177336334   -0.0061377462
 C    3.4699532030    3.2974423431   -0.0137830462
 C    3.2118823039    4.8278921902   -0.0023820648
 C    4.4535938206    5.5887844673   -0.0104954280
 C    5.4958902435    6.1866192819   -0.0172167110
 H   -0.9272187154    1.7852423860    0.0168143334
 H    4.0816683124    3.0255687938    0.8544411599
 H    4.0641742046    3.0357174726   -0.8971513150
 H    2.6006639877    5.0935997056   -0.8722856777
 H    2.6182610466    5.0834872142    0.8826149771
 H    6.4081966515    6.7301865370   -0.0227198044