18

 C    0.0308340863    1.5179900845   -0.1036642429
 C   -0.0855070036    0.0017550980    0.0666888580
 C    0.7692301433   -0.5259316018    1.2173130758
 N    0.6085791863   -1.9646073367    1.3694576226
 C    1.3247615442   -2.6065917812    2.3536242128
 C    1.9478930596   -2.1604190590    3.4814970981
 O    2.4483121890   -3.2330326412    4.1263339396
 N    2.1302062883   -4.3555247365    3.3601188516
 N    1.4813365025   -3.9770296959    2.3414827981
 H    1.0651048788    1.8190787401   -0.3020023313
 H   -0.5829963934    1.8667721995   -0.9387312842
 H   -0.3024409414    2.0450153412    0.7968297761
 H   -1.1289530013   -0.2823652782    0.2443351077
 H    0.2197659774   -0.4969247637   -0.8633368487
 H    1.8260314006   -0.2463785616    1.0614856428
 H    0.4538427735   -0.0485389009    2.1547917341
 H    0.5948279634   -2.4843451537    0.5023575242
 H    2.1071820766   -1.1970430029    3.9308193356