16

 C    0.0247184561    1.3984071463   -0.0037197024
 N    0.0373942902   -0.0506898700    0.0005898918
 C   -1.0911975370   -0.6361379305    0.0000781235
 N   -2.3888073859   -0.1420340649   -0.0039579364
 C   -3.3162920408   -1.1882038368   -0.0022474401
 C   -2.6429658449   -2.3472800780    0.0023600728
 N   -1.2704161282   -2.0400023008    0.0038400308
 C   -0.2437324920   -2.9698528748    0.0083401703
 O   -0.4366793337   -4.1623104462    0.0115072439
 H    1.0522259991    1.7699367626   -0.0020854542
 H   -0.4721537846    1.8176978047   -0.8950158924
 H   -0.4768579108    1.8230304299    0.8824236422
 H   -2.6057815169    0.8370264054   -0.0061798477
 H   -4.3767535918   -1.0023927269   -0.0047480618
 H   -2.9662635035   -3.3719702561    0.0047732416
 H    0.7411322947   -2.4810749640    0.0085982681