14

 O    0.4060395674   -0.1069130106    0.1047450507
 C    0.1799752133    1.0720549482    0.1162505427
 C    1.2736254405    2.1436253168    0.1291487430
 O    2.5616728609    1.6292115761    0.3217988832
 C    3.1392081547    1.3595990198   -0.9656605265
 C    2.6338868401    2.4818131808   -1.8771910143
 C    1.2903180054    2.8479381701   -1.2490857365
 O    0.4071881525    3.5189149845   -1.7068297285
 H   -0.8511311435    1.4868490859    0.0924716036
 H    1.0333925329    2.8731694151    0.9128215101
 H    4.2225315804    1.3483993206   -0.8367881146
 H    2.8132435357    0.3752344831   -1.3232872270
 H    3.2805930737    3.3652753657   -1.8264525434
 H    2.5123188561    2.2104256638   -2.9276112326