15

 C    0.1190812468    1.6325889465   -0.1182942625
 C   -0.0470206830    0.1118512879   -0.0298375537
 O    0.4254209408   -0.5425054584   -1.2022934524
 C    0.5932566353   -0.4563874416    1.1995512649
 C    0.1467131443   -1.1853742395    2.2595339584
 O   -1.1014308435   -1.6008309595    2.5310091928
 N    1.2160840033   -1.4493214133    3.0695712901
 N    2.2693331709   -0.9415746822    2.5797214001
 O    1.9174233360   -0.2906460813    1.3832862065
 H    1.1795091735    1.9049120233   -0.1359790342
 H   -0.3526412524    1.9955905940   -1.0345546265
 H   -0.3427214807    2.1295260278    0.7401988620
 H   -1.1109397430   -0.1385604629    0.0251125125
 H    1.3700806517   -0.3649943979   -1.2781300966
 H   -1.0709661599   -2.1101626829    3.3499718687