24

 C   -0.7686974316    1.5580990720    0.4554933626
 C   -0.3829091395    0.0914750249    0.6388749011
 N   -1.4615606365   -0.7691758073    0.1657212823
 C   -1.4363409612   -1.1779146958   -1.2351104489
 C   -1.2176075580   -2.1793072721   -0.1524824245
 C    0.1203759852   -2.8735856516    0.0271648896
 C    0.3446729441   -3.3707816931    1.4426460929
 C   -0.2142305447   -4.7032702235    1.8774793540
 C    1.2754410348   -4.5251181514    1.7089870264
 H    0.0126524655    2.2168635963    0.8471186700
 H   -0.9104310607    1.7932442050   -0.6045694790
 H   -1.7053100206    1.7753110185    0.9763366011
 H    0.5778384466   -0.0964817110    0.1309038429
 H   -0.2280242722   -0.1199397898    1.7040983459
 H   -2.3792306716   -1.1257161182   -1.7740900152
 H   -0.5630650454   -0.9001385539   -1.8272326510
 H   -2.0618612633   -2.8112910535    0.1238669479
 H    0.1532329779   -3.7304575992   -0.6596840609
 H    0.9419137365   -2.2148834061   -0.2759880005
 H    0.3336948897   -2.5893164862    2.1978938990
 H   -0.6128382370   -4.7982744341    2.8813702310
 H   -0.7380660615   -5.2985012442    1.1360388160
 H    1.7488623170   -5.0005850213    0.8557114239
 H    1.8953427668   -4.4962297445    2.5983088933