13

 N   -0.0231747229    1.3802181363    0.0102179465
 C    1.2918585117    1.8142203605   -0.0004033672
 C    2.1520832348    0.7314948049   -0.0148059565
 C    1.2985289427   -0.3956624561   -0.0126343246
 C   -0.0224480449    0.0078580440    0.0026224575
 C   -0.8239712748   -1.1742224457    0.0039416060
 C    0.0825410276   -2.1956006990   -0.0106689970
 O    1.3832096403   -1.7528232111   -0.0210084630
 H   -0.8261687315    1.9821832292    0.0215396579
 H    1.5159651970    2.8688896057    0.0031916734
 H    3.2285341610    0.7744245762   -0.0251678059
 H   -1.8968086889   -1.2818647881    0.0139251718
 H   -0.0360746220   -3.2664326467   -0.0154434888