17

 N   -0.0952062019   -1.2623772097    0.0840228312
 C   -0.0499529937   -0.1066427595    0.1022741222
 C   -0.0398846352    1.3615536317    0.0807709962
 C   -0.0466540959    2.0373513682    1.4826117501
 O    1.2425671117    2.6289291952    1.2587201745
 C    1.3726867476    2.0054845340   -0.0283583673
 N   -0.9967868101    1.9649046335   -0.8308133344
 C   -1.2849580161    1.3144124045   -2.1092565050
 C   -2.3042884700    1.3374236499   -1.0239936059
 H   -0.8414883479    2.7823237328    1.5899077537
 H   -0.0481821331    1.3499967127    2.3354543471
 H    2.2091021107    1.2993175532   -0.0675509785
 H    1.4455841982    2.7309749921   -0.8448173093
 H   -1.3626187443    1.9872631889   -2.9573494413
 H   -0.8177366404    0.3548509406   -2.3185603467
 H   -2.5040732116    0.3929170322   -0.5231385665
 H   -3.1411695979    2.0274004998   -1.0637789602