19

 C   -0.1107570419    1.4391774394   -0.0827825292
 C    1.2628308528    0.7860811410    0.0816411388
 C    2.0617935786    0.9115760218    1.3272189148
 C    1.8529431611    0.3067093965    2.5014458383
 C    0.6945244225   -0.6117787554    2.7740094425
 C    0.5025619329   -1.7841818954    1.7727862191
 C   -0.5266094451   -0.8358261223    1.1218875133
 O   -0.5664091653   -0.0271274770    2.3201415553
 C    0.0134203876   -0.0577162308   -0.0601835733
 H   -0.5304659006    1.8931017132    0.8065624304
 H   -0.3284527610    1.9411062349   -1.0190754573
 H    1.8757860682    0.8398765575   -0.8147821012
 H    2.9185315046    1.5781647014    1.2432060694
 H    2.5333947618    0.5041599729    3.3253938447
 H    0.6385803361   -0.8722405441    3.8348726691
 H    1.3655423997   -2.0766695925    1.1742749129
 H    0.0466258723   -2.6599418559    2.2385268671
 H   -1.5170848366   -1.2453286135    0.8933160393
 H   -0.0912081078   -0.5809247017   -1.0080603142