21

 C   -0.3273843691    1.2957211831    0.2216236383
 C   -0.1348466175   -0.1426912966    0.1088651747
 C    0.0172535481   -1.3338707411    0.0122292895
 C    0.2174260181   -2.7748681444   -0.1027366675
 C    1.1562513289   -3.1177271760   -1.2578237154
 C    0.5048177181   -3.5159165402    1.2373183652
 C   -0.8273389010   -4.2472338422    0.9757012898
 C   -1.9473795761   -4.0590325423    1.9804369772
 O   -1.0488535765   -3.4914789019   -0.2411580010
 H    0.6246348010    1.8308982391    0.1333259225
 H   -0.9899816911    1.6685259904   -0.5672517972
 H   -0.7726977398    1.5666979366    1.1852090834
 H    2.1313538495   -2.6414553002   -1.1155149362
 H    1.2942931211   -4.2010469146   -1.3207426811
 H    0.7320066855   -2.7642465683   -2.2014250271
 H    1.4038978820   -4.1343183081    1.2307238611
 H    0.5080438729   -2.8715905946    2.1170230590
 H   -0.7061671996   -5.3141133511    0.7428170055
 H   -2.0677927883   -3.0002851822    2.2291089489
 H   -2.8936258628   -4.4245205337    1.5691388791
 H   -1.7360653735   -4.6157951116    2.9004671313