16

 O    0.3900320347    1.0720831010   -0.6272239095
 C   -0.0134721624   -0.0833866857    0.0763942464
 C    0.5073518508   -0.1481870205    1.5604201247
 C   -0.6890039453   -0.7359155097    2.2243238980
 C   -1.8195739932   -0.7363825542    1.4777441312
 C   -1.5750377916   -0.1252632449    0.1301076546
 C   -2.7787292515   -1.3000216154    2.3552629565
 N   -2.2503265403   -1.6111594064    3.5206956521
 O   -0.8914567042   -1.2412484790    3.4394175319
 H    1.3322195917    1.0064844312   -0.8115980378
 H    0.3350802098   -0.9902249599   -0.4387194497
 H    1.4208779558   -0.7414667513    1.6646500168
 H    0.7188163956    0.8656840530    1.9226157151
 H   -1.9597337438    0.8992570026    0.0596747864
 H   -1.9874037212   -0.6863536124   -0.7129786449
 H   -3.8297018050   -1.5045509484    2.2044617282