22

 C   -0.0814233782    1.5425202779   -0.0655400965
 C    0.0731624039    0.0181173776   -0.0263720475
 C    0.9587081378   -0.4544120318   -1.1922167863
 O    0.4282174719   -0.1180700270   -2.4654255859
 C    0.6261220359   -0.5121251952    1.3162861476
 C   -0.1610581009   -0.0086014522    2.5409068981
 C    0.5647341421   -2.0448674259    1.3304679675
 N    1.6993993395   -2.6758424021    1.7499315357
 O   -0.4413706410   -2.6578066897    1.0225623941
 H    0.8543909021    2.0428194012    0.2144102570
 H   -0.3332789936    1.8549304152   -1.0819788986
 H   -0.8674726774    1.8982361166    0.6052071020
 H   -0.9120902553   -0.4495695688   -0.1575324956
 H    1.9353056856    0.0438109944   -1.1416211661
 H    1.1377375010   -1.5368412768   -1.1191337411
 H   -0.3855601348   -0.6198034647   -2.5803808304
 H    1.6715030391   -0.1867240098    1.4185855177
 H   -1.2128021095   -0.2970639480    2.4568868806
 H    0.2348030259   -0.4453568510    3.4634474074
 H   -0.1007433651    1.0779917462    2.6326881776
 H    2.5423195880   -2.1786596058    1.9750258646
 H    1.6970606129   -3.6815903204    1.8039758381