19

 C   -0.1417623442    1.5351995684    0.0668482386
 C    1.3815963042    1.2735534170    0.0228892293
 C    1.2371653697    0.1284474390    1.0489130083
 C    2.4137214586   -0.8377403400    0.7490126931
 C    2.1621628284   -0.9719935498   -0.7632358036
 O    2.9489950530   -0.4322031121   -1.8786809246
 C    1.7279967528    0.1749931034   -2.4151900265
 C    1.1431404108    0.1026949441   -0.9974550395
 C   -0.0078809199   -0.0055511432    0.0293834399
 H   -0.5322781042    1.9784101353    0.9876303747
 H   -0.5945667564    2.0016783092   -0.8120428128
 H    2.1941220099    2.0015581360   -0.0151801381
 H    1.0049670355    0.3709742014    2.0881628075
 H    3.3660322918   -0.3554112575    0.9918599227
 H    2.3716058263   -1.7964404903    1.2731280545
 H    1.8345742515   -1.9862695293   -1.0316602453
 H    1.9137147141    1.1620406884   -2.8484785192
 H    1.2569506428   -0.4822097396   -3.1581480399
 H   -0.8020603548   -0.7536517003    0.0600172808