22

 C   -0.6015639654    1.5572190852   -0.3493436014
 C   -0.1782091820    0.1363288675    0.0484355315
 C    0.5269712262   -0.5793747989   -1.0863862455
 C    0.6968719146   -2.0483059742   -1.2504111518
 C   -0.1517841362   -3.0125977356   -0.4385349392
 O    0.1724179621   -2.8961963023    0.9432921914
 C   -1.6221414697   -2.6451490227   -0.7802711663
 C   -1.5393292185   -1.6810026968   -1.9893193710
 N   -0.1311326043   -1.2845478673   -2.2068116820
 H    0.2618498792    2.1495030023   -0.6717313112
 H   -1.3169729267    1.5451149514   -1.1782127721
 H   -1.0687764889    2.0792220370    0.4914716420
 H    0.5183822479    0.1834087654    0.8941115536
 H   -1.0413394895   -0.4225200894    0.4122112873
 H    1.3653711279    0.0104376228   -1.4610167507
 H    1.6428078298   -2.4304138007   -1.6259103646
 H    0.0686033529   -4.0345115734   -0.7802758336
 H   -0.2945779894   -3.5915075490    1.4173361609
 H   -2.2145627587   -3.5335090430   -1.0179376779
 H   -2.0806503085   -2.1783597386    0.0953022409
 H   -1.8699502084   -2.1796399062   -2.9060236693
 H   -2.1700374045   -0.7952059836   -1.8628680111