14

 C   -0.0421397858    1.4771511908    0.0419472259
 C    0.0288156691   -0.0366309359   -0.0226376392
 O    1.0863993108   -0.6299964872   -0.0768997551
 C   -1.2763691062   -0.7623019710   -0.0158376967
 C   -1.3564756369   -2.0579736019   -0.8117729629
 C   -1.3148232709   -2.1188152732    0.6749669301
 H    0.9626798927    1.9004546387    0.0306059564
 H   -0.6181400997    1.8649941527   -0.8063427852
 H   -0.5675699687    1.7922484799    0.9510416338
 H   -2.1707440405   -0.1513441837    0.0342649495
 H   -2.2894978265   -2.2675842081   -1.3219421340
 H   -0.4544272469   -2.3304581974   -1.3473866854
 H   -0.3848913676   -2.4320718984    1.1353120389
 H   -2.2183516828   -2.3714760653    1.2176817539