20

 C    0.2298935654    1.2802664771    0.2759880339
 O    0.0519960490   -0.0985168843    0.0538307348
 C    0.5589636196   -0.5587047143   -1.1866456504
 C    2.0732227292   -0.8194682606   -1.1303415876
 C    2.1213565743   -2.1826265042   -0.4313272341
 O    0.9426484208   -2.8761498787   -0.8336543572
 C    0.0215780180   -1.9751439347   -1.4607978981
 C   -1.3889595808   -2.2588271506   -0.9694817391
 H    1.2904696012    1.5683820254    0.3282227717
 H   -0.2488421679    1.8818813526   -0.5128058975
 H   -0.2404939292    1.5159928923    1.2337462252
 H    0.2746893874    0.1386091733   -1.9882764349
 H    2.4742030836   -0.8868361399   -2.1472828877
 H    2.6248778085   -0.0405797502   -0.5991880705
 H    2.9980544838   -2.7770823212   -0.7109622286
 H    2.1237567550   -2.0592792212    0.6606973878
 H    0.0650871916   -2.1363061878   -2.5507244114
 H   -1.4691395322   -2.0576614368    0.0995551575
 H   -2.1136421739   -1.6317221787   -1.4991217184
 H   -1.6390313634   -3.3066392274   -1.1560643854