21

 C   -0.0889846752    1.4427276925   -0.2440250231
 C   -0.1143732793   -0.0114582044   -0.1609969110
 C   -0.1157375168   -1.2159759629   -0.0819780530
 C   -0.1271529740   -2.6507356673   -0.0230764504
 C   -0.4736803589   -3.3975368215    1.2649227064
 C   -0.6949878355   -2.6693601774    2.5725547581
 C   -1.4569692171   -3.3947719966    0.1229207071
 C   -2.7511225508   -2.6095616763    0.1369473914
 O   -3.0788584974   -2.1065955078   -1.1492460782
 H    0.6707060221    1.8685644135    0.4210391482
 H    0.1368816715    1.7788828035   -1.2621477444
 H   -1.0555076573    1.8746906814    0.0382169660
 H    0.6112557025   -3.1287596503   -0.6606661280
 H    0.0727485944   -4.3305484269    1.3782141565
 H   -1.0931397553   -1.6639283996    2.4217713603
 H   -1.3873752188   -3.2200531201    3.2184637809
 H    0.2525171842   -2.5653960420    3.1117468048
 H   -1.5178091204   -4.3113793972   -0.4575287261
 H   -3.5799038273   -3.2654202451    0.4248100322
 H   -2.7061703639   -1.7994259991    0.8761354453
 H   -2.3780744965   -1.4860462963   -1.3821918430