18

 O   -0.0008565563    1.4315507040   -0.1578424871
 C    0.0201899439    0.0181446003    0.0204781022
 C    0.6207458358   -0.4619928574    1.3482266730
 C    0.1034381839    0.0940869419    2.6246449655
 N   -0.3976159511   -1.1936719494    2.1327375560
 C   -1.6325143949   -1.1810188913    1.3445968582
 C   -2.3748216822    0.1000219453    0.9924650258
 C   -1.4165057981   -0.5250613360    0.0149772761
 O   -1.8855554518   -1.1091602094   -1.1594165562
 H    0.9057608576    1.7508589216   -0.1063710227
 H    0.5508513760   -0.4646347894   -0.8117780003
 H    1.6104474356   -0.9113358794    1.3159817767
 H    0.7117733715    0.0222805438    3.5222387433
 H   -0.5337135614    0.9708238739    2.5874435076
 H   -2.2177848012   -2.0892579831    1.4297603571
 H   -3.4276608499   -0.0374172466    0.7681546333
 H   -2.1314246773    1.0519968805    1.4461071845
 H   -2.1901647499   -0.4013194991   -1.7383066229