21

 O   -0.0093744542    1.3701109889   -0.2537700289
 C    0.0220682263    0.0226480480    0.2150090236
 C   -1.3609369731   -0.6252947197    0.1167194666
 C   -2.3907329001    0.0476248521    1.0396580816
 O   -2.6591693068    1.3944605833    0.7130773433
 O   -1.6796700902   -0.5357173764   -1.2701967678
 C   -2.8675325421   -1.1501867091   -1.6764675699
 C   -4.1534298938   -0.3646156046   -1.6657014215
 C   -3.4392501304   -0.6602288109   -2.9680245530
 H   -0.3730541333    1.3172796862   -1.1474304186
 H    0.7453359856   -0.5694460919   -0.3620200929
 H    0.3562209582    0.0572094865    1.2558978907
 H   -1.2782490039   -1.6834020162    0.4202012077
 H   -3.3430285390   -0.4884154850    0.9888858753
 H   -2.0166738400   -0.0585049440    2.0732570586
 H   -1.8033644692    1.8069450472    0.5251558718
 H   -2.9047036328   -2.2185603907   -1.4610382429
 H   -5.0780575744   -0.8890607295   -1.4488361063
 H   -4.0872326876    0.6429616050   -1.2730828687
 H   -2.9157433331    0.1604026855   -3.4454993248
 H   -3.8663617262   -1.3850584948   -3.6516480839