18

 C   -0.4037643552    1.4089821853    0.2127329792
 C   -0.0611658542   -0.0420725259   -0.0144244347
 C    0.7441723158   -0.5120819611   -1.1962538737
 C    1.3584400419    0.4183571537   -2.2336414174
 C    2.8145631699    0.8149215416   -1.9303664860
 O    3.5461490435    1.2009187460   -2.8214898638
 C    3.2008290577    0.8017933670   -0.5186854842
 C    2.3975410337    0.2718334733    0.4273856945
 N    1.3151849574   -0.5477288685    0.1496385009
 H    0.4039050074    2.0756629560   -0.0981641278
 H   -1.3056854746    1.6726577147   -0.3500161770
 H   -0.6067193121    1.5984548001    1.2715499018
 H   -0.8047196289   -0.7420024855    0.3625482052
 H    0.5074032838   -1.5082228225   -1.5640844514
 H    1.3416779656   -0.0496188967   -3.2201237192
 H    0.7961948914    1.3552935327   -2.3315782991
 H    4.1327527938    1.2875700659   -0.2548820168
 H    2.6078242532    0.3906925439    1.4884720994