22

 C    2.4251261027    0.8175184373    0.7809065971
 C    1.3924434990   -0.3091494937    0.6129476294
 C    0.0518469697    0.1399785414    0.9977082749
 C   -1.0404459867    0.5175277978    1.3274454732
 N    1.3909386222   -0.7375116908   -0.7908890871
 C    2.3384187647   -1.7836969730   -1.1756086501
 C    0.8681468057   -2.0539447261   -1.1836102634
 C    0.2901644673   -3.0132509921   -0.1578648024
 C    0.1159969499   -2.0333344739   -2.5001960348
 H    3.4205627651    0.4500631855    0.5146314649
 H    2.1744874511    1.6544664388    0.1254485507
 H    2.4454438579    1.1683409745    1.8158582944
 H    1.6792179576   -1.1293632910    1.2934881377
 H   -2.0071934032    0.8483134037    1.6165075861
 H    2.8853363674   -1.6143234894   -2.1002396296
 H    2.9248895310   -2.2544074947   -0.3859038409
 H    0.8935096687   -3.0789264728    0.7502863230
 H   -0.7231733590   -2.7122713717    0.1276915061
 H    0.2323723688   -4.0199286997   -0.5853543847
 H    0.1392860434   -3.0186893665   -2.9794851764
 H   -0.9332311502   -1.7611246060   -2.3398074384
 H    0.5538613469   -1.3004467576   -3.1816757194