17

 O    0.0120979026    0.2891988209   -1.0616495830
 C    0.0257973369    1.1437616455   -0.1978066181
 C   -1.2179122433    1.5133065563    0.5213398056
 C   -1.4038242829    2.4793925512    1.4317540357
 C   -0.4233450108    3.4490579519    2.0327795267
 C    1.0095694205    3.3820495994    1.5195626670
 C    1.1869820243    3.4187102894   -0.0137666700
 C    1.3173494807    1.8852169908    0.1363707905
 O    1.5108795937    2.0220669131    1.5635109913
 H   -2.0661331271    0.9065861800    0.2163292653
 H   -2.4142457201    2.5926089398    1.8227265308
 H   -0.8072165896    4.4715137854    1.9000136192
 H   -0.4168960958    3.2840494077    3.1202138002
 H    1.6461569065    4.0592030414    2.0988126076
 H    0.3647382388    3.8048392444   -0.6180430280
 H    2.1241543311    3.8855831882   -0.3184914800
 H    2.1524657946    1.3832563346   -0.3567308610