19

 O   -0.0245867125   -0.1271877094   -0.1595145737
 C    0.0063333490    1.0605210693    0.0445704791
 C    1.2409614253    1.9192249150    0.0368257775
 C    1.1835976245    3.1835612566    0.9468637241
 C    1.4313307342    4.1113349402   -0.2732462959
 C    1.3687402854    2.8819199357   -1.2249818633
 O    2.5420834972    2.5305354345   -1.9079929237
 C    3.4406000329    1.9468196033   -0.9664807216
 C    2.5568542945    1.1351458557   -0.0037677786
 H   -0.9361608025    1.6266016660    0.2353513834
 H    0.2039064911    3.3258521127    1.4130801070
 H    1.9396646530    3.2090455674    1.7352395297
 H    0.6635201994    4.8670038487   -0.4536064264
 H    2.4063099930    4.6038163834   -0.2862755168
 H    0.5479670044    2.8890853215   -1.9459817737
 H    4.1563968915    1.3402630951   -1.5261633926
 H    4.0008686964    2.7269759462   -0.4289333962
 H    3.0109284650    1.0209025253    0.9842036469
 H    2.3531692383    0.1394385129   -0.4053871451