14

 C    0.0242331863    1.4178093020   -0.0569403818
 O    0.0096487500   -0.0089340979   -0.0111964115
 C    0.5950674343   -0.6345163496   -1.0380925205
 N    1.1654332180    0.0071990264   -2.0562375722
 N    1.6243025099   -0.9744790073   -2.8541876337
 C    1.3570662980   -2.2167085895   -2.3639144103
 C    0.6806435319   -2.0375175424   -1.1695805054
 C    1.7503862484   -3.3941194982   -3.0431792584
 N    2.0798830289   -4.3470470283   -3.6126802709
 H    1.0507338207    1.7977681011   -0.0708355464
 H   -0.4981421133    1.7855438862   -0.9458549912
 H   -0.4887004332    1.7487897543    0.8463610638
 H    2.1044432601   -0.7416664653   -3.7069205282
 H    0.3099598601   -2.7963651515   -0.5029748133