15

 O    0.0171171817    0.0016056582    0.1029675669
 C   -0.0377088486    1.2142562937    0.0242480044
 C   -1.3333799201    1.9340719236   -0.0516876428
 C   -1.3963422111    3.2707189168   -0.0396426929
 C   -0.1393312390    4.0705883806    0.1496257551
 O    0.4397320944    3.8062584797    1.4798783205
 C    1.5641931610    3.2060720636    0.8665962930
 C    1.1242810422    3.5001875786   -0.5278165536
 C    1.1989985210    2.0526188859   -0.0791752642
 H   -2.2144861565    1.3058460641   -0.1322339972
 H   -2.3470528669    3.7921140072   -0.1025767643
 H   -0.2814683035    5.1449110961    0.0217441791
 H    2.5140980722    3.2508473692    1.3845481164
 H    1.6336355459    3.9018720924   -1.3928918849
 H    2.0689254874    1.4983391803   -0.4177332754