19

 C   -0.0041679657    1.5744433676    0.0057042887
 C    0.0761464172    0.0491353150    0.0102144439
 C    0.8133454286   -0.5696839988   -1.1686764989
 N    2.2901895055   -0.5483628168   -1.0007240030
 C    1.5229701907   -1.7875304435   -0.7099297270
 C    1.2581571616   -1.9688789856    0.7734130479
 C    0.8141283519   -0.5584750107    1.2473385769
 O    1.9167708523    0.2235859047    1.6663986282
 H    0.9944713897    2.0161401399    0.0093727398
 H   -0.5403816484    1.9350991272   -0.8787169375
 H   -0.5312199496    1.9418941848    0.8916690416
 H   -0.9427871987   -0.3642726661   -0.0028891672
 H    0.4110510362   -0.4813112319   -2.1733270419
 H    2.7418983465   -0.6270921737   -1.9074608911
 H    1.6697230091   -2.6462136362   -1.3569688148
 H    0.4546786032   -2.7028585332    0.9100633397
 H    2.1298303407   -2.3065782049    1.3409248589
 H    0.1454177958   -0.6147553823    2.1107662107
 H    2.5115955834    0.2450206744    0.8999351850