16

 N   -0.0970691907    1.4729376659    0.0593500341
 C    0.0177948385    0.0108538160    0.0067710858
 C    0.6933787140   -0.5025465777   -1.1998984243
 C    1.2234051988   -0.8976036718   -2.2046836764
 C    0.7364656389   -0.4574745006    1.2492964755
 N    1.6352021055    0.2360174420    1.9078238365
 C    2.0526596530   -0.5775309934    2.9367655188
 C    1.3982571790   -1.7783370783    2.8926395015
 N    0.5534545428   -1.6872409336    1.8063360835
 H    0.7807332083    1.8379073839    0.4214970971
 H   -0.2144886982    1.8332466357   -0.8820716003
 H   -0.9972323808   -0.4148510667    0.0198640245
 H    1.7037374195   -1.2441531096   -3.0862483616
 H    2.7939936668   -0.2485612041    3.6485047503
 H    1.4397807739   -2.6590172770    3.5111708873
 H   -0.0684427393   -2.4054044108    1.4741702876