13

 O   -0.3384387589    0.4014237170   -0.6946851029
 C    0.0308970029    1.1374559786    0.1761727233
 C    1.2817113634    1.9916643581    0.0758864333
 O    2.1964389480    1.6333086451   -0.9582622043
 C    1.4765170919    2.8414534633   -1.1589126552
 C    0.5178008393    2.9084664047   -2.2227757695
 C   -0.2674762109    3.0252540235   -3.1242813666
 C    1.8339545747    2.4302447544    1.3305040543
 C    2.2502067388    2.7751249149    2.4039642887
 H   -0.5169771598    1.2654868535    1.1326644929
 H    2.0665563536    3.7440237687   -1.0010547395
 H   -0.9671189912    3.1057174870   -3.9199404835
 H    2.6328224681    3.0822352311    3.3466236991