21

 C   -0.0501686402    1.5928075440    0.0276421438
 C    0.0251671321    0.0597927842    0.0082214875
 C   -1.4010087426   -0.5196785664   -0.0439587938
 O   -1.9980545742   -0.1377662954   -1.2751585485
 C    0.8469112439   -0.4884216252   -1.1472789985
 C    1.6357627844   -1.4964927804   -0.7771012594
 C    1.4902645429   -1.8083580274    0.6942189077
 C    0.7756380891   -0.5478189528    1.2453916393
 O    1.7056547723    0.3550184329    1.8242397356
 H    0.9413471837    2.0482169901   -0.0259428088
 H   -0.6390130262    1.9429052832   -0.8237492126
 H   -0.5265955642    1.9488955376    0.9466147377
 H   -1.3582367774   -1.6164107116    0.0465029989
 H   -1.9788027865   -0.1344212864    0.8123089169
 H   -2.8925873567   -0.4889307809   -1.2988457503
 H    0.7458474227   -0.1007054533   -2.1540211367
 H    2.2831247263   -2.0620201914   -1.4386581183
 H    0.8946678245   -2.7185388211    0.8493019793
 H    2.4390527033   -1.9647754671    1.2192227638
 H    0.0799553852   -0.7833138515    2.0568818994
 H    2.3742761075    0.5468016290    1.1565649969