14

 O    0.0169623966   -0.1156963853   -0.3897323238
 C   -0.0365997967    1.0667118836   -0.1243051169
 C    1.1479399258    1.8456059301    0.1774412622
 C    2.1226287917    2.5071098632    0.4247702988
 C   -1.3288839502    1.8236973881   -0.0834759844
 C   -2.5073342244    1.2375252428   -0.8154917010
 C   -2.5149785032    1.2130793194    0.6881460495
 C   -2.3810572244   -0.0201856659    1.4139855510
 N   -2.3199747875   -0.9926315749    2.0363271095
 H    2.9968121690    3.0716989998    0.6436635425
 H   -1.2450129680    2.9008973017   -0.0052477809
 H   -3.1930035673    1.9146604924   -1.3097032528
 H   -2.3169168721    0.2939863034   -1.3129572383
 H   -3.1436012693    1.9410909116    1.1900476644