12

 O    0.2299232341    1.3107474457    0.1202612832
 C    0.0730429639   -0.0188124482    0.0677719291
 N    0.1777004416   -0.7468529326   -1.0357251253
 N   -0.0493640242   -1.9899605047   -0.6019037790
 N   -0.3073039797   -2.1257812666    0.6906179166
 C   -0.2277795799   -0.8801063397    1.1432651519
 O   -0.4510345108   -0.5240359892    2.4348186748
 C    0.1054129093   -1.3047950804    3.4189932856
 O   -0.1257575090   -1.1088922447    4.5673861607
 H    0.4178724094    1.6241479016   -0.7733728312
 H   -0.0435731976   -2.7778830747   -1.2267110539
 H    0.7597232130   -2.0882729167    3.0054531075