17

 C   -0.1766955531    1.5049327877   -0.1353247703
 N    0.0038804912    0.0709502272    0.0430262732
 C    1.3365841634   -0.4821798886   -0.1572748425
 C    0.7324268492   -0.4327500792    1.2075521473
 C    1.3009283001    0.4507227213    2.2736880591
 C    0.6614417843    0.4793443388    3.6148173440
 N    1.9717907585   -0.1671921265    3.4313532463
 H    0.7143681185    2.1129324421    0.0850570245
 H   -0.4580865118    1.6917888397   -1.1765283282
 H   -0.9950646703    1.8507024130    0.5039968581
 H    1.3943105608   -1.4144872997   -0.7135620295
 H    2.1532039076    0.2136714640   -0.3522705186
 H    0.3007242487   -1.3515692191    1.6107704257
 H    1.8028496908    1.3496135811    1.9269358903
 H    0.6779610088    1.3871657250    4.2111658845
 H   -0.2140584557   -0.1474560438    3.7674825653
 H    1.8556418690   -1.1781583730    3.3940227408