21

 C   -0.0285928660    1.5418223921    0.0004259420
 C   -0.0256753836   -0.0049906730   -0.0045799752
 C    0.6801124262   -0.5259543591   -1.2850297342
 C    1.0302233861   -2.0121531571   -1.1770061063
 C    2.0048049068   -2.2571587334   -0.0167568876
 C    1.6112455567   -1.4897939779    1.2173273866
 C    0.7052840181   -0.5145430104    1.2318112557
 C   -1.4161638267   -0.4803994367    0.0361958807
 C   -2.5572154337   -0.8600467918    0.0696522001
 H    0.9992172057    1.9178298221    0.0092043468
 H   -0.5368349077    1.9289996270   -0.8876355611
 H   -0.5466505391    1.9274243073    0.8830982131
 H    0.0404874494   -0.3346146365   -2.1521692300
 H    1.5987680097    0.0586203978   -1.4241665665
 H    0.1091405204   -2.5822337873   -1.0082915147
 H    1.4604157875   -2.3712067895   -2.1176408307
 H    2.0590967753   -3.3276647371    0.2176744133
 H    3.0265557483   -1.9720928511   -0.3108148963
 H    2.1058464514   -1.7649031050    2.1464825008
 H    0.4459955426   -0.0207929114    2.1652303637
 H   -3.5621971674   -1.2009948490    0.1041477899