21

 C    0.0685055462    1.5107765101   -0.2008065075
 C   -0.1013856976    0.0032040090   -0.2750527194
 O    0.9367335513   -0.5263587176   -1.0800309685
 C    0.8999900985   -1.9127313687   -1.2041407527
 C   -0.1517151786   -2.5927458735   -2.1454008752
 C    0.9998151011   -3.4031823217   -2.8096139236
 C    1.5787613707   -2.7148995837   -4.0514254968
 O    2.3588448271   -1.8091769797   -3.2364283850
 C    2.0386427557   -2.5335066651   -2.0337375728
 H    1.0389931198    1.7658176818    0.2340499774
 H    0.0160830467    1.9514184002   -1.2002721944
 H   -0.7183197294    1.9534643923    0.4174183403
 H   -0.0608345616   -0.4432158144    0.7333893096
 H   -1.0851040629   -0.2529868712   -0.7009221289
 H    0.8751457684   -2.3975024952   -0.2122277525
 H   -0.9168182676   -3.1835385644   -1.6380090297
 H   -0.6381876990   -1.8946390572   -2.8322565034
 H    0.9506311113   -4.4897540313   -2.7771092761
 H    2.2278146997   -3.3524305197   -4.6673073058
 H    0.8699751389   -2.1877109204   -4.7023308417
 H    2.9337908311   -2.8873854495   -1.5141547534