23

 C   -0.0375879484    1.5483674988    0.0152567962
 C    0.0148594437    0.0214495474    0.0017766745
 C    0.7313451918   -0.5097561900   -1.2600685852
 C    0.6619827974   -2.0620592733   -1.2823170383
 C   -0.0715850222   -2.5323561376   -0.0198289822
 C    0.6751290363   -2.0837932220    1.2428641004
 C    0.7459859679   -0.5314115937    1.2458101186
 O   -1.3947454757   -1.9932439225   -0.0084118097
 C   -1.4076546447   -0.5630693622    0.0050791498
 H    0.9720275361    1.9737019087    0.0134126477
 H   -0.5638366878    1.9363032485   -0.8642033371
 H   -0.5541456771    1.9210026858    0.9069947120
 H    0.2563843382   -0.0880354745   -2.1527270577
 H    1.7693479835   -0.1584937851   -1.2622276185
 H    0.1154733438   -2.4179391772   -2.1603370574
 H    1.6608896957   -2.5096354410   -1.3209452195
 H   -0.2059892323   -3.6176437673   -0.0284366331
 H    0.1369566028   -2.4537608108    2.1202204241
 H    1.6738571133   -2.5329096790    1.2640980199
 H    1.7843424635   -0.1811922193    1.2411958658
 H    0.2824294041   -0.1242622217    2.1511380707
 H   -1.9545463726   -0.2255838671    0.8985216269
 H   -1.9655424772   -0.2092038948   -0.8750963479