20

 C   -0.0212158056    1.6214200211    0.0667271787
 C    0.0276122181    0.1050090788    0.0758181380
 N    1.0230424494   -0.5200480297   -0.8356851415
 C    1.3533734039   -1.5502852090    0.1522984142
 C    0.8967412641   -3.0246766493    0.0333863326
 O    2.2189810075   -3.4927909500    0.3529837971
 C    2.7598385391   -2.1541699227    0.2838460273
 C    0.7355847750   -0.6409854650    1.2511784673
 O    1.6599438140    0.1083584729    2.0011594527
 H    0.9656815674    2.0538523550    0.2524911458
 H   -0.3685130011    1.9880117449   -0.9049636102
 H   -0.7081197788    1.9909780078    0.8349554545
 H   -0.9873453193   -0.2993001812   -0.0575177556
 H    0.6872038519   -0.8444100387   -1.7372726324
 H    0.1436801674   -3.3803777690    0.7482456136
 H    0.5898484524   -3.3144439004   -0.9834609360
 H    3.3913643649   -2.0048315109   -0.6025392834
 H    3.3177192986   -1.8820349570    1.1871648298
 H    0.0860484660   -1.1335358436    1.9769667574
 H    2.2574430851    0.5477850961    1.3852205803