12

 C   -0.0357394576    1.5195366969    0.0418401606
 C   -0.0118765895    0.0265365097   -0.0001340479
 C   -0.0273261421   -0.8190407726   -1.0626274051
 O    0.0051907176   -2.1022205941   -0.6588402170
 N    0.0439327370   -2.1516267372    0.7119856289
 C    0.0342046017   -0.8895198984    1.0997567165
 C    0.0668070744   -0.5547005136    2.4837465305
 N    0.0919746020   -0.2228652823    3.5912010366
 H    0.8528828913    1.9157857626    0.5434744555
 H   -0.0702522760    1.9371717513   -0.9668262635
 H   -0.9084536481    1.8863142921    0.5915244310
 H   -0.0596597708   -0.6625367543   -2.1295426960