18

 O   -0.1423117462    1.2986941994   -0.4439529594
 C    0.0055621737    0.0377332953    0.1885999149
 C   -1.3225682438   -0.6601358636    0.3393878197
 C   -2.3527061784   -0.1683792203    1.3775879338
 C   -3.4968946713   -1.1210257274    1.0832852502
 C   -3.0473595931   -2.1272426471    0.2993816512
 C   -3.1346895481   -1.8421684768   -1.2010597056
 N   -1.7077168698   -1.2870045620   -1.0560597508
 C   -1.5194314320   -2.1025851900    0.1761528272
 H   -0.5336808867    1.1155860957   -1.3061012669
 H    0.7097063453   -0.6074352004   -0.3544292732
 H    0.4290877553    0.2396348779    1.1789851173
 H   -1.8847519808   -0.1927744487    2.3729541404
 H   -2.6941681707    0.8598664340    1.2163686223
 H   -4.5026053652   -0.7267095524    0.9643098433
 H   -3.0526927710   -2.6883282628   -1.8904562119
 H   -3.9027129347   -1.1410214904   -1.5391594665
 H   -0.8088289426   -2.9198887203    0.2434716340