20

 C   -0.0609551838    1.4872207111    0.0863917722
 C    0.0173052814   -0.0378916387   -0.0173859027
 C    0.7301017686   -0.4979532718   -1.2814610117
 O    0.7596487127   -1.9106382122   -1.3001252123
 C    1.4003015945   -2.4421394439   -2.4349197030
 C    1.3572725206   -3.9698345115   -2.3178092352
 C    1.9978105242   -4.6294477329   -3.4472906162
 C    2.5320264884   -5.1476186720   -4.3909357621
 H    0.9372838999    1.9385336755    0.1019254900
 H   -0.6056634642    1.9180654585   -0.7610009228
 H   -0.5766674416    1.7925753300    1.0012541557
 H    0.5446418205   -0.4521409212    0.8495547660
 H   -0.9888255212   -0.4724942483   -0.0077091174
 H    0.2097133255   -0.1151167310   -2.1768269712
 H    1.7572966580   -0.0942036449   -1.3117787808
 H    0.8960825637   -2.1213665577   -3.3608781256
 H    2.4456786375   -2.0987311457   -2.4966338151
 H    1.8438386543   -4.2623405972   -1.3797661568
 H    0.3101128662   -4.2846157081   -2.2363028000
 H    3.0001954849   -5.6184456280   -5.2191670612