22

 C   -0.0486604790    1.5087704637    0.2051050479
 C    0.0129549936   -0.0065644875   -0.0372375647
 C   -1.3929454085   -0.6197238400    0.0059812729
 C    0.7120017277   -0.3674696936   -1.3699526498
 O    0.0249922830    0.1945952265   -2.4911535196
 C    2.1885825537   -0.0330421296   -1.3923225613
 C    3.2000113940   -1.0354288822   -0.8921381134
 C    3.0951657756   -0.7386932227   -2.3666468289
 H    0.9446191891    1.9677561316    0.2373636685
 H   -0.6310151743    2.0052971501   -0.5791520242
 H   -0.5387007351    1.7262477441    1.1590918332
 H    0.6161495763   -0.4580915076    0.7624153279
 H   -1.9948111241   -0.2478044557   -0.8286687401
 H   -1.3527306161   -1.7116543909   -0.0721863150
 H   -1.9064474908   -0.3692894053    0.9398849311
 H    0.6137972936   -1.4523439627   -1.5107682454
 H    0.2929720171    1.1156964662   -2.5687885667
 H    2.4220329303    1.0113517490   -1.1964818727
 H    4.0638457866   -0.6688051078   -0.3488740455
 H    2.8309194625   -1.9933221500   -0.5397661741
 H    2.6480323127   -1.4908206754   -3.0079012628
 H    3.8913814020   -0.1714407701   -2.8357908973