18

 O   -0.0948121093    1.4042755120   -0.0546212841
 C    0.0001492677    0.0232311220    0.0035708063
 C   -1.3072727854   -0.7740387467    0.0915143428
 C   -0.9173415584   -2.0979391513   -0.4177642628
 C    0.1867104960   -1.9821770852   -1.4520918407
 C    1.0074609811   -0.7947232334   -0.9361159929
 C    1.7919429226   -1.2377876462    0.3332693224
 C    0.5586860877   -0.8545207241    1.1585583406
 N   -0.6530768318   -1.7726170179    1.0227178681
 H    0.7916230751    1.7802839250   -0.0394090218
 H   -2.3061761794   -0.3837565896    0.2504572310
 H   -1.6555484093   -2.8891103044   -0.5100971185
 H    0.7940789541   -2.8888305810   -1.5446250631
 H   -0.2649162368   -1.7829705499   -2.4316844604
 H    1.5446471702   -0.2410197052   -1.7085623749
 H    2.1348109278   -2.2759288732    0.3666517875
 H    2.6344380140   -0.5778072335    0.5655869306
 H    0.6442460043   -0.5301100973    2.1969071398