20

 C    0.0034626428    1.7635492357    0.0669435594
 C    1.4842251744    1.4579052183    0.0624389702
 C    1.1044461731    0.2206086896    1.0073447195
 C   -0.0893618308    0.1754005804   -0.0197039308
 C   -1.4600258268   -0.2085849842   -0.5487079338
 C   -1.2644520668    0.4819102675   -1.9717548109
 C    0.2812692459    0.4437074292   -2.2202623559
 C    1.5464772069    0.8177280860   -1.3534021778
 N    0.7784412074   -0.3993339797   -1.1536193894
 H   -0.3928586714    2.0613206211    1.0405589716
 H   -0.3841267461    2.4150564007   -0.7124028179
 H    2.2518788566    2.1827117466    0.3345794972
 H    1.7538801566   -0.6550495901    1.0146811473
 H    0.8607965335    0.5496447137    2.0183796506
 H   -1.6133823021   -1.2848003424   -0.6602375734
 H   -2.2928199357    0.2212234210    0.0117216973
 H   -1.7224623358   -0.1265538508   -2.7579637424
 H   -1.7326628386    1.4668593808   -2.0184128641
 H    0.5668048913    0.1378648968   -3.2275169896
 H    2.4984647355    0.7249947496   -1.8760094771