18

 C   -0.2550706350    1.5557217352    0.0640208878
 C    0.0488409150    0.0545936446    0.0211529047
 O    0.7019264631   -0.3130523574   -1.2083725374
 C    1.9196592828    0.2111973451   -1.5441615821
 N    3.0226522485    0.0640656098   -0.9524830713
 C    3.0806397170   -0.7469118406    0.2565840282
 C    2.2636884332   -0.1849244665    1.4349036437
 C    0.7662859759   -0.3867451025    1.3074708754
 O    0.1025669122   -0.8408038023    2.2112499866
 H    0.6634211080    2.1502508322    0.0836885702
 H   -0.8332087288    1.8392285542   -0.8193778482
 H   -0.8396696647    1.7908513886    0.9575969301
 H   -0.8864621924   -0.5075474726   -0.0027173308
 H    1.8818580705    0.7525725918   -2.4901551520
 H    2.7495739786   -1.7714819809    0.0362997223
 H    4.1279393424   -0.8052349237    0.5640993022
 H    2.5688266337   -0.6516255698    2.3748864287
 H    2.4708274600    0.8907166849    1.5140403718