18

 O   -0.0917989938    1.4160285732    0.0162517653
 C    0.0416084904    0.0007281292    0.0050633222
 C    0.7119260252   -0.4455201484   -1.2395094085
 N    1.2664575071   -0.7755716503   -2.1984572086
 C    0.7616660551   -0.5399594537    1.2126365274
 C    0.2447484159   -1.3689773723    2.1194643670
 C    1.2106984962   -1.6681159968    3.2379846275
 C    2.5567714663   -1.1166587169    2.6970451921
 C    2.1758883942   -0.1254974902    1.5670275605
 H    0.7884605489    1.8030972531   -0.0521790049
 H   -0.9820511017   -0.3865519476   -0.0108363258
 H   -0.7650437463   -1.7652754406    2.0901807303
 H    0.8955821193   -1.1575430733    4.1589838861
 H    1.2610783529   -2.7347434157    3.4822264195
 H    3.1682197467   -0.6538440934    3.4747788310
 H    3.1400940226   -1.9389043287    2.2723772190
 H    2.8612991963   -0.1805737828    0.7134141365
 H    2.1924980348    0.9162133352    1.9179859536