20

 C    0.0998589569    1.5229443410    0.8910250424
 O   -0.1343310039    0.1346903084    0.9176643649
 C    0.8774768983   -0.6061096083    0.2519251790
 C    0.5901113658   -2.0591335479    0.4124129664
 C    0.7624735037   -3.1298000101   -0.4351970678
 C    0.3789770743   -4.3142174063    0.2654425410
 C    0.4021106673   -5.7188582688   -0.2580361169
 C   -0.0224604887   -3.9125437802    1.5201714160
 N    0.1264244624   -2.5501919788    1.6057167227
 H    0.1125157468    1.9143109473   -0.1381938461
 H   -0.7138428089    2.0027863952    1.4401454234
 H    1.0573829357    1.7862098539    1.3683631751
 H    0.9180026685   -0.3516391321   -0.8188991105
 H    1.8602720727   -0.3368621931    0.6817007144
 H    1.1328103275   -3.0757218755   -1.4488812126
 H   -0.2093210130   -5.8261146604   -1.1618763569
 H    1.4169740156   -6.0414069856   -0.5204449079
 H    0.0164559818   -6.4232151912    0.4852141768
 H   -0.4097262517   -4.4852831631    2.3483671089
 H   -0.1863129212   -1.9606759745    2.3575642077