16

 C    0.0014719604    1.4703516792    0.0633057104
 C    0.0141301645   -0.0212189221   -0.0212585675
 C   -0.0965795966   -0.7936216384   -1.1583804578
 N   -0.0291556483   -2.1066007951   -0.7077894517
 C   -0.0503772538   -3.4440125791   -1.0874104628
 C    0.0821568066   -4.1745853889    0.0528545653
 N    0.1847225948   -3.3029723620    1.1309572195
 C    0.1153489587   -2.0195361813    0.6552586763
 N    0.1479155748   -0.7941787509    1.1238551765
 H    0.9291217159    1.8471668339    0.5080627049
 H   -0.1105047929    1.9197213539   -0.9272571963
 H   -0.8221667496    1.8220208552    0.6944284928
 H   -0.2105773264   -0.5413897512   -2.1980605426
 H   -0.1550010613   -3.7643195417   -2.1087768740
 H    0.1117266253   -5.2419742950    0.1863435852
 H    0.2913123378   -3.5536399363    2.0964314517