25

 C   -0.2351703645    1.6168148639    0.1488127270
 C   -0.0159177549    0.1031897994    0.0497833168
 C   -1.3400328973   -0.6710333356    0.0344381138
 C   -1.2617542412   -2.2178678450   -0.0885689159
 C   -0.5748366064   -2.6401608029   -1.4012774150
 C   -0.5267905167   -2.8287502796    1.1155491916
 C   -2.7089596431   -2.7040195472   -0.1567126913
 C   -3.2257424760   -3.9454057713    0.4336227361
 O   -3.4888897997   -2.6763015165    1.0408343430
 H    0.7165753559    2.1572729249    0.1599593895
 H   -0.8200157676    1.9889703111   -0.6997872605
 H   -0.7787822411    1.8791666203    1.0631227569
 H    0.5609560614   -0.1159931844   -0.8567842204
 H    0.6034604107   -0.2225812060    0.8935431072
 H   -1.9023644614   -0.4354033018    0.9471651448
 H   -1.9500022727   -0.2943721452   -0.7992392489
 H    0.4787734704   -2.3475556189   -1.4121524989
 H   -0.6173969740   -3.7270822388   -1.5291504730
 H   -1.0579086119   -2.1805472481   -2.2710408431
 H   -1.0834239487   -2.6507776815    2.0399970013
 H   -0.3955752795   -3.9088069678    0.9954478171
 H    0.4709480988   -2.3963383828    1.2248563925
 H   -3.2490488658   -2.3195543410   -1.0264578158
 H   -4.0893531393   -4.4340816300   -0.0163803357
 H   -2.5695756651   -4.6021554154    0.9998499110