21

 O   -0.1634076588   -0.0978525054   -0.0836144406
 C   -0.0364975136    1.0976850138   -0.0146979413
 C    1.2749447898    1.8445211006   -0.0773964831
 C    1.3125196902    2.8566421757   -1.2476146299
 C    2.5008965075    3.8232208142   -1.1116410824
 C    2.6867229859    4.6552147937   -2.3855669233
 C    2.9783454664    3.7526248796   -3.5936057639
 C    2.0926587643    2.5346145774   -3.6131525041
 C    1.3417507719    2.1463396032   -2.5829768375
 H   -0.9288651514    1.7601466851    0.0970950513
 H    1.3793636584    2.3989440757    0.8665918892
 H    2.0943275222    1.1235239852   -0.1500071282
 H    0.3837341121    3.4485821712   -1.1887610810
 H    2.3530418503    4.4731080370   -0.2415090656
 H    3.4129868577    3.2417522469   -0.9204276482
 H    1.7705437426    5.2290801738   -2.5755670495
 H    3.4923734720    5.3848874805   -2.2526225912
 H    2.8548647322    4.3153761133   -4.5275103295
 H    4.0318738816    3.4348237755   -3.5842164382
 H    2.0780053084    1.9527420997   -4.5321087026
 H    0.7180264402    1.2599812932   -2.6780642403