10

 N    0.1893280764   -1.0973593670   -0.0057206097
 C    0.0771188571    0.0547851631    0.0021016591
 C   -0.0978164751    1.4534386691    0.0121488631
 C   -1.2015825980    2.2608985384    0.0321746087
 N   -0.7989974406    3.5723090143    0.0335502832
 C    0.5017887198    3.5109620898    0.0147688201
 O    1.0079516069    2.2555556160    0.0007955376
 C    1.4218827702    4.5913562387    0.0075477722
 N    2.1720497872    5.4710063957    0.0016545854
 H   -2.2408042140    1.9748506421    0.0453705391