17

 C   -0.0713657543    1.4736451609    0.0447383428
 C    0.0482255481   -0.0380552329    0.0200823623
 O    0.6438373235   -0.4105099100   -1.2301845165
 C    0.8595887473   -1.7210939302   -1.4138578119
 N    1.3576649429   -2.1466836864   -2.4907151818
 C    1.5556204656   -3.5719525009   -2.6146148283
 C    0.8769783148   -4.1013508107   -3.8725846733
 O    0.5190556407   -5.2410345682   -4.0124047306
 H    0.9135610001    1.9389801503   -0.0468851599
 H   -0.6958938610    1.8233232679   -0.7814781291
 H   -0.5245145750    1.7973785308    0.9860894686
 H    0.6755508103   -0.3959229649    0.8473262696
 H   -0.9383218917   -0.5112938110    0.1123266288
 H    0.5746806499   -2.3595274404   -0.5625628653
 H    2.6306406144   -3.7754100470   -2.7447221573
 H    1.2153111773   -4.1704616107   -1.7546251613
 H    0.7517947971   -3.3362608167   -4.6696183468