21

 C    0.2571637423    1.4286775899    0.0764956738
 O    0.2288029402    0.0149597265   -0.0129139088
 C    0.6339240460   -0.6226723306    1.1592587023
 C    2.1656583089   -0.6119031557    1.4746040271
 C    2.1970074149   -2.1654024263    1.3375430746
 C    0.6552146411   -2.1884049021    1.2444132902
 C   -0.0598332219   -2.0906702277    2.6248246750
 C   -0.3136453351   -0.5715529227    2.3840492478
 O   -0.1261757664    0.3606226327    3.4202090803
 H    1.2772338051    1.8066207287    0.2402415797
 H   -0.1122614422    1.8168518190   -0.8753739988
 H   -0.3806296986    1.7994100577    0.8899253256
 H    2.7499812919   -0.0802993258    0.7212872322
 H    2.4462440515   -0.2177966269    2.4570042302
 H    2.6814010767   -2.4843905295    0.4114426772
 H    2.6372972086   -2.7251634565    2.1677393744
 H    0.1790853415   -2.8153837617    0.4918477393
 H   -0.9565727603   -2.6993786611    2.7539445239
 H    0.6090344590   -2.2855912129    3.4704491228
 H   -1.3316807779   -0.4078333160    2.0163724830
 H    0.7485662047    0.2192579410    3.7974251681