20

 C   -0.1504297792    1.5217319341    0.0260011129
 C   -0.0200541302    0.0066945617   -0.0284264107
 O   -1.2405313411   -0.6150928842   -0.3618441272
 C    1.1428289857   -0.5003648704   -0.9127025743
 N    1.9712058649   -0.6304114495    0.3094762919
 C    0.7864273660   -0.6155783651    1.1693617327
 C    0.8193482144   -0.0456660883    2.5976201759
 O    0.1007980723   -1.1869667437    3.1107321516
 C    0.2197946097   -1.8811942317    1.8517302374
 H    0.8143670398    1.9865220191    0.2470818488
 H   -0.5115038069    1.9011117915   -0.9349949847
 H   -0.8587316474    1.8313089781    0.8046822488
 H   -1.9463175138   -0.1915536285    0.1390551837
 H    0.8718433509   -1.4478946631   -1.3944560728
 H    1.5436401080    0.1880473126   -1.6642171564
 H    2.5505109285   -1.4611197085    0.3710203867
 H    1.8352049959    0.0305213386    3.0099345958
 H    0.2875363061    0.8958175076    2.7828527598
 H   -0.7423395719   -2.2479258308    1.4795913209
 H    0.9355786582   -2.7154875495    1.9064988692