17

 N    0.0508739023    1.3415944500   -0.1500703141
 C   -0.0210060093    0.0945282503    0.0073366573
 O    1.0915696936   -0.7398934657    0.0696964876
 C    0.7540554998   -2.1239304052    0.3427320669
 C   -0.6834714929   -2.0055468242    0.7746308336
 C   -2.1171191696   -2.5995517370    0.8348723581
 C   -2.1825879827   -1.0769661052    1.2357361471
 N   -0.9384756761   -1.2385775047    2.0735845375
 C   -1.2415392905   -0.7841251982    0.0328593881
 H    1.0269679622    1.6428131342   -0.1844991928
 H    0.8793581820   -2.7198144585   -0.5688470940
 H    1.4349255418   -2.4871183822    1.1165992879
 H   -2.5822084711   -2.9140168554   -0.1047456843
 H   -2.3194533467   -3.3063254812    1.6442386935
 H   -3.0470930207   -0.5092488169    1.5800632735
 H   -1.1189866292   -1.9107996470    2.8254690469
 H   -1.6612305226   -0.9539169132   -0.9606629029