21

 O   -0.1044018361    1.4777518189    0.3779863680
 C   -0.0176260307    0.0961510041    0.1721215959
 C   -0.6837265672   -0.8452238266    1.1452620422
 C   -1.2780861396   -0.6115718869   -0.2331497811
 C   -2.5825782807    0.1421688680   -0.3863828670
 C   -3.8106312056   -0.7403685770   -0.1362413667
 C   -5.1329879239    0.0323594782   -0.3177565478
 C   -6.3137050953   -0.7883976834   -0.0781311565
 C   -7.2699240482   -1.4881737458    0.1251302788
 H    0.4492116473    1.6993207094    1.1336499861
 H    0.9120295616   -0.2327689140   -0.2926869054
 H   -0.2117553653   -1.7954131187    1.3707223384
 H   -1.2008514915   -0.3843841362    1.9814819281
 H   -1.1424697066   -1.4217851943   -0.9458261615
 H   -2.5862868248    0.9966864729    0.2984502833
 H   -2.6378022204    0.5661211300   -1.3985137325
 H   -3.8044684808   -1.5983571564   -0.8189916782
 H   -3.7724473966   -1.1536915023    0.8778522218
 H   -5.1450832034    0.8965548179    0.3597355650
 H   -5.1764695487    0.4467121402   -1.3337805763
 H   -8.1218032334   -2.0962839581    0.3021364754