16

 O    0.0115076707   -0.0343398339    0.1069196805
 C   -0.0336426393    1.1752894715    0.1108877304
 C   -1.2900450088    2.0574997884    0.0934527710
 C   -0.7709828191    3.4578207279    0.3792767747
 C   -1.6000025137    4.6781835777    0.3023197030
 N   -1.1353064259    4.1735323193    1.6109687780
 C    0.7222648135    3.4404300859    0.0376299627
 N    1.0393942141    2.0249068365    0.1122854484
 H   -1.7473213066    1.9766788793   -0.8997341286
 H   -2.0217578346    1.6976500192    0.8211551007
 H   -1.1581363689    5.6232625111   -0.0042218601
 H   -2.6486920015    4.5659852417    0.0378597219
 H   -1.8954955403    3.6903531574    2.0845408011
 H    0.9137033945    3.8470907499   -0.9661372060
 H    1.2858062844    4.0301889265    0.7663326917
 H    1.9741618414    1.6578777515    0.0310704806