17

 C    0.0301826135    1.4882258223   -0.0435575216
 C    0.0163207242   -0.0048175593    0.0329843827
 N   -0.0161379905   -0.7474725463   -1.0814355609
 N   -0.0199756629   -2.0107249588   -0.6606936989
 C    0.0089753090   -2.1214961246    0.6963840768
 C    0.0093021135   -3.4307867842    1.3270983722
 O   -0.0154393157   -4.4725236167    0.7014471938
 C    0.0335213960   -0.8192844274    1.1912215484
 C    0.0698708409   -0.3622387396    2.6156570215
 H    0.9268285356    1.9065955224    0.4279068337
 H    0.0102096141    1.8069627090   -1.0874507657
 H   -0.8356188979    1.9249736126    0.4672481792
 H   -0.0423929208   -2.7793445405   -1.3116663754
 H    0.0339666326   -3.4227923912    2.4356902971
 H    0.9612771907    0.2431938691    2.8168541606
 H   -0.7987843859    0.2617850102    2.8557949186
 H    0.0764886836   -1.2013576270    3.3152594481