18

 C   -0.1333423538    1.5224301030    0.0071218733
 C   -0.0280840932    0.0216524485    0.0076630282
 C   -0.1015295926   -0.7268685199   -1.1290269810
 N    0.0329020151   -2.0828412230   -1.1813675209
 C    0.6232955462   -2.7685340253   -0.0359756831
 C   -0.0011323785   -2.2037823440    1.2368881985
 O    0.5808714971   -2.7732377136    2.3728170434
 C    0.1548696187   -0.6739364215    1.2665107642
 O    0.3788701698   -0.1367270321    2.3451507272
 H    0.7715808999    1.9799403247    0.4208663582
 H   -0.2807170481    1.9105575127   -1.0050086879
 H   -0.9664473229    1.8648704945    0.6308711417
 H   -0.2877773811   -0.2508989366   -2.0885865111
 H    0.2031781073   -2.4834820234   -2.0894404265
 H    0.4346173248   -3.8419051103   -0.1138192457
 H    1.7132199652   -2.6101464460    0.0042466449
 H   -1.0893560293   -2.4038514903    1.2013830428
 H    0.7055503454   -2.0191267072    2.9757370240