19

 O    0.0722094798    1.4474135463   -0.1141095407
 C    0.0151150969    0.0268478835    0.0091185826
 C    0.7428836079   -0.4714034972    1.2628301974
 C    0.0452973338    0.0172183809    2.5414924192
 C   -1.4506027248   -0.1473353989    2.4692097349
 C   -2.1123030993   -0.3806836033    1.3323982560
 C   -1.4290839086   -0.4591370432    0.0182408388
 C   -2.1960773004   -0.4113492786   -1.2349700423
 O   -1.6963194402   -1.6562339431   -0.7499782939
 H   -0.5045047987    1.8258310702    0.5584444109
 H    0.5008531920   -0.3638721152   -0.8894525257
 H    0.7434649442   -1.5678692301    1.2426700357
 H    1.7839273419   -0.1369149681    1.2395567533
 H    0.4314954992   -0.5247615447    3.4125778012
 H    0.2928348101    1.0722238141    2.7310733157
 H   -2.0030710011   -0.0728464142    3.4028969546
 H   -3.1889720421   -0.5270710649    1.3351063252
 H   -3.2793331393   -0.2971959345   -1.2014303565
 H   -1.7152858911   -0.0241757491   -2.1324321864