17

 C    0.0531718949    1.5936615782   -0.0344399090
 C    0.0102185175    0.0686921443    0.0700178044
 N    0.7010331423   -0.5773793906   -1.0910538293
 C    1.5232664553   -1.7473072627   -0.6852825870
 C    1.6221676967   -1.5091390208    0.7825243543
 C    0.7903734911   -0.5167852175    1.2073282963
 N    0.9126601970   -0.3562388057    2.5479071956
 N    1.7958808560   -1.2164305369    2.9799213611
 N    2.2371847053   -1.9304545223    1.9024695393
 H    1.0881689075    1.9386960887   -0.1008525165
 H   -0.4820094771    1.9338718578   -0.9264717347
 H   -0.4162671495    2.0480326575    0.8437418141
 H   -1.0445059242   -0.2478118703    0.1336097068
 H    0.0472889580   -0.8215544477   -1.8230105864
 H    1.0475445546   -2.7171535500   -0.9068074889
 H    2.4922390570   -1.7384568054   -1.2022099464
 H    2.9348551876   -2.6417666364    2.0483378462