21

 C    0.1664900363    1.5309222346    0.0841306624
 C   -0.0140302014    0.0218983588   -0.0267102928
 C   -1.4937668859   -0.3768171148    0.0219218927
 C    0.6928809212   -0.6044920527   -1.2617832050
 C    1.2370117804   -1.9327762375   -0.7290442154
 O    0.8777692347   -3.1205466009   -1.3671346681
 C    2.5048896683   -1.8752713397    0.0980778167
 C    1.1397844578   -1.8324344153    0.7585922323
 O    0.6616294319   -0.5687342301    1.1168133216
 H    1.2292714700    1.7885914582    0.0965459229
 H   -0.3066869146    2.0392809958   -0.7618470987
 H   -0.2875722343    1.9049603776    1.0065117409
 H   -2.0540385403    0.0906413265   -0.7946923004
 H   -1.6032640734   -1.4619761290   -0.0689162506
 H   -1.9362642825   -0.0633065491    0.9717606486
 H   -0.0089195937   -0.7919357877   -2.0780044547
 H    1.4871801682    0.0500334777   -1.6365081864
 H    1.4885885783   -3.2630576087   -2.0984857064
 H    3.0595791694   -2.8031727265    0.1950930091
 H    3.0966100993   -0.9656659948    0.0969495604
 H    0.8086371304   -2.6610699724    1.3764529609