21

 C   -0.1378858289    1.5226829162   -0.0066838066
 C    0.0017995992   -0.0009107700    0.0177817970
 C    0.7171169027   -0.5531509819   -1.2235413478
 C    0.7822980536   -2.0485788766   -1.2407628728
 O   -0.4755957885   -2.8087032087   -1.2423203083
 C    0.5673068596   -3.8232924984   -1.2589647377
 C    1.5125034998   -3.0365861696   -2.2155249719
 C    2.7171273797   -3.1952089298   -1.2630843199
 C    1.5229707553   -3.0614389941   -0.2939367393
 H    0.8414702170    2.0125746336   -0.0525140681
 H   -0.7128914026    1.8530472908   -0.8788534813
 H   -0.6511359779    1.8886414422    0.8878750756
 H    0.5517546330   -0.3088350143    0.9158802747
 H   -0.9859754521   -0.4691238807    0.0885983199
 H    0.1982935680   -0.2197385646   -2.1319215982
 H    1.7401215194   -0.1581950420   -1.2835036874
 H    0.2766295898   -4.8733263530   -1.2701820274
 H    1.4720497972   -3.0209550335   -3.3049877916
 H    3.2258920204   -4.1630006522   -1.2785756409
 H    3.4493159502   -2.3829006335   -1.2565801990
 H    1.4954827050   -3.0772922601    0.7957594510