14

 C   -0.0162483149    1.4874113994    0.0744348815
 C   -0.0009432750    0.0027808390   -0.0414757176
 C   -0.0392267200   -0.7671791068   -1.1658988272
 C   -0.0023874085   -2.1598116221   -0.7574160075
 O   -0.0153429122   -3.1995867323   -1.3833483274
 C    0.0641145403   -2.1155520093    0.7864311129
 N    0.1133153883   -3.0714201276    1.6139565110
 N    0.0594744531   -0.7658013975    1.1090783669
 H    0.8845885661    1.8449885398    0.5868794219
 H   -0.0653510475    1.9530764302   -0.9104024097
 H   -0.8787654582    1.8208292415    0.6633852949
 H   -0.0882850727   -0.4024708473   -2.1795403169
 H    0.1020989733   -3.9451502441    1.0780856970
 H    0.0957676578   -0.4093116927    2.0488312402