18

 C   -0.0116668992    1.4242275461   -0.0784420011
 C    0.0006492865   -0.0746674039   -0.0775727094
 C    0.7109683213   -1.0753672597   -1.0313591196
 C    0.0565582862   -1.9163922236    0.0857834594
 N    0.4958196156   -0.8942711435    1.1265449744
 C   -1.2454806252   -1.0394787603   -0.0302876045
 O   -2.0625779394   -0.9669711078    1.0968434875
 C   -2.1800591304   -1.1926387387   -1.2117402548
 O   -1.9174418764   -0.9822355426   -2.3693001984
 H    0.9993411380    1.8285567107    0.0386605099
 H   -0.4208546527    1.7970508320   -1.0224197897
 H   -0.6316960172    1.7999656247    0.7414351064
 H    0.3432631509   -1.1665211757   -2.0518061085
 H    1.8034348012   -1.0430106123   -0.9825519867
 H    0.1183362042   -2.9880091158    0.2795365683
 H    1.5189247440   -0.8634238287    1.1601722847
 H   -1.4403297100   -0.9019037315    1.8392731620
 H   -3.1928078275   -1.5202751394   -0.8945379899