24

 C   -1.0004895532   -0.2648510078   -2.5433086393
 C   -0.5075346468   -0.6951881938   -1.1784565097
 C    0.9610415215   -0.8556988905   -0.8243429019
 C    2.0922266834   -0.5971928736   -1.7967803804
 C    0.1385131976    0.2432645809   -0.1746131479
 C    0.3957396987    1.6978457284   -0.5252771879
 N   -0.2307527587   -0.0895993633    1.1920480025
 C    0.2720655154    0.6730823442    2.3252965853
 C   -1.1700791032    0.7298640870    1.9439710225
 H   -0.3312105235    0.4410303847   -3.0410476054
 H   -1.1021881304   -1.1326162630   -3.2047965933
 H   -1.9850724388    0.2114143072   -2.4733397907
 H   -1.1519420036   -1.4293387928   -0.7027781310
 H    1.1576228692   -1.6811920014   -0.1459999641
 H    1.8786973998    0.2095990754   -2.5020426238
 H    3.0134094519   -0.3312608715   -1.2657463594
 H    2.3034014027   -1.4952996667   -2.3882022747
 H    0.5945455302    1.8249538552   -1.5901590762
 H   -0.4653385603    2.3320327708   -0.2873426226
 H    1.2648566899    2.0942271042    0.0109802137
 H    0.5988547421    0.0848063982    3.1789958101
 H    0.8612005635    1.5691750470    2.1447244607
 H   -1.5282794087    1.6626140884    1.5135838111
 H   -1.9173184787    0.1820362930    2.5124054926