21

 C   -0.0343009151    1.4944219801    0.0352687900
 C    0.0002563578    0.0384038951    0.0140519972
 C    0.0329977740   -1.1660463297    0.0079947547
 C    0.0313396405   -2.6290812658   -0.0109088720
 C   -1.4083788134   -3.1677216023    0.0970842738
 C    0.7669119612   -3.1724849163   -1.2814776623
 C    2.2080536960   -2.6384452537   -1.3918789894
 C    0.7669065030   -4.6345751930   -1.3008269516
 C    0.7998300867   -5.8368628637   -1.3052624164
 H    0.7434052386    1.9028225377    0.6901990352
 H    0.1240450100    1.9115588586   -0.9654499821
 H   -0.9998319263    1.8646394229    0.3975058879
 H    0.5978077762   -2.9906665551    0.8586310484
 H   -1.8867169876   -2.7949954010    1.0062671484
 H   -2.0068946455   -2.8375977687   -0.7579268217
 H   -1.4067267702   -4.2598938542    0.1202049762
 H    0.1999873664   -2.8163803334   -2.1525814649
 H    2.2044098327   -1.5464842749   -1.4127222862
 H    2.8064856634   -2.9691221171   -0.5372003333
 H    2.6855815181   -3.0103233399   -2.3018183769
 H    0.8203894336   -6.8983681457   -1.3215954349