11

 N    0.9248261753    0.1209032048   -0.5965466607
 C   -0.1536040948    0.5375152072   -0.0727285682
 N   -1.3190514018   -0.1973143914   -0.2400796152
 C   -2.5446637195    0.1544871195    0.2799440734
 N   -2.7274108322    1.2079241089    0.9768861820
 C   -3.6017586970   -0.7901767865   -0.0442210657
 N   -4.4716824430   -1.5147413429   -0.2782640094
 H    1.6900435411    0.7598182038   -0.3897134029
 H   -0.3068502749    1.4383310200    0.5227372757
 H   -1.2378347415   -1.0442120912   -0.7843769805
 H   -3.6968441016    1.2952505678    1.2698687014