20

 C    0.0819563479    1.5302555000   -0.0889892847
 C    0.0132752099    0.0106706014    0.0575261062
 N   -1.3504597536   -0.5136764004    0.0052666892
 C   -1.3966252715   -1.9603162078   -0.1184937348
 C   -2.8244461677   -2.3688606792   -0.4213618562
 O   -3.7583072006   -1.9042082117    0.5670444750
 C   -3.5283400839   -0.7636011995    1.2518287242
 O   -4.3759982383   -0.3254895192    1.9801729045
 C   -2.1569950124   -0.1021466270    1.1450298470
 H    1.1256483639    1.8490864719   -0.1651470605
 H   -0.4461000127    1.8522485007   -0.9912500274
 H   -0.3548185703    2.0505161408    0.7680994321
 H    0.5655562308   -0.4518850646   -0.7682295504
 H    0.5242493239   -0.2971285267    0.9916478356
 H   -0.7590673201   -2.2762844856   -0.9507975330
 H   -1.0352925198   -2.4788244216    0.7921070911
 H   -3.1277364831   -1.9634979620   -1.3930213218
 H   -2.9333828049   -3.4562208816   -0.4409345245
 H   -1.6529678831   -0.3180025279    2.1103312731
 H   -2.3409495743    0.9734378801    1.1242484852