18

 C   -0.0132346462    1.5552504520    0.6264192059
 C   -0.4237172124    0.4570284326   -0.3350575151
 C   -0.0512662198   -0.9852075758   -0.0579477352
 C   -1.4858009875   -0.5325385520    0.0577647254
 C    1.3679085994    2.0830510562    0.3852979285
 N    1.8111585204    3.2992680890    0.6621555953
 C    3.1165360640    3.2468326070    0.2771275421
 N    3.5141894561    2.0893009138   -0.2228706770
 N    2.3767611814    1.3554489537   -0.1428022483
 H   -0.7025152698    2.4037085050    0.5699111651
 H   -0.0789504428    1.1788182565    1.6565754816
 H   -0.4157855114    0.7549443699   -1.3802049112
 H    0.2202998313   -1.6231107135   -0.8921205660
 H    0.4796648178   -1.2062787680    0.8629152262
 H   -1.9105386656   -0.4520478781    1.0528969170
 H   -2.1896409311   -0.8578756244   -0.6995800227
 H    3.7902940270    4.0862780371    0.3639761102
 H    2.3605310691    0.4032835290   -0.4686788819