16

 O    0.0979688396    1.3830325030    0.0581691125
 C    0.0188011753    0.0067823324    0.0474978720
 C   -0.3353175678   -0.8148589106   -1.1470872582
 C   -1.2846625026   -0.8120517959    0.0611733617
 C   -1.0522634672   -1.9166352660    1.0866083185
 O    0.3604462566   -1.9767229715    1.2433538706
 C    0.8898241903   -0.6669515183    1.0942092430
 C   -2.5478161831   -0.1597038685   -0.0488191467
 N   -3.5538444819    0.4059545933   -0.1461166446
 H   -0.5596072107    1.7543007624   -0.5407244593
 H   -0.6921595205   -0.2889173411   -2.0262645465
 H    0.2097200925   -1.7324175512   -1.3455557894
 H   -1.5592345164   -1.6603962896    2.0287024520
 H   -1.3866053176   -2.9056631961    0.7606835714
 H    1.9377423111   -0.7662553472    0.7980143299
 H    0.8332247725   -0.0822552851    2.0247095328