16

 O   -0.0782132669    1.3336701999   -0.1680106312
 N    0.0290213522   -0.0378058174   -0.0390364817
 C   -1.0931294873   -0.6412013409    0.0574174120
 C   -1.1491005510   -2.1487263822    0.1942416667
 C   -2.5560470771   -2.4335576322    0.7162790140
 C   -2.9609159860   -1.7222251453    1.9632971132
 C   -3.3844024109   -1.1611055880    0.6071805553
 C   -2.5056184289   -0.0785559881    0.0682870523
 O   -2.8588040014    1.0048975925   -0.3276517054
 H    0.8455424080    1.6074561101   -0.2076785093
 H   -1.0165995628   -2.6138583751   -0.7904847681
 H   -0.3598664972   -2.5351425439    0.8455900622
 H   -3.0058734393   -3.3923421702    0.4888471274
 H   -3.7585384986   -2.1487115183    2.5606286476
 H   -2.2096372429   -1.1855651623    2.5348996490
 H   -4.4357797300   -1.1432195185    0.3519717460