19

 O    0.0411004764    1.4955312020    0.0126652197
 C    0.0512510870    0.0989036566   -0.0092631716
 C   -0.3328478811   -0.6798180288    1.2235760365
 C   -1.2475419237   -0.6672131868   -0.0027091790
 C   -1.2875988468   -2.1657816096   -0.3698143773
 C    0.0392985388   -2.6460152228   -1.0033236381
 C    0.9735607365   -2.6588725388    0.2491744248
 C   -0.0071662741   -2.1834220184    1.3467800047
 O   -1.2357357576   -2.8026843147    0.9208899408
 H   -0.6918997669    1.7913271683    0.5625554621
 H    0.8769640527   -0.2294290588   -0.6285408740
 H   -0.5840586155   -0.1283840983    2.1243956686
 H   -2.1771146562   -0.1064273839   -0.0113405048
 H   -2.1933126035   -2.4707613537   -0.8928958554
 H   -0.0884990697   -3.6515435166   -1.4091943254
 H    0.3921353331   -1.9985687730   -1.8093932622
 H    1.3162487751   -3.6708758084    0.4740396028
 H    1.8530928958   -2.0186687431    0.1492153938
 H    0.2329872797   -2.5041886813    2.3598838041