18

 C   -0.7825001677    0.9337115855    0.0549194794
 N    0.1381561702   -0.2009231187    0.0279625890
 C    1.4881072423    0.0125608373   -0.4169989868
 C    1.2215355580   -0.3146727737    1.0292279452
 C    1.4748750731    0.7504262584    2.0466900942
 O    1.4403758992    1.9389363082    1.7925025763
 C    1.7893845140    0.2859145572    3.4682646629
 C    3.0261117935    0.9865414919    4.0176086761
 O    3.8610192892    0.4372733827    4.6846707060
 H   -0.3144652453    1.8901054646    0.3118566370
 H   -1.2344568851    1.0093381689   -0.9386580296
 H   -1.5801949726    0.7235705077    0.7739806784
 H    1.9177466342   -0.7582892716   -1.0517972357
 H    1.8143025735    1.0324771117   -0.6137946561
 H    1.3745022498   -1.3329630446    1.3749722118
 H    0.9440675974    0.6059974578    4.0943868782
 H    1.9011821654   -0.7947838691    3.5701480514
 H    3.0901930710    2.0605762558    3.7486799124