18

 C   -0.0406011917    1.5361899404   -0.0599627225
 C   -0.0152522290    0.0117115499    0.0241136262
 C   -1.3900511857   -0.6130517892   -0.1950903098
 N    1.0618961582   -0.6080002676   -0.7868044283
 C    1.7725998592   -1.1646329626    0.2524336982
 O    2.7800075814   -1.8152456653    0.3146644113
 C    0.7532425093   -0.5790072620    1.2398678285
 C    0.9321426764   -0.0985103843    2.6079154194
 O    0.1608660341   -1.2726180703    2.3103284102
 H    0.9502863601    1.9566105478    0.1330982872
 H   -0.3658814167    1.8660872396   -1.0528744152
 H   -0.7432873393    1.9511384348    0.6697352445
 H   -1.7935625454   -0.3326577659   -1.1739749650
 H   -1.3356619816   -1.7027557246   -0.1397413890
 H   -2.0900834366   -0.2677723240    0.5717203575
 H    1.2694781564   -0.5485753615   -1.7725086918
 H    1.8774174943   -0.2803680582    3.1155187920
 H    0.3588047166    0.7590006229    2.9564338567