13

 O   -0.0009411328   -0.0219429319    0.0189158028
 C    0.0226475927    1.1668893499   -0.0275366045
 O    1.1816392084    1.8707080819   -0.0479727666
 C    1.1064209994    3.2726608941   -0.1343206042
 C    2.1694613546    4.0556499802    0.6357426811
 O    3.4195917402    3.7359592711    0.0472552639
 C    2.6387659876    4.7745077417   -0.5815026065
 C    1.6427162248    3.9954331828   -1.4326818285
 O    1.2970272580    3.9979475154   -2.5713131932
 H   -0.8724404239    1.8182766947   -0.0526070803
 H    0.0875041604    3.6356036683    0.0632789301
 H    2.1542118166    4.4074282713    1.6596210269
 H    3.0854099741    5.7534521705   -0.6965461610