18

 C   -0.0573975033    1.5944117354    0.0686031035
 C    0.0164112429    0.0673497640    0.0186743309
 C    0.7013501620   -0.4396534078   -1.2570212584
 O    2.0369574319    0.0186996895   -1.2568011395
 C    2.7451543625   -0.2009039246   -2.4603974074
 C    4.1472855966    0.3567542911   -2.2826963591
 O    4.9347682828    0.4611235240   -3.1832359530
 C    0.6522834548   -1.9180486253   -1.3366749629
 N    0.6256059906   -3.0712777791   -1.4039940619
 H    0.9412300387    2.0345314210    0.0233844594
 H   -0.6427503336    1.9908792773   -0.7682667814
 H   -0.5357399507    1.9228644082    0.9951302340
 H    0.5732235277   -0.3224345038    0.8770451097
 H   -0.9860356876   -0.3711315309    0.0603469470
 H    0.1682382133   -0.0490088101   -2.1399244620
 H    2.8213188487   -1.2743823281   -2.6957951787
 H    2.2622320739    0.2943833774   -3.3165588363
 H    4.3825472986    0.6530772017   -1.2372136639