14

 C    0.0229730948    1.5061252522   -0.0323706926
 C    1.5275843889    1.9385172597    0.0218973681
 C    2.1519629512    0.7540085466    0.6921019152
 N    3.2679871273    0.4439064253    1.2765642274
 O    3.1032465975   -0.8794345502    1.6493912837
 N    1.8617391889   -1.3691818785    1.2803685740
 C    1.2825581242   -0.3669230193    0.6944539469
 C   -0.0214012692   -0.0586036157    0.0260882792
 H   -0.4903868407    1.9061373962    0.8470561160
 H   -0.4874851602    1.9001928113   -0.9133372531
 H    1.9423976669    2.0684409881   -0.9844414315
 H    1.6757250977    2.8785935118    0.5575377987
 H   -0.8939774766   -0.4345468389    0.5644907070
 H   -0.0460899335   -0.4953330520   -0.9790613991