17

 C   -0.0194235857    1.3706614148    0.1103007509
 O   -0.0305536226   -0.0542545174    0.0367398291
 C   -1.2518612816   -0.6070279916    0.0328169429
 N   -2.4070029973    0.0148166213    0.0811542573
 C   -3.3498898837   -0.9953042608    0.0453249092
 N   -4.7132740088   -0.6870695440    0.1516912552
 C   -2.7571248393   -2.2284458557   -0.0264891211
 N   -3.2151703134   -3.5579775373   -0.0557630742
 N   -1.3746628147   -1.9470198950   -0.0346822210
 H    1.0323541468    1.6593694937    0.1116879975
 H   -0.5338710786    1.8090987464   -0.7501930130
 H   -0.5117190049    1.7171885431    1.0238410021
 H   -5.2969132404   -1.3024610487   -0.4010831344
 H   -4.8782445719    0.2744053413   -0.1190865717
 H   -3.8216830730   -3.7808640942    0.7256124979
 H   -3.6983780502   -3.8034088851   -0.9136698398
 H   -0.6352616509   -2.6273671410   -0.0639440870