17

 C    0.0453266708   -1.1896698862    0.0423402261
 C   -0.0233049112    0.0135725985    0.0286812727
 C   -0.0446932284    1.4276322202    0.0228041689
 C   -1.1227606125    2.2151892791   -0.1218033147
 C   -0.7540796967    3.6494690925   -0.1003461861
 C   -1.4658095232    4.6802395476   -0.8770175840
 O   -1.6468386483    4.5790009170    0.5348080797
 C    0.7331955875    3.7084689977    0.2626828163
 C    1.2337363825    2.2468533313    0.1556916415
 H    0.0887983821   -2.2505341005    0.0532916628
 H   -2.1425675955    1.8753571535   -0.2500713639
 H   -0.9172423145    5.5576357020   -1.2202449185
 H   -2.3304009043    4.4096678835   -1.4832235331
 H    1.2933423844    4.3921742832   -0.3791942537
 H    0.8189360359    4.0773578409    1.2888757947
 H    1.8231490794    1.9313947325    1.0221693877
 H    1.8692584620    2.0934113771   -0.7242755562