18

 C   -0.0122041958    1.6243743468    0.0087299884
 C    1.4743307459    1.1771661957   -0.1025940433
 C    1.1642238680    0.1871480049    1.0590961490
 C    2.0609045195   -0.9787430967    1.4364844189
 O    2.1886668118   -2.0879714988    0.5413229557
 C    2.2240710668   -1.9162037084   -0.7990586939
 N    1.7567579978   -1.0146595735   -1.5447082073
 C    0.9670865991    0.1012148192   -1.1207433690
 C   -0.0467258607    0.0703629464    0.0845936053
 H   -0.2924464110    2.1606795160    0.9179548515
 H   -0.4530865486    2.0798174470   -0.8808184245
 H    2.3549228784    1.8128090661   -0.2121940823
 H    0.9266210952    0.7016437293    1.9993813973
 H    3.0714672930   -0.5997005199    1.6491434558
 H    1.6849929616   -1.4301295655    2.3596637327
 H    2.7319353935   -2.7713103352   -1.2464952601
 H    0.5344960935    0.5487210077   -2.0201313756
 H   -0.9258246380   -0.5675359210    0.1868609715