27

 C    0.1242880407    1.6161564086    0.0267971890
 C    0.0175189038    0.0870187712    0.0062237495
 C   -1.4179942961   -0.4473092485   -0.1717625947
 C   -1.9849884018   -0.1291962398   -1.5645662515
 C   -1.5311817406   -1.9471120297    0.1757452620
 C   -0.7087677880   -2.8534773090   -0.7473087365
 C   -1.2901302892   -2.3042173657    1.6815804761
 C   -2.5739217132   -3.1744503022    1.6665255953
 C   -2.9927362619   -2.4857418734    0.3413667925
 H    1.1564544502    1.9342914467    0.2053177340
 H   -0.1956228393    2.0624337107   -0.9199297176
 H   -0.4967663189    2.0450201365    0.8215792780
 H    0.6574050010   -0.3067894563   -0.7937389384
 H    0.4274513952   -0.3060715608    0.9451084458
 H   -2.0475693710    0.0770074942    0.5635318919
 H   -2.9867643392   -0.5522891489   -1.6916137602
 H   -2.0643298278    0.9497004610   -1.7258512538
 H   -1.3486354384   -0.5335903102   -2.3592173709
 H    0.3587175172   -2.6145623511   -0.7021031980
 H   -0.8198422020   -3.9039577164   -0.4579967566
 H   -1.0309471336   -2.7686791738   -1.7902547892
 H   -0.3488020313   -2.8033023854    1.9290672357
 H   -1.3954917045   -1.4284249393    2.3298089149
 H   -2.3576731583   -4.2380101043    1.5362817649
 H   -3.2534434196   -3.0700832619    2.5154997002
 H   -3.7081033288   -1.6744631897    0.5090644662
 H   -3.3790904946   -3.1253201028   -0.4574219588