12

 C   -0.1025537032    1.4990712737   -0.0013364225
 C   -0.0051977391   -0.0034311418   -0.0272346955
 C   -0.0068853597   -0.7689073987    1.2643474432
 N    0.0818679901   -0.6920279094   -1.1008730597
 O    0.0743906678    0.1321539450   -2.2419525781
 H    0.7834209303    1.9469086155   -0.4635404957
 H   -0.9615043039    1.8361408199   -0.5902196486
 H   -0.1985417291    1.8746298935    1.0193160678
 H   -0.9262001248   -0.5729794561    1.8298247950
 H    0.0725615375   -1.8406478231    1.0751686279
 H    0.8293717753   -0.4555334013    1.9013308899
 H    0.1397592387   -0.5125429873   -2.9538926036