20

 C    0.0200560893    1.5965379992    0.1313656259
 C    1.5540682651    1.5041533306    0.1281295450
 C    1.5197236234    0.0118743963   -0.1284475872
 C   -0.0184292176    0.0334129289   -0.0401573562
 O   -0.7983183664   -0.6052983383   -1.0172550328
 C   -0.7686990693   -0.0658226888   -2.3267509728
 C    0.6207762004    0.0432087250   -2.9614547785
 C    1.4962033068    1.1790219354   -2.4199317716
 N    2.0741801778    0.9350231810   -1.0915157857
 H   -0.4053953875    1.9138349438    1.0852082358
 H   -0.4185892503    2.2071853904   -0.6614412171
 H    2.2228949910    2.0714073571    0.7662069209
 H    2.1554745941   -0.7812485960    0.2531442947
 H   -0.3288119443   -0.4239019945    0.9038200457
 H   -1.3917637040   -0.7439526540   -2.9184127108
 H   -1.2574332503    0.9221527295   -2.3471783111
 H    1.1471952549   -0.9127749326   -2.8534291523
 H    0.4800535514    0.2075912199   -4.0376989294
 H    2.3369952596    1.3325593199   -3.1069266088
 H    0.9251311460    2.1178574670   -2.4214120036