18

 C   -0.1082982009    1.4063416252    0.0533772874
 N    0.0083080966   -0.0395982544    0.0442513342
 C    0.6181486997   -0.5953086695   -0.9164083204
 N    0.8212361581   -1.9596881302   -1.0408309484
 C    1.3248561280   -2.3238990280   -2.3565366808
 C    0.3315131787   -3.0790523616   -3.2468862593
 C    1.6774856544   -0.9546101222   -2.9572501191
 O    2.2194912152   -0.7361835507   -4.0121959697
 N    1.2256782638   -0.0220855635   -2.0485866225
 H    0.8258081304    1.8933772421    0.3713516945
 H   -0.3945283501    1.8362275968   -0.9208086825
 H   -0.8801855449    1.6986510076    0.7703895367
 H    0.1858329456   -2.5584510980   -0.5384016367
 H    2.2517701418   -2.9062459693   -2.2768599593
 H   -0.6017921042   -2.5180196455   -3.3551904790
 H    0.7687710858   -3.2261920857   -4.2378499863
 H    0.0999920605   -4.0597268809   -2.8203369822
 H    1.3186070515    0.9693412577   -2.1944975367