17

 N   -0.1083882345    1.3208726700    0.0788230918
 C   -0.0611691069   -0.0578991042    0.0092901668
 N   -1.0998893567   -0.8650671662   -0.0886169313
 C   -0.5290733567   -2.1130766947   -0.0332641267
 C   -1.3333807250   -3.3682620808   -0.1135280703
 C   -2.0869271297   -3.4925546422   -1.4379537357
 O   -2.8457528156   -4.6913273176   -1.3837466856
 N    0.7858665539   -2.1190632041    0.0798427710
 N    1.0765906356   -0.7787556325    0.1085602477
 H    0.6287128452    1.8022840373   -0.4176212502
 H   -1.0208247580    1.6678614589   -0.1835284539
 H   -0.6696327083   -4.2269195007    0.0136241917
 H   -2.0693970410   -3.3892637962    0.6982126376
 H   -2.7292196622   -2.6105822925   -1.5733301772
 H   -1.3658265294   -3.5108173396   -2.2706676601
 H   -3.3494674630   -4.7629771086   -2.1994140040
 H    2.0222126121   -0.4728616664    0.2609609384