21

 C   -0.2601144153    1.5134053869    0.1923758398
 C   -0.1952743885   -0.0030563157    0.1421822781
 O    0.8776372934   -0.4291606598    0.9745476305
 C    0.9994260742   -1.8064497296    1.0849653428
 C    0.0674897955   -2.5792981738    2.0070641900
 C    1.5423496029   -2.4179928632    2.3343154861
 O    2.4285278248   -3.4615360091    2.0366606687
 C    2.2266528799   -3.8259477483    0.6678032169
 C    1.6547266276   -2.5859581468   -0.0510941589
 H    0.6786199144    1.9501974274   -0.1599711679
 H   -1.0735116913    1.8808146629   -0.4405034981
 H   -0.4334772926    1.8567460598    1.2162540503
 H   -1.1389549525   -0.4480643733    0.4924922388
 H   -0.0352572872   -0.3481937992   -0.8909043202
 H   -0.6101867055   -1.9796346549    2.6054890334
 H   -0.3220130548   -3.5468571367    1.7080283358
 H    1.8485964084   -1.8335844234    3.1931504836
 H    3.1868274178   -4.1577821791    0.2643397984
 H    1.5250444901   -4.6695288835    0.6052533019
 H    0.9780132915   -2.8682737357   -0.8628862997
 H    2.4507074272   -1.9593835748   -0.4672213801