12

 O   -0.1170598497    0.0021523039   -0.2750258664
 C   -0.0569626129    1.1637470580   -0.0517973764
 C   -1.0049967341    2.2835288447    0.3759917905
 O    0.0850410352    3.2299539428    0.3281714966
 C    1.0723939538    2.2561481979   -0.0827050956
 C    2.1676409294    2.0880444271    0.8435180266
 C    3.0713887865    1.9232844061    1.6284983046
 C    4.0946473241    1.7423334711    2.5133233907
 N    4.9657531463    1.5883751651    3.2661558224
 H   -1.8054248706    2.5143424638   -0.3369597739
 H   -1.4273308032    2.1708211566    1.3819072112
 H    1.4434583652    2.4528004130   -1.0980795401