17

 C   -0.1778094660    1.5191237823    0.0026508672
 C    0.0314087936    0.0075064167    0.0030444595
 C    0.8159972863   -0.4443613683   -1.2259052549
 O    1.1427323516   -1.8461151060   -1.2211935179
 C    1.2899617201   -2.5452734912   -0.0710808217
 O    1.6696750680   -3.6835378232   -0.1165701386
 C    0.8876516716   -1.8690093627    1.2408874515
 N    0.7074719520   -0.4220577263    1.2279694652
 H    0.7829371306    2.0473912854    0.0155409508
 H   -0.7263372729    1.8439389137   -0.8864328506
 H   -0.7399837833    1.8183042333    0.8901766858
 H   -0.9484603287   -0.4907187053   -0.0081005060
 H    0.2565564045   -0.2796843500   -2.1522390602
 H    1.7558490255    0.1220276531   -1.2936328133
 H   -0.0553336701   -2.3474647632    1.5410952418
 H    1.6258574628   -2.1547619618    1.9934327137
 H    1.6132120343    0.0369839736    1.2842717178