16

 O    0.5212581863    1.1107406571    0.5120150587
 C    0.0286237985   -0.1352029635    0.1081173880
 C   -1.5071958655   -0.2002705713   -0.1621966289
 N   -1.1707932003   -0.7271609120   -1.5015924681
 C   -1.9863656728   -0.7663212824   -2.6871691586
 C   -2.4287133112    0.5654461120   -3.1465992276
 N   -2.7723009957    1.6186375866   -3.4740726146
 C    0.1875387658   -0.4474016858   -1.3798866687
 N    1.1994425277   -0.3535779826   -2.1291906209
 H    1.2753591150    1.3102940234   -0.0563118169
 H    0.3765741564   -0.9436215445    0.7638654925
 H   -2.1026355864   -0.8828767995    0.4497070789
 H   -1.9546011699    0.7986169946   -0.1814145152
 H   -1.4179209595   -1.2472843718   -3.4906608060
 H   -2.8737352627   -1.3850379925   -2.5121265670
 H    0.9937598544   -0.5025026078   -3.1175977155