23

 C   -0.0135993919    1.5488073835   -0.0104339678
 C    0.0870029454    0.0216821413   -0.0013670133
 C    0.7010062006   -0.5272091097   -1.2813540945
 O    0.7544893608   -1.9370196783   -1.1888448664
 C    1.3024749627   -2.5442349017   -2.3165517684
 C    1.3002213938   -4.0644272945   -2.1648044807
 O    0.7704173233   -4.6190847954   -1.2350670028
 C    2.0179373630   -4.8202114565   -3.2780338461
 C    1.7944455213   -6.3297667109   -3.2218747308
 H    0.9727229603    2.0146228842   -0.1145278177
 H   -0.6365137335    1.9041860635   -0.8388664843
 H   -0.4571360549    1.9177219297    0.9186503471
 H    0.6933095197   -0.3163086114    0.8464629382
 H   -0.9047740781   -0.4261358661    0.1266177144
 H    0.1006833767   -0.2241734352   -2.1575363502
 H    1.7144738562   -0.1140997983   -1.4303429611
 H    0.7343436347   -2.2969107616   -3.2339500468
 H    2.3392439230   -2.2081195449   -2.5055339757
 H    1.7069468140   -4.4036935693   -4.2455814025
 H    3.0881842121   -4.5818745660   -3.1953089529
 H    2.1055209060   -6.7297828121   -2.2542316788
 H    0.7361154859   -6.5734843826   -3.3484668037
 H    2.3612064390   -6.8348862076   -4.0087637952