15

 C   -0.0228625877    1.5794164210    0.0000833974
 C   -0.0118115725    0.0304928777    0.0114340053
 C    0.7335599515   -0.4939093230    1.2906819374
 O    2.0626649326   -0.0460513217    1.3555525565
 C   -1.3704468654   -0.5133170015   -0.0066081912
 C   -2.4863711684   -0.9544556598    0.0346745546
 C    0.7467526051   -0.4633039938   -1.1550345416
 N    1.4038830158   -0.8506585248   -2.0234263232
 H    0.9984672039    1.9479810363    0.1086102610
 H   -0.4534677881    1.9584446896   -0.9282603389
 H   -0.6249645649    1.9370802532    0.8388935377
 H    0.2140459557   -0.0877465001    2.1626997081
 H    0.6550875915   -1.5880415119    1.3186081340
 H    2.5703625394   -0.5016263356    0.6735535030
 H   -3.4737411286   -1.3463587756    0.0539873300