15

 C    0.1074791693    1.4446006057   -0.0279733364
 N    0.0335211924   -0.0166322195   -0.0031374397
 C    0.1216262009   -0.6663005751    1.2261388562
 N    0.2630039414   -0.0196498361    2.3126543223
 C   -0.0678622264   -0.7779812516   -1.1631978537
 N    0.0655994876   -2.0472712423   -1.1627591969
 C   -0.3964650171   -0.0451279009   -2.4577329487
 O   -0.4292646809   -0.6345739228   -3.5070334949
 H    0.4164611991    1.7602773586    0.9675660811
 H    0.8448281396    1.7889952207   -0.7576846637
 H   -0.8634423058    1.9006405404   -0.2489138730
 H    0.0507649725   -1.7475429531    1.1145604138
 H    0.2950161740   -0.6641829440    3.0993727135
 H   -0.0756681377   -2.3812106305   -2.1184699264
 H   -0.6274925488    1.0336694006   -2.4016970935