16

 C    0.0044631395    1.4585324547    0.0283591073
 N    0.0116623137    0.0065023794    0.0005191068
 C   -0.0035517660   -0.7825842414   -1.1182447341
 C    0.0109273457   -2.0785033034   -0.6568448230
 N    0.0346418719   -2.0964308461    0.7235328739
 C    0.0345416054   -0.8356759782    1.0901104213
 C    0.0562707935   -0.3427321757    2.4969075392
 C    0.0034140237   -3.2594957648   -1.4443735110
 N   -0.0031731512   -4.2078250674   -2.1088092817
 H    0.9004129689    1.8420013233    0.5251242028
 H   -0.0151058143    1.8342832193   -0.9950144181
 H   -0.8779261393    1.8325832111    0.5556389402
 H   -0.0225761532   -0.3721692735   -2.1139042216
 H    0.9413426602    0.2706230779    2.7019157266
 H   -0.8261528054    0.2637096874    2.7316895570
 H    0.0709015668   -1.2053931328    3.1632308145