19

 C   -0.4330954698    1.5195038926    0.0942093264
 C   -0.0393093030    0.0472515109    0.1348460078
 C    0.8746234636   -0.6023345373   -0.9398391151
 N    1.7498878899   -1.2562027474    0.1046170121
 C    2.3868422963   -0.1760757804    0.9002452824
 C    3.0269792380    1.0550075489    0.3031968128
 O    4.3137713170    0.7494514941   -0.2159533188
 C    0.9643454747   -0.4772430157    1.1645203074
 H    0.4298218185    2.1843159009    0.0050961750
 H   -1.0963094091    1.7184215222   -0.7548842271
 H   -0.9729118612    1.7996109517    1.0055693678
 H   -0.9512599787   -0.5526464971    0.2164563595
 H    0.3845729903   -1.3747896939   -1.5350133661
 H    1.4017308694    0.0733525330   -1.6210982576
 H    3.0545276048   -0.6326092030    1.6309370975
 H    2.3974083905    1.5293942872   -0.4591313346
 H    3.1879724787    1.7971738225    1.0928256659
 H    4.2139182894   -0.0130448946   -0.7963206167
 H    0.6730718507   -0.9473125145    2.1004227815