17

 C   -0.0434939646    1.5712647038    0.0098663703
 C   -0.0053561106    0.0285487737    0.0026200555
 C    0.8753806884   -0.4840618851   -1.1898825877
 C    2.2063295154   -0.7634190963   -0.5399371737
 C    2.1289710956   -0.7714681928    0.7885205669
 C    0.7313597735   -0.4991825766    1.2829416934
 C   -1.3727544336   -0.4896043603   -0.0801530352
 N   -2.4534867217   -0.8954540940   -0.1459019800
 H    0.9786615909    1.9562523692    0.0716836026
 H   -0.5069345060    1.9562074371   -0.9024846211
 H   -0.6098702236    1.9453768880    0.8669597688
 H    0.4557824791   -1.3926924339   -1.6391113714
 H    0.9270831930    0.2636247982   -1.9889343370
 H    3.1000310583   -0.9638432339   -1.1196496238
 H    2.9494881944   -0.9795206253    1.4655724023
 H    0.6894052807    0.2386830316    2.0916343110
 H    0.2630993306   -1.4129226135    1.6693340090