23

 C    0.1627337903    1.4404901798    0.1807571412
 C   -0.1418993510   -0.0618409217    0.0015182239
 C   -1.5862662737   -0.2990030165   -0.0539537815
 C   -2.7738159490   -0.4776872008   -0.1172195988
 C    0.5497881781   -0.6156994109   -1.2412173647
 C    1.9966083512   -1.0540128678   -1.1971032734
 C    0.9026751276   -2.0741272957   -1.4347646661
 C    0.6050149754   -3.0890725333   -0.3457746402
 C    0.7526830083   -2.6315150108   -2.8388100696
 H    1.2429083983    1.5971655252    0.2535190446
 H   -0.2122731159    2.0135460850   -0.6725233376
 H   -0.3117119432    1.8304076060    1.0851730028
 H    0.2501624633   -0.5852585675    0.8825801608
 H   -3.8213543754   -0.6439996282   -0.1648562902
 H    0.2407334895   -0.0987470824   -2.1472597555
 H    2.6489623845   -0.7795008179   -2.0198412011
 H    2.4883551274   -1.0612187096   -0.2282661252
 H    0.7938419669   -2.6963179907    0.6566999501
 H   -0.4405143526   -3.4147206669   -0.3846318053
 H    1.2361373000   -3.9766837301   -0.4708773021
 H    1.4293597279   -3.4792436047   -3.0003299620
 H   -0.2703590254   -2.9845696838   -3.0138390741
 H    0.9788152176   -1.8754194766   -3.5972263659