21

 C   -0.0882540510    1.3549820895   -0.1368576395
 N   -0.2332717981   -0.0215103237   -0.5601659983
 C   -1.0928967883   -0.7210350986    0.0329195065
 O   -1.2675578455   -2.0193189968   -0.2869878862
 C   -2.3656295235   -2.6815174638    0.3500814115
 C   -2.2106365688   -4.1612453101    0.1247474121
 C   -3.4245787693   -5.0254293201    0.0233734870
 N   -2.5656915230   -4.8160318032   -1.1305132520
 C   -3.0787794370   -4.0307802800   -2.2445682151
 H    0.9381661787    1.5289810930    0.2060710108
 H   -0.2542913002    2.0216584946   -0.9908082584
 H   -0.7765549971    1.6516805889    0.6721009582
 H   -1.7481264413   -0.3587672334    0.8423457839
 H   -2.3551229176   -2.4725059607    1.4290649332
 H   -3.3123927184   -2.3053532834   -0.0549976656
 H   -1.3116473475   -4.5703456231    0.5827509666
 H   -3.4301475355   -6.0240143872    0.4522001564
 H   -4.3919389006   -4.5214016059    0.0381422219
 H   -3.8428721537   -3.2869908687   -1.9684682751
 H   -2.2480781050   -3.5082123339   -2.7264982525
 H   -3.5296482175   -4.7141406433   -2.9707336454