21

 C   -0.0298308304    1.5603586907    0.0234463862
 C    0.0395222728    0.0597490969    0.0340823893
 C   -0.8545133403   -0.8217246565    0.8565863105
 O   -1.6444645338   -1.8563907373    0.3407927094
 C    0.6282939855   -0.9334936563    1.0785395154
 C    1.2639117568   -1.7692268758   -0.0397782311
 C    0.6582163587   -0.7926100006   -1.0678760609
 C    0.0735521845   -1.1048198294   -2.4278928036
 C    1.3382205357   -0.2826733320   -2.2969952395
 H    0.9450468077    2.0053503190   -0.2062282857
 H   -0.7466959413    1.9252225952   -0.7231776381
 H   -0.3511450495    1.9449543770    0.9965688335
 H   -1.3833194955   -0.3022594402    1.6525264775
 H   -1.4807637349   -1.9048160298   -0.6070219468
 H    1.0867222052   -0.7202830428    2.0376213047
 H    2.3561559979   -1.7392695874   -0.0321911704
 H    0.9321628663   -2.8114128041   -0.0927543742
 H    0.1649875978   -2.1184652833   -2.8059928199
 H   -0.8309242964   -0.5904631663   -2.7395891658
 H    1.2767453467    0.7779698098   -2.5191866153
 H    2.2768504462   -0.7437624067   -2.5879917253