14

 O    0.1756790205    1.3278561930    0.2937672045
 C    0.0091940487   -0.0392607091    0.0294820987
 C   -1.4590208202   -0.4435077914   -0.1612860474
 C   -1.4400109025   -1.4498958781   -1.3093636545
 O   -2.3174596702   -2.1797552838   -1.6891053791
 N   -0.1745306893   -1.3575486181   -1.8967510829
 C    0.6750877374   -0.4522255718   -1.2824597144
 N    1.7906936088    0.0319665976   -1.6388838634
 H    1.0389790396    1.5640670492   -0.0751638832
 H    0.4608869468   -0.6534159876    0.8267023499
 H   -1.9384993603   -0.8703657371    0.7198668509
 H   -2.0392302049    0.4304201834   -0.4761877263
 H    0.0421496954   -1.8649866862   -2.7428760130
 H    2.1131219702   -0.3086626401   -2.5442729097