19

 O    0.0641661866    1.3902123296    0.0217394391
 C    0.0529118596    0.0081589489   -0.0023234557
 C    0.6301946665   -0.9545834201   -1.1379293189
 C   -0.0576364426   -1.8540409362   -0.0791544600
 C    0.6347034147   -0.9816438728    1.0260700449
 C   -0.6271586438   -3.2210497788    0.2498150836
 C   -1.8331883627   -2.7792246665    1.0930366418
 C   -2.1264289672   -1.4737368683    0.9820506603
 C   -1.2428263297   -0.8493731077   -0.0687530829
 H    0.9757049053    1.6868084130    0.1189519419
 H    0.1538814420   -0.8908709598   -2.1194880730
 H    1.7202376632   -1.0054714076   -1.2158746596
 H    1.7255160496   -1.0572792814    1.0729226478
 H    0.1820085086   -0.9918703751    2.0179498409
 H   -0.9535803697   -3.7828572642   -0.6362547956
 H    0.0617067244   -3.8660384609    0.8062519216
 H   -2.3825445183   -3.4842947351    1.7094050718
 H   -2.9600825698   -0.9869097508    1.4757111688
 H   -1.7787869767   -0.7303868362   -1.0198367568