18

 C   -0.1817775014    1.5071130875   -0.1038293194
 C    0.0728221674    0.0389520114    0.0199150068
 C    0.7982981206   -0.8561965184   -0.9131439632
 C    1.7843606961   -1.7489496426   -0.1864977065
 C    1.4435453001   -1.5330687768    1.3027756910
 O    2.1025249982   -1.8813610199    2.2455031469
 C    0.1014197165   -0.8179756034    1.3192708730
 C   -0.9001259403   -1.7407385417    0.5617306071
 N   -0.6816054165   -1.0264129584   -0.7367602959
 H    0.6497044146    2.0867644662    0.3130570617
 H   -0.2967636735    1.7813187627   -1.1566488314
 H   -1.0953504033    1.8016339007    0.4238242940
 H    1.0372996499   -0.5075436359   -1.9116926019
 H    1.7140039732   -2.8115865336   -0.4439088357
 H    2.8170864973   -1.4414718714   -0.3797470535
 H   -0.1907096925   -0.4026750544    2.2809699798
 H   -0.7000147024   -2.8181361081    0.5486353318
 H   -1.9310775040   -1.5748985240    0.8798446154