17

 C   -0.2299228806    1.5555321572   -0.0322053607
 C    0.0196878095    0.0580956535    0.0129066774
 O    0.8667185036   -0.3689814938   -1.0800702053
 C    1.8840131514   -1.1640930002   -0.4791992514
 C    2.9451091808   -0.2416204896    0.1431015200
 C    2.1256850457    0.2804396750    1.3377612691
 O    2.4284943801    1.1074852169    2.1524913980
 C    0.8062142254   -0.5060248486    1.2238430011
 O    1.2728032799   -1.7457802628    0.6660318183
 H    0.6961389021    2.1271714279    0.0695324407
 H   -0.6972953234    1.8242575233   -0.9830873620
 H   -0.9065639720    1.8505102861    0.7763559023
 H   -0.9304706999   -0.4865047878   -0.0592039885
 H    2.2215566255   -1.9329918118   -1.1726212678
 H    3.8170527804   -0.8059737679    0.4885987766
 H    3.2764709909    0.5727034671   -0.5037355069
 H    0.2520455006   -0.6552036545    2.1469987291