20

 C   -0.0115468802    1.4785460314    0.0481619930
 C   -0.0560871595   -0.0265689624    0.1121387494
 C   -1.3536812039   -0.7455034665   -0.2220609220
 C   -0.9999046452   -2.2271583331   -0.0671868515
 C   -0.0992656617   -2.6514143775   -1.2625359214
 C    1.0974408929   -2.1663726806   -0.4374166861
 C    0.2857733361   -2.2426978041    0.8742194338
 C    0.6872533023   -0.7837048211    1.1362004930
 N    1.2530409208   -0.6595050494   -0.2700730501
 H    0.9658645360    1.8502122704    0.3650333912
 H   -0.1874138140    1.8284981634   -0.9747370092
 H   -0.7805875775    1.9174739368    0.6937573512
 H   -2.1242354847   -0.4235668431    0.4903308107
 H   -1.7241553833   -0.5199305106   -1.2288571385
 H   -1.8440021185   -2.8685253897    0.1875901714
 H   -0.0572015148   -3.7378431778   -1.3896223587
 H   -0.2936600161   -2.1818783615   -2.2319727545
 H    2.0857610375   -2.6094414572   -0.5699836802
 H    0.3929635007   -3.0233764747    1.6236255777
 H    1.1911280132   -0.3683740827    2.0031517808