18

 C    0.1887343307    1.5057026349    0.0106007270
 C    0.0594047707   -0.0016202147    0.2242886571
 O    0.1021383945   -0.3272285863    1.6163736685
 C   -1.2705338651   -0.5469395151   -0.3056951854
 C   -1.3850269190   -2.0375370854   -0.2437040099
 C   -1.1966658011   -2.9059420862    0.8085367784
 N   -1.4413603171   -4.1243471615    0.2739031831
 N   -1.7623833805   -4.0402574014   -1.0298162657
 N   -1.7279952838   -2.7764773783   -1.3423583384
 H    1.1332167454    1.8774160312    0.4241962179
 H    0.1727111864    1.7547860792   -1.0552718864
 H   -0.6311770939    2.0346882492    0.5067287100
 H    0.8795964692   -0.5151411527   -0.3022619347
 H    0.9530011856   -0.0406022460    1.9623754470
 H   -2.0768403176   -0.0734740449    0.2693242114
 H   -1.3971941705   -0.2469326736   -1.3496026501
 H   -0.9114987073   -2.7480957596    1.8330630710
 H   -1.4067413366   -5.0292630687    0.7151837591