16

 O   -0.1348886198   -0.0446931339    0.0806308463
 C   -0.0654123630    1.1701023722    0.0914400884
 C    1.1653622552    1.9258108550   -0.0124663016
 C    1.1163208220    3.2797934932    0.0171025790
 N    2.2011252450    4.0886063629   -0.0736672056
 C    3.5503838245    3.5627902681    0.0584749131
 C    3.6784053187    2.0905627104   -0.3602004816
 O    4.7411446174    1.6832218154   -0.7594423083
 C    2.4688915707    1.1899437660   -0.1811928664
 H   -0.9843307209    1.7954249927    0.1886888087
 H    0.1611758622    3.7916703074    0.0963086764
 H    2.0753011074    5.0750281690    0.0798592021
 H    4.2490312130    4.1437715598   -0.5477274285
 H    3.8966325956    3.6172906549    1.1044735335
 H    2.6658489901    0.5390695750    0.6834341280
 H    2.4316411918    0.5039628717   -1.0346311636