15

 O   -0.1051116821    0.0376003735    0.0885091348
 C    0.0253631145    1.2278987729   -0.0495787700
 C    1.3381409082    1.9111435972   -0.0487741034
 O    1.3377319453    3.3218482820    0.2672197572
 C    1.7537367379    2.9318069385   -1.0344794415
 C    3.2493310163    2.5267995021   -1.1640657466
 C    3.7098445508    2.3361953354    0.2983240243
 C    2.6935725818    1.1841424597    0.1373333215
 O    3.1244794143    1.0676866292   -1.2659618406
 H   -0.8367615207    1.9166879833   -0.1806278687
 H    1.1535734668    3.2764551610   -1.8701545380
 H    3.8453709967    2.9822310697   -1.9530989522
 H    4.7274741561    1.9505479420    0.3329290584
 H    3.5319054689    3.1196406290    1.0320150633
 H    2.7006567552    0.2481374144    0.6897774914