21

 C   -0.3807316227    1.4910159282    0.2760791395
 C    0.1618277100    0.0901928130   -0.0395507095
 C    0.9494312130   -0.5005046064    1.1007067549
 C    2.2891927370    0.0753012671    1.5324230611
 O    2.8783591710   -0.8904244476    2.3908692477
 C    2.3335018630   -2.1878102885    2.1291367738
 C    2.2860258096   -2.9617981687    3.4378846465
 C    0.9879720438   -1.9133695432    1.4855595494
 O    0.1976840399   -0.9796829111    2.2333810627
 H    0.4286567448    2.2060211919    0.4563043185
 H   -0.9806574329    1.8718140359   -0.5553598984
 H   -1.0123009139    1.4648974834    1.1688915311
 H   -0.6700139060   -0.5836341416   -0.2698459389
 H    0.8003711543    0.1263897137   -0.9313718693
 H    2.9110240125    0.2595489865    0.6401017007
 H    2.2020157259    1.0120752587    2.0928507779
 H    2.9601500218   -2.7229180708    1.3936550477
 H    1.5952875888   -2.4740984593    4.1299954643
 H    1.9546278528   -3.9909822517    3.2664844900
 H    3.2790307102   -2.9909450378    3.8939744281
 H    0.4472864472   -2.6971415015    0.9605289024