21

 N   -0.1339607399   -1.1421953824    0.0158182349
 C   -0.0764517037    0.0094969404    0.0916709830
 C    0.0215033251    1.4646870552    0.1828363384
 C    1.4470366034    1.9837450681   -0.0922565495
 C    1.5286205079    3.5087339294    0.0112839244
 C    2.9351741444    4.0432840493   -0.2619902272
 N    2.9536759094    5.4998047793   -0.2032722730
 C    3.2282787582    6.0912445722    1.1033353410
 C    4.2522527705    6.1224567446    0.0230612961
 H   -0.6861579507    1.9059475920   -0.5288018313
 H   -0.3076460055    1.7725653136    1.1822994602
 H    2.1387041377    1.5167853406    0.6182086883
 H    1.7584435565    1.6554078200   -1.0904049729
 H    0.8347554485    3.9744635334   -0.6987843015
 H    1.2106140972    3.8297530499    1.0120189055
 H    3.6515708139    3.5907549837    0.4500154877
 H    3.2558612743    3.7448300828   -1.2679996506
 H    2.6578597084    6.9812831077    1.3523509303
 H    3.4124813777    5.4182197160    1.9400977020
 H    5.1175608279    5.4717975987    0.1416679619
 H    4.4426439289    7.0354517257   -0.5336829778