12

 O   -0.4495905938    0.1158555337    0.0067280072
 C   -0.1264329566    1.2675204932    0.0087597616
 N    1.1835312983    1.7613755373   -0.0006726907
 C    2.3695841457    1.0189393313   -0.0148443196
 O    2.4288050576   -0.1765966291   -0.0217701859
 C    3.6090906070    1.9401465498   -0.0211174518
 C    4.8622491247    1.1979763255   -0.0379468996
 N    5.8750073993    0.6451055850   -0.0512942347
 H   -0.8460068282    2.1107756688    0.0196150167
 H    1.2649587014    2.7682880654    0.0034626887
 H    3.5673293400    2.6001295498   -0.8964926462
 H    3.5842673846    2.5888416992    0.8632994041