13

 C   -0.0511678892    1.3495068464    0.0708951112
 O    0.0272245397   -0.0852757163   -0.0402879413
 C    0.6429806256   -0.5264868558   -1.1210577128
 O    1.1367340867    0.1144577779   -2.0073546693
 N    0.6669751702   -1.9479538041   -1.1373240930
 C    1.2157566505   -2.7388497029   -2.0939566687
 N    1.0414853748   -3.9888282033   -1.7626447558
 N    0.3645642503   -3.9613145239   -0.5649339386
 N    0.1343732536   -2.7629646949   -0.1797004184
 H    0.9516044510    1.7803232799    0.1030054088
 H   -0.5983095468    1.7640343894   -0.7781904457
 H   -0.5827179652    1.5344016578    1.0025716961
 H    1.7069673588   -2.3520613802   -2.9704496125