15

 N    0.3408598079    1.3713201550   -0.0416746939
 C   -0.0114347730   -0.0224898892    0.1402367051
 C   -1.5032686644   -0.3442673143   -0.0748834118
 O   -2.3216557854    0.5065492278   -0.3137148890
 N   -1.7818459009   -1.7072879277    0.0282889707
 C   -3.0556705000   -2.3144590618    0.0500850929
 N   -2.9573755892   -3.6976768357   -0.0114675180
 O   -4.0962519231   -1.7217972883    0.1678623555
 H    0.0856767237    1.6526681354   -0.9847756942
 H   -0.2555904373    1.9354973767    0.5583983173
 H    0.5873320370   -0.6427910794   -0.5403909091
 H    0.2614896206   -0.3382762435    1.1566446935
 H   -0.9938626089   -2.3112113262    0.2103389698
 H   -2.2163922989   -4.1031692515   -0.5634215304
 H   -3.8543906782   -4.1446852672   -0.1300538183