25

 C   -0.1319500150    1.4178096473   -0.0607465715
 C   -0.2322624190   -0.0557602775    0.2935029836
 O   -1.2969237786   -0.6245754715   -0.4542963238
 C   -1.4662443471   -1.9897712278   -0.2263587992
 C   -2.4203384994   -2.4569269068    0.8582512473
 C   -3.0993294932   -1.4707430703    1.7852742498
 C   -2.7947163405   -2.5738922139   -0.6143213063
 C   -3.8630438904   -1.7202375915   -1.2703119645
 C   -3.6615866917   -1.6125165018   -2.7868817127
 H    0.6910663778    1.8865247552    0.4870354379
 H    0.0471063971    1.5432061258   -1.1323939210
 H   -1.0590777834    1.9394939424    0.1939900972
 H    0.7095068637   -0.5765588055    0.0539848839
 H   -0.4104333479   -0.1887451160    1.3712680118
 H   -0.5633233052   -2.5764652542   -0.4059210567
 H   -2.1510136938   -3.3967418924    1.3348156259
 H   -3.1582126606   -0.4755259669    1.3392384283
 H   -4.1174600963   -1.7899001234    2.0345416685
 H   -2.5447886287   -1.3796387125    2.7257532423
 H   -2.7439389507   -3.5824467145   -1.0205373556
 H   -4.8496760223   -2.1516219649   -1.0566381997
 H   -3.8593464851   -0.7167772304   -0.8381027578
 H   -4.4572021134   -1.0216161114   -3.2519978082
 H   -2.7045886855   -1.1324268428   -3.0123057462
 H   -3.6615901309   -2.6013188448   -3.2596010935