15

 O    1.1662377013    2.6344275582    1.3031471528
 C    0.2554508912    2.0956481794    0.7311164811
 C    0.5033689339    0.9197827843   -0.1384431108
 N    0.7506569475   -0.0187505473   -0.7670868983
 C   -1.2139532274    2.5194638269    0.8240197663
 N   -1.8470420941    2.4297059767   -0.4879303960
 C   -3.0803344203    1.6273169023   -0.4126865352
 C   -3.0314560475    1.0568684801    0.9771642955
 C   -2.0081074952    1.5467182599    1.6697453185
 H   -1.2022317736    3.5291990929    1.2606463241
 H   -1.9723912971    3.3282429754   -0.9290422639
 H   -3.9900798259    2.2291824696   -0.5658556287
 H   -3.0883669121    0.8402064668   -1.1792736196
 H   -3.7611262797    0.3449263746    1.3422364876
 H   -1.7375058310    1.3138941201    2.6912800267