18

 C    0.2642436420    1.0779188683   -0.3496865011
 O   -0.2676158959   -0.1008653402    0.2502004798
 C    0.5848097064   -0.8021984028    1.0105454681
 N    0.2142478799   -1.8864433936    1.5391706161
 C    1.1752680250   -2.6425556111    2.3094987695
 C    0.4226070634   -3.7749065109    3.0211620156
 O   -0.2750883033   -4.5555452244    2.0775231429
 C    2.2902602412   -3.2258594508    1.4300189848
 O    2.6147644994   -2.7863318835    0.3603717100
 H    1.0507117686    0.8330339031   -1.0721899689
 H   -0.5659087481    1.5574193351   -0.8688085577
 H    0.6623810032    1.7662552103    0.4051440263
 H    1.5750860338   -0.3450246222    1.1320491983
 H    1.7002445603   -2.0326538322    3.0686935456
 H    1.1256967662   -4.4368741676    3.5397795917
 H   -0.2489170422   -3.3383185307    3.7756015625
 H   -0.7517260106   -3.9167877226    1.5278973979
 H    2.8181597808   -4.0916471244    1.8880222986