22

 C    0.0275855214    1.4706901060    0.4132517658
 C   -0.0083824439    0.0228499818   -0.0981371342
 C   -1.3953696155   -0.5413167629   -0.2067030353
 N   -2.1572317994   -0.9741403458    0.9988158185
 C   -1.8763752995   -1.9464965385   -0.0949878444
 C   -3.0088841097   -1.6976202119   -1.0964569413
 O   -4.3116142714   -1.8744139703   -0.6134263635
 C   -2.4667149742   -0.2134049381   -1.2674543295
 C   -3.4360742840    0.9339921574   -1.0251268487
 H    1.0574050571    1.8319209245    0.4910996960
 H   -0.5125061050    2.1417459546   -0.2616267269
 H   -0.4362451603    1.5517502838    1.4013506118
 H    0.4720933684   -0.0294775721   -1.0836398417
 H    0.5867483891   -0.6182898165    0.5664966900
 H   -1.4843809105   -1.1523051601    1.7433783448
 H   -1.3339903667   -2.8624496241    0.1108853380
 H   -2.9228247200   -2.2784272569   -2.0173835790
 H   -4.2956636648   -1.5308786829    0.2906872075
 H   -1.9934231798   -0.1194244887   -2.2512538511
 H   -3.8029667767    0.9241065965    0.0042551317
 H   -2.9591553111    1.9033424923   -1.2048744805
 H   -4.3003388035    0.8548160119   -1.6920102079