15

 C   -0.0121497098    1.3461272884   -0.1247649509
 O   -0.0413631180   -0.0626112092   -0.1993857186
 C   -1.2907935019   -0.6048687028    0.1310053617
 C   -1.1767949123   -2.1121774168    0.0998155809
 C   -2.3493185732   -2.9473065305   -0.2297536307
 O   -1.3097030943   -2.7390793922   -1.1778155314
 C   -0.1464789877   -2.6780142273    0.9564320064
 N    0.6509503517   -3.1252563611    1.6624160492
 H    1.0000661166    1.6603395643   -0.3858608717
 H   -0.7227188130    1.8045503445   -0.8294226083
 H   -0.2484744196    1.7027872504    0.8895014718
 H   -1.6111015257   -0.2840541994    1.1372983767
 H   -2.0697569160   -0.3025425795   -0.5872915397
 H   -2.4185889730   -3.9496038060    0.1866584806
 H   -3.2953559438   -2.4545177327   -0.4487759761