16

 C   -0.1265172847    1.5053849024    0.0206942637
 C    0.0452339605   -0.0018062095   -0.0040242606
 O    1.1381720571   -0.5375384790   -0.0190086803
 C   -1.1736226104   -0.8166249709   -0.0094658023
 C   -1.3450505225   -2.1746387782   -0.0364180350
 C   -2.7511934264   -2.4120564983   -0.0232936058
 N   -3.3797762830   -3.6566740998   -0.1149433296
 C   -3.3327795114   -1.1694303311    0.0105304150
 O   -2.3852144603   -0.1948669218    0.0154361941
 H    0.8580398285    1.9734495206    0.0208749890
 H   -0.7011693366    1.8415259606   -0.8484529755
 H   -0.6883452023    1.8142019585    0.9082152371
 H   -0.5503110150   -2.9033347638   -0.0657681643
 H   -2.8570852319   -4.3982654200    0.3310148260
 H   -4.3317505348   -3.6568894105    0.2255291631
 H   -4.3577958067   -0.8371440191    0.0260985855