18

 C    0.1499711400    1.6019446742    0.1799756552
 C    0.0179956762    0.0812763174    0.1118942629
 N    0.6266013459   -0.4513928939   -1.1221090591
 C    1.1756902524   -1.7892727184   -0.8995701162
 C    2.4411623140   -1.9769097377   -1.7297173839
 O    2.7076503850   -2.9787151359   -2.3409644986
 C    1.4706603316   -1.7977819652    0.5959958592
 O    2.1890205395   -0.6428840211    1.0478403601
 C    0.7649315737   -0.6668084519    1.2005347795
 H    1.2062520964    1.8810126085    0.1682768035
 H   -0.3405446462    2.0716967661   -0.6781513660
 H   -0.3158232143    1.9951809956    1.0897055856
 H   -1.0459394210   -0.1990913517    0.2108346773
 H    0.0049737562   -0.4087164673   -1.9181018202
 H    0.4942780393   -2.6257517558   -1.1207769864
 H    3.1036587260   -1.0859626719   -1.7180244759
 H    1.6924233666   -2.7319738334    1.1024851863
 H    0.3959835187   -0.6673931577    2.2224646667