16

 N   -0.0243139364    1.4738881362   -0.0544179348
 C    0.0406197180    0.0179553865   -0.0475689594
 C    0.1331642677   -0.5259395456    1.4137416352
 N   -1.3365095272   -0.6943408059    1.4370656403
 C   -1.4079804376   -0.6136273766   -0.0328557184
 C   -2.4952233001    0.1958091697   -0.5810528526
 N   -3.3412678316    0.8242818425   -1.0552650085
 C    0.9597764988   -0.5584654835   -1.0205055831
 C    1.7274374194   -1.0052838315   -1.8319185380
 H    0.9056403031    1.8515035275    0.1057298344
 H   -0.3191021209    1.8034663136   -0.9702346660
 H    0.7091194081   -1.4567209562    1.4704301842
 H    0.5102437992    0.1928387802    2.1466025280
 H   -1.6772243198   -1.5642564222    1.8287713721
 H   -1.4014323826   -1.5814702306   -0.5499348145
 H    2.4050880421   -1.3980254441   -2.5496790290