20

 C   -0.2514818930    1.4325275258    0.0483938334
 C    0.1378684985   -0.0209392941   -0.0258459692
 N   -0.6479346519   -1.0331929422    0.7147275870
 C    0.7520932716   -0.7821040196    1.1038155833
 C    1.7004745546   -1.8530759918    0.5844878207
 C    1.5256072966   -1.8369577991   -0.9470940583
 C    0.3778797617   -2.6191639163   -1.6305029544
 O   -0.2437984138   -1.3968901541   -2.0925981441
 C    0.6825790234   -0.5945323268   -1.3345330917
 H    0.5649927500    2.0801273364   -0.2898769902
 H   -1.1210493579    1.6370265205   -0.5867144974
 H   -0.5063600685    1.7241073171    1.0731250973
 H   -1.2749009548   -0.5548967030    1.3579985543
 H    0.9525258260   -0.3041287963    2.0591212853
 H    2.7312894802   -1.5976070972    0.8545173097
 H    1.4814958030   -2.8340837574    1.0201464776
 H    2.4753990835   -1.9376109097   -1.4740937083
 H    0.6709333686   -3.2599097553   -2.4705592494
 H   -0.2739810922   -3.1719139049   -0.9466016396
 H    1.1392011144    0.1868211978   -1.9535261560