18

 O   -0.5478710676    1.5265061391    0.6771827782
 C   -0.7756074973    0.1681388105    0.9138715540
 C   -0.9006194524   -0.5933537056   -0.3984094522
 O   -0.7117886478   -0.0091759970   -1.4501867410
 C   -1.2531744569   -2.0266388546   -0.3664955776
 C   -1.3026894835   -2.9681774440   -1.5782902722
 C   -2.5726227607   -3.6522261290   -0.9746758143
 C   -2.4973960398   -2.6934916691    0.2212540330
 N   -1.2251803747   -2.7535394305    0.9025274621
 H   -0.4519713718    1.5999237295   -0.2863141666
 H    0.0411323906   -0.2947007194    1.4910723445
 H   -1.6863143277    0.0146266755    1.5119677339
 H   -1.5120128592   -2.4304615779   -2.5032718071
 H   -0.4141068287   -3.5904329465   -1.7213797469
 H   -3.4602212575   -3.5001111978   -1.5915519402
 H   -2.4999605882   -4.7143358517   -0.7201763910
 H   -3.3293015821   -2.2300796058    0.7397200376
 H   -0.7624063145   -3.6569548259    0.8154505259