17

 O    0.0217748521    1.3642418230   -0.4085528896
 C    0.0465578496    0.0504234821    0.1242922001
 C   -1.3427888766   -0.5168475904    0.2514019575
 C   -2.3905292249    0.1452472122    1.1406392904
 C   -3.5529907423   -0.8711667246    1.2016824520
 C   -2.9192020522   -2.2286286105    0.8708246026
 O   -3.2980139241   -3.3140689293    1.2265031552
 C   -1.6647970342   -1.9482960552    0.0774186489
 O   -1.9192531589   -0.9945769333   -0.9744613280
 H   -0.3391685919    1.3022898510   -1.3000516116
 H    0.6611435036   -0.6267541976   -0.4857086652
 H    0.5092622381    0.1320384352    1.1134541203
 H   -1.9631569959    0.3099225344    2.1357980988
 H   -2.6828976079    1.1205714411    0.7451207291
 H   -4.0554270656   -0.9168993002    2.1690993201
 H   -4.3123814499   -0.6540550118    0.4436526817
 H   -0.9441746288   -2.7320366858   -0.1340361223