20

 C    0.0279175538    1.5644593892    0.0696421848
 C   -0.0476628670    0.0682361726    0.0748657765
 C   -1.3269813132   -0.7802453449   -0.0655961624
 C   -0.7068652925   -1.8150620074    0.9466167039
 O   -1.3309663787   -1.7668764856    2.2133098904
 C   -0.5806976329   -3.2678093857    0.5097217623
 O   -1.9080241344   -3.7907198916    0.4922748156
 C    0.5657385643   -0.9585502020    0.9887474909
 N    1.1156632277   -0.7098245883   -0.3421016421
 H    1.0360095187    1.8949296115    0.3332568380
 H   -0.2084319119    1.9644522330   -0.9238144688
 H   -0.6826324870    1.9953803025    0.7825752088
 H   -2.2113779414   -0.3198441447    0.3787678874
 H   -1.5627247074   -1.1224685852   -1.0794411987
 H   -2.0713772276   -2.3855456681    2.1600414204
 H   -0.1123684582   -3.3493749094   -0.4817482332
 H    0.0482125740   -3.8044889174    1.2349203610
 H   -1.8630645944   -4.7473942988    0.4119886033
 H    1.2091413956   -0.8522992618    1.8554514583
 H    0.8957100824   -1.4391881079   -1.0173139963