18

 C   -0.1374588351    1.4402234083   -0.0270627047
 C    0.0312685007   -0.0484399641   -0.0140803572
 C    0.9533037731   -0.8920535074   -0.9000700284
 C    0.1131315072   -2.1201760633   -0.4641947386
 C    0.4048758204   -2.2510527946    1.0547017558
 C   -0.3007314145   -0.9046256121    1.2067221044
 C   -1.0637481829   -1.1157049785   -0.1012640646
 C   -2.4346015718   -1.0402331565   -0.4189998808
 N   -3.5599871792   -0.9797782122   -0.6920170371
 H    0.7502838196    1.9353914087    0.3826446592
 H   -0.2911694916    1.8122515187   -1.0451678197
 H   -0.9990540550    1.7470332655    0.5743748630
 H    0.8078815341   -0.6480158577   -1.9559518466
 H    2.0241655264   -0.9120317136   -0.6672931927
 H    0.0158906173   -2.9951960840   -1.1011354761
 H   -0.1733988197   -3.0554363065    1.5157491196
 H    1.4554280175   -2.3267392870    1.3554809168
 H   -0.7007935863   -0.4535692938    2.1058890977