18

 C   -0.2823062465    0.7964433840   -0.2425332913
 O    0.7446327797   -0.1800347197   -0.2397546615
 C    1.0246135611   -0.6781132933    1.0208623632
 C    0.1959290492   -1.7593634573    1.6774337027
 C   -0.3273018380   -2.7513528755    0.6253529493
 N    1.0588545372   -2.9547172552    0.1663952074
 C    1.4547905584   -3.1313484054   -1.1271583325
 O    0.7370689762   -3.5440261738   -2.0107064765
 C    1.6195615451   -2.0412648163    1.1516765830
 H    0.0079509788    1.6854411139    0.3365830534
 H   -0.4436727527    1.0856667115   -1.2826733798
 H   -1.2183512230    0.3990645989    0.1732149064
 H    1.4244059594    0.0532845854    1.7277160137
 H   -0.1466360855   -1.7021296019    2.7015016974
 H   -0.7577172169   -3.6595286318    1.0554090090
 H   -0.9909276968   -2.3572029747   -0.1486377607
 H    2.5308622004   -2.8993451227   -1.2636083836
 H    2.5431959140   -2.2666363062    1.6717336604