23

 C    0.3969627602    1.6174172786   -0.1233485841
 C   -0.2639776202    0.2758253789    0.2418437658
 C    0.4651928290   -0.4783203443    1.3158843350
 C    0.0234919757   -0.7356435551    2.5521344251
 C    0.9731340287   -1.6024316453    3.3388857469
 O    0.4649242793   -2.9325322905    3.4925323712
 C    2.2940489504   -1.5017379091    2.5152843952
 C    3.1775155263   -2.7448277049    2.5728553170
 C    1.8402584567   -1.0801955414    1.0955961002
 H    1.4179334767    1.4764554007   -0.4908994376
 H   -0.1712156649    2.1269243171   -0.9074666907
 H    0.4429041257    2.2786752519    0.7474677547
 H   -1.2964252409    0.4553354840    0.5617150147
 H   -0.3195003071   -0.3462900662   -0.6627360930
 H   -0.9484362314   -0.4459928919    2.9390246213
 H    1.1288490897   -1.2614200488    4.3679587862
 H    0.0624837836   -3.1811953397    2.6531505320
 H    2.8489110549   -0.6551840987    2.9386545689
 H    2.6482495330   -3.6223779326    2.1904745486
 H    4.0855784423   -2.6062918003    1.9764842214
 H    3.4792714147   -2.9701682312    3.6005234909
 H    1.7761845155   -1.9372298520    0.4079957586
 H    2.5434778923   -0.3789692393    0.6321846916