13

 C   -0.0185742778    1.3055938259    0.0096647153
 C    1.2920729236    1.7756884650   -0.0005169650
 C    2.0120100699    2.9950986808   -0.0007385790
 N    3.3199025850    3.0461983124   -0.0132603590
 C    4.0043846519    1.8598765290   -0.0265998226
 C    3.4052730133    0.6367243455   -0.0275685320
 N    2.0379904226    0.6108121553   -0.0143285516
 N    1.2471793459   -0.4784121969   -0.0125865433
 N    0.0046736655   -0.0388855027    0.0018149680
 H   -0.9418658564    1.8611188353    0.0217750553
 H    1.4667510032    3.9354519786    0.0098385570
 H    5.0858556087    1.9290776766   -0.0367727608
 H    3.9090709648   -0.3193583348   -0.0378128124