18

 C   -0.0035720493    1.5687125709    0.2886412359
 C   -0.0273929509    0.0630662939   -0.0020791551
 O    0.7112364530   -0.6610346368    0.9840197121
 C   -1.4189383688   -0.4687277640   -0.1376923836
 C   -2.0948153437   -1.0968106481   -1.1359419783
 C   -3.4096253769   -1.3843356028   -0.6288399968
 N   -4.4562150969   -1.9575489088   -1.3634616418
 C   -3.4255295603   -0.9100891608    0.6490936847
 O   -2.2157021869   -0.3382070245    0.9564814147
 H    1.0298915055    1.9036874850    0.4094020419
 H   -0.4686590105    2.1326350078   -0.5260053152
 H   -0.5540566365    1.7889217783    1.2088248779
 H    0.4906056992   -0.1333827229   -0.9463865811
 H    0.1942791261   -0.6350291294    1.7971166912
 H   -1.7141479439   -1.3304902099   -2.1186611067
 H   -4.1389629609   -2.6878426364   -1.9878550628
 H   -5.1984597285   -2.3192196929   -0.7788783656
 H   -4.1717147699   -0.8874543088    1.4249889888