15

 O    0.0154442280    0.0513124167   -0.3803027461
 C   -0.0041471451    1.2026249136   -0.0882387125
 C   -1.1271191486    2.2071619110    0.3667579270
 C   -0.0030478908    3.1391798811    0.8682917693
 N    0.7155930795    2.8598651880    2.1561719474
 C    1.8274483883    3.0958740452    1.1862079511
 C    1.0489300283    4.1565736436    0.2925270846
 N    1.3247092505    3.3978665281   -0.9701206746
 C    1.0666630900    2.3354574613    0.0656677579
 H   -1.7056597684    2.5858003412   -0.4814280622
 H   -1.8164337432    1.8333297091    1.1260844198
 H    0.6200626434    3.6436838824    2.8052111806
 H    2.8862945068    3.0839451824    1.4549585185
 H    1.0804367945    5.2497225802    0.3444811379
 H    0.5256034367    3.4795643560   -1.6065581486