21

 C   -0.2352126639    1.3822281073   -0.2208707250
 C    1.1740451951    0.9958832687    0.1607813265
 C    0.1127089017   -0.0638215866    0.0180410547
 C   -0.3934807892   -0.8232906927    1.2253439541
 O   -0.5357877600    0.0702710244    2.3318204278
 C   -1.4614480138   -0.4928143323    3.2565866850
 C   -2.4431218602   -1.2944475621    2.4198448374
 C   -2.9689392143   -0.6107803473    1.1841333329
 C   -1.7545809052   -1.4990261745    1.0919883431
 H   -0.8231692526    1.8857331914    0.5362308680
 H   -0.4306986508    1.7012800740   -1.2386855994
 H    1.9518670619    1.0502387054   -0.5930665594
 H    1.4954307320    1.2430139936    1.1659531824
 H    0.1839083380   -0.6948662562   -0.8641002678
 H    0.3453618836   -1.6064051048    1.4769965763
 H   -0.9492958342   -1.1542357061    3.9743543922
 H   -1.9087176568    0.3377941458    3.8133156482
 H   -3.0191557357   -2.0782300734    2.8973077164
 H   -3.8919243368   -0.9920843383    0.7617411244
 H   -2.8374985599    0.4613021878    1.0888061331
 H   -1.8114120789   -2.4399013140    0.5572144491