19

 C    0.0759405090    1.4865355713   -0.0277984966
 C    0.0372450140    0.0325330795    0.0248664501
 C    0.0109186915   -1.1704242104    0.0761066773
 C   -0.0181667337   -2.6263546297    0.1079682214
 O    0.3874913759   -3.1526195673    1.4057148536
 C   -0.7600558376   -3.9380986695    1.7746171671
 C   -1.0932762582   -4.7142329879    0.4770596259
 C   -1.4222190430   -3.2660225560   -0.0023728026
 C   -1.9561247633   -3.0138758245    1.4421344698
 H    0.7692422720    1.8394553158   -0.7991567489
 H   -0.9117082422    1.9048822295   -0.2511915395
 H    0.4042314642    1.9057221349    0.9297204805
 H    0.6615642062   -3.0243736821   -0.6567216833
 H   -0.5856117116   -4.4000979411    2.7448696005
 H   -0.2749946038   -5.2523296493   -0.0080285925
 H   -1.9827847536   -5.3413245471    0.5577239920
 H   -1.9943680987   -3.0439406196   -0.9013824510
 H   -2.9267209985   -3.4813437839    1.6153781114
 H   -1.9281307887   -1.9951174125    1.8322390548