10

 O    0.0167183171    1.3118271081    0.1272674539
 C    0.0624613948   -0.0240427356    0.0404538461
 N    0.1374348175   -0.7513935974   -1.0287940625
 N    0.1581934724   -2.0926301211   -0.5995953986
 C    0.0938475120   -2.0660534541    0.6938899264
 O    0.0845772313   -3.1041220217    1.5403558830
 N    0.0302151676   -0.7860171896    1.1789543772
 H    0.0506896600    1.6461284090   -0.7790501942
 H    0.1363314264   -3.9012779371    0.9961246703
 H   -0.0263168190   -0.4807641506    2.1355982584