22

 C   -0.2075451709    1.6993207565   -0.0586763231
 C   -0.1865425783    0.1664573091   -0.0450270315
 C    0.7408083075   -0.5006885090   -1.0793254851
 C    0.3346347207   -0.1294118215   -2.5169299985
 C    2.2483908653   -0.1446806577   -0.8628601468
 C    2.9723060253   -1.4457887833   -1.1042471611
 C    2.1367428124   -2.4814354518   -1.1460557554
 C    0.7045948266   -2.0580813916   -0.9405174090
 H    0.7927583417    2.1174067667    0.0974347616
 H   -0.5887150726    2.0946294273   -1.0050043788
 H   -0.8517821187    2.0826578659    0.7389135532
 H    0.1139802397   -0.1754250313    0.9541562333
 H   -1.2082142997   -0.2077077295   -0.1969316711
 H    0.4458818206    0.9423307544   -2.7080267802
 H    0.9616760728   -0.6611466241   -3.2403305626
 H   -0.7089438457   -0.4007669987   -2.7135291954
 H    2.5816194211    0.6582003974   -1.5317711839
 H    2.4359451019    0.2150722149    0.1594967118
 H    4.0514821335   -1.5055779721   -1.1975694391
 H    2.4277552131   -3.5179550464   -1.2793519692
 H    0.3488499586   -2.3652129183    0.0538501359
 H    0.0153291450   -2.5136065371   -1.6626851549