16

 C    0.0212848521    1.5002754415    0.0835210490
 C    0.0598363219    0.0086752323   -0.0387367416
 C   -0.7188276038   -1.0995867615    0.6924357735
 N   -0.2679962822   -2.0875624861   -0.3860101482
 C    1.0669209614   -2.2178662459    0.3444944652
 C    0.7133292448   -0.9110985416    1.0479512899
 O    1.3030946394   -0.3025774557    2.1274957858
 C    0.0218517500   -0.8841566217   -1.2288117661
 O    0.0784971466   -0.7824295464   -2.4127115547
 H    0.9059189806    1.9437978550   -0.3841345537
 H   -0.8637748533    1.9152112979   -0.4074718875
 H    0.0153174982    1.8003461253    1.1344117214
 H   -1.6850370559   -1.0839567542    1.1740065550
 H    1.0468060857   -3.0881919102    1.0074285950
 H    1.9402574183   -2.2612345680   -0.3145940006
 H    1.1100723862   -0.8171575606    2.9194901277