19

 C   -0.0591052672    1.4777560460    0.0183151426
 C    0.0819632877   -0.0352310754   -0.0075844860
 O    1.1636419684   -0.5815222643   -0.0326328259
 C   -1.1920081603   -0.8186534365    0.0013354263
 C   -2.1318640054   -0.8180811372    1.2541691352
 C   -2.5810339035   -2.1931216357    0.7702976765
 C   -2.6252265426   -2.1480219473   -0.7645019975
 C   -2.2030857944   -0.7456626713   -1.1919381753
 C   -1.3223966545   -2.3896827330   -0.0405351857
 H    0.9288705726    1.9397057745    0.0192768986
 H   -0.6270638413    1.8228326799   -0.8529379305
 H   -0.6166455388    1.7952867960    0.9066066017
 H   -1.5581155815   -0.8914535294    2.1823334421
 H   -2.8659809871   -0.0073770917    1.3314762706
 H   -3.1333270501   -2.9422101085    1.3224116478
 H   -3.2092089548   -2.8645407262   -1.3271695687
 H   -2.9398699957    0.0661107376   -1.1783821604
 H   -1.6853244948   -0.7627750534   -2.1552357957
 H   -0.5908984569   -3.1813468641   -0.0845934158