19

 C   -0.0118894638    2.0258943430   -0.3035526705
 C   -0.0896978258    0.5484151147    0.0748197696
 N   -1.4836903956    0.1568019822    0.2519771867
 C   -1.8496371148   -0.9573624603    0.9395086309
 O   -1.0700335011   -1.7557654516    1.4168163163
 C    0.6166241260   -0.4072801305   -0.9426137410
 C    0.0167789911   -0.3821584798   -2.3603354302
 C    2.0504951274   -0.1106347154   -0.9788145007
 N    3.1772222931    0.1469472363   -1.0080871786
 H    1.0280600048    2.3262570538   -0.4499896341
 H   -0.5583251415    2.2354627604   -1.2295584371
 H   -0.4375906984    2.6443066956    0.4916582942
 H    0.4122304918    0.3931218420    1.0353787305
 H   -2.2057241054    0.7633714841   -0.1033010312
 H   -2.9497375309   -1.0603876786    1.0172922861
 H    0.5042500906   -1.4135296295   -0.5246086954
 H   -1.0553938891   -0.5874497658   -2.3095431278
 H    0.1686559284    0.5843455560   -2.8476202668
 H    0.4824606832   -1.1482823366   -2.9842832107