22

 C    0.0044303010    1.5844384528    0.0082106316
 C    0.0085343995    0.0548218910   -0.0184137416
 C   -1.4135707705   -0.5386782083    0.0485508865
 C   -1.4323486759   -1.9977087828    0.0226742729
 C   -1.4143085007   -3.2028132549    0.0056666107
 C   -1.4144536123   -4.6662226988   -0.0354841007
 C   -2.8522806827   -5.2223158624   -0.0167029039
 C   -0.6297095890   -5.1887218249   -1.2552819822
 H    1.0218068769    1.9841101080   -0.0412811568
 H   -0.5561277343    1.9953704092   -0.8390501116
 H   -0.4582635219    1.9650689658    0.9257880391
 H    0.4990357911   -0.3055582206   -0.9296153873
 H    0.5942793286   -0.3359329869    0.8211908775
 H   -1.9112455023   -0.1788036661    0.9596874776
 H   -2.0066403430   -0.1466559301   -0.7892343998
 H   -0.9053118674   -5.0302780649    0.8683445444
 H   -2.8372123872   -6.3171165022   -0.0053879278
 H   -3.3968279826   -4.8742617906    0.8649643903
 H   -3.4025899157   -4.8955796018   -0.9046056679
 H    0.3975955019   -4.8149428513   -1.2513696320
 H   -0.6004261293   -6.2832972926   -1.2494035546
 H   -1.1045419040   -4.8630858877   -2.1861264243