23

 C    0.2914093693    1.4965312430   -0.3798936296
 C   -0.1714696051    0.1141087445    0.1144878218
 C    0.6227495538   -0.4012002714    1.2797970008
 C    0.1744359168   -0.6255134369    2.5170399463
 C    1.2399957933   -1.1821976685    3.4343206653
 C    2.5357009835   -1.0003511223    2.6158211864
 C    2.0849871230   -0.7867993228    1.1532808779
 O    1.3842262068   -0.4956268964    4.6731834653
 C    0.4005284532   -0.8188753798    5.6251571797
 H    1.3337818140    1.4773159299   -0.7124472840
 H   -0.3200807459    1.8300292995   -1.2238708906
 H    0.2084187614    2.2424192717    0.4165845359
 H   -1.2306650042    0.1632580961    0.3907219735
 H   -0.0993439135   -0.5998461961   -0.7183158339
 H   -0.8504100983   -0.4707592161    2.8379569308
 H    1.0422967215   -2.2468994225    3.6552958034
 H    3.0244886648   -0.0999639264    2.9988812473
 H    3.2328101159   -1.8324757471    2.7371334460
 H    2.1803144332   -1.7075854464    0.5602791819
 H    2.6834943930   -0.0302514505    0.6333323233
 H    0.3768840313   -1.9003353469    5.8370089513
 H    0.6526650008   -0.2867102985    6.5462539157
 H   -0.6091994585   -0.5117355762    5.3124130954