18

 C   -0.3685487247    1.5926681420   -0.1365276845
 C    0.5113256194    0.3748661226    0.1308986991
 N    1.2387527805   -0.0087785782   -1.0739353558
 C    2.0322192565   -0.9908828510   -1.0029566298
 C    2.8577053094   -1.5142086322   -2.1746281514
 N    3.6694606465   -2.5422301348   -1.5487578339
 C    3.3140529510   -2.7866550494   -0.2440432373
 O    3.7297823326   -3.6412584135    0.4999000128
 N    2.3531519265   -1.8115904109    0.0685907199
 H    0.2413637791    2.4397272569   -0.4634718993
 H   -1.0909725298    1.3750380450   -0.9284169297
 H   -0.9167819685    1.8854968064    0.7643997150
 H    1.2134132690    0.6023928696    0.9506185166
 H   -0.1159454408   -0.4605230304    0.4840181620
 H    2.1969063555   -1.9098506443   -2.9558430034
 H    3.4571517567   -0.7092966107   -2.6117955390
 H    4.1837569729   -3.2399720729   -2.0573435060
 H    1.9777872584   -1.7380699343    0.9981418147