17

 C    0.1526608804    1.5542522025    0.0569574929
 O    1.2103789377    0.6073844015   -0.0919823204
 C   -0.1301739615    0.1132259868    0.0137089583
 C   -0.4716367267   -0.6802634833    1.2398298778
 C   -1.9702365090   -1.0013011581    1.5177486293
 C   -1.5407483471   -2.4166773111    1.9895063540
 C   -0.1943521226   -2.2127742835    1.2446193102
 H    0.1244514192    2.0769902146    1.0127377449
 H   -0.0488607626    2.1750311751   -0.8153273993
 H   -0.5207807211   -0.2931648937   -0.9228463677
 H   -0.0076495561   -0.2056933173    2.1105036066
 H   -2.5039103575   -0.3593126562    2.2225526478
 H   -2.5451489682   -1.0449674803    0.5864705736
 H   -1.4017065738   -2.4554403597    3.0737148403
 H   -2.1648275660   -3.2618952120    1.6909249403
 H   -0.2281678898   -2.6222207322    0.2294729498
 H    0.7221745747   -2.5588104331    1.7269581814