19

 C    0.1619270735    1.1649404286    0.7654931195
 C   -0.0242975610   -0.0660801564   -0.0921132239
 C    0.7490732726   -0.2632840030   -1.3272176185
 O    1.0863613704   -0.9709810451   -0.1293200659
 C   -1.3532832338   -0.7400621765    0.0276549756
 C   -1.8766563884   -1.6939703868    1.1400119313
 C   -2.8711756039   -1.6871750319   -0.0414220444
 C   -2.7833260840   -0.1457467132   -0.1135371332
 O   -1.7233143805   -1.7705972446   -0.9761303737
 H    1.1783139812    1.5483848798    0.6512687787
 H   -0.5457149911    1.9514756031    0.4841826385
 H    0.0035480708    0.9287837013    1.8232405759
 H    0.3297205544   -0.8740214726   -2.1228155015
 H    1.4619396647    0.5009955449   -1.6354331299
 H   -1.2984825946   -2.6100646069    1.2583677173
 H   -2.1977166667   -1.2556298942    2.0882157163
 H   -3.7194558588   -2.3415229337   -0.2380534127
 H   -3.1861859022    0.4354150325    0.7198749447
 H   -3.0087711026    0.2865767148   -1.0892721842