16

 C    0.0312665011    1.5257658610    0.0051511922
 C   -0.0136023809    0.0330904125   -0.0055727624
 C    0.8407216695   -0.9817382787   -0.7588164754
 C    0.8164470079   -0.9868830914    0.7663784598
 C   -0.3685042699   -1.9946104846    0.7472870713
 C   -0.3380788115   -1.9964421058   -0.7902729378
 C   -1.2057683646   -1.0045097927   -0.0251085375
 O   -2.5659838479   -0.8498787028    0.0370575666
 H    1.0684079961    1.8781550947    0.0370064877
 H   -0.4343984548    1.9540303234   -0.8907214417
 H   -0.4863096428    1.9369077939    0.8794565725
 H    1.6628992717   -0.8026132941   -1.4406718859
 H    1.6161998865   -0.8172224766    1.4766839978
 H   -0.6809803419   -2.7799144618    1.4218307275
 H   -0.6120046223   -2.7907183977   -1.4719683785
 H   -2.8854782062   -0.5963103592   -0.8367422963