19

 C   -0.0336150178    1.5944635010    0.0247018657
 C    0.0711803935    0.0764433850   -0.0106238973
 C    0.8464120448   -0.4870122351   -1.2535937486
 C    1.3925123271   -1.8479715706   -0.7480407782
 C    1.5489359129   -1.6258140968    0.7485044220
 C    2.1938637697   -0.3658341112    1.2012688103
 N    0.7270182656   -0.4834959887    1.1836051155
 C    0.0176910751   -0.5852511821   -2.4457234010
 N   -0.6589301496   -0.6572053514   -3.3807293798
 H    0.9577767666    2.0592811443    0.0476141340
 H   -0.5640392609    1.9631279514   -0.8582362679
 H   -0.5800010516    1.9156207980    0.9150605963
 H   -0.9369786731   -0.3534963206   -0.0263009259
 H    1.6795260470    0.1828130594   -1.4920506638
 H    0.6597969931   -2.6397391081   -0.9310916754
 H    2.3211950237   -2.1331172977   -1.2493502959
 H    1.5515764242   -2.5000996792    1.3928152124
 H    2.6243324408   -0.3067480257    2.1960896113
 H    2.6924951189    0.2607449480    0.4658256364