23

 C   -0.2020334085    1.5925849782    0.1114390290
 C   -0.0017460953    0.0788150281   -0.0221624593
 C    0.7997932998   -0.5324606560    1.1302919363
 C    0.9092709816   -2.0750358403    1.1298290405
 C    1.9690389525   -2.3088418122    2.2451539724
 C    2.9130606529   -1.6269911604    1.2147077799
 C    2.0657492467   -2.3529999042    0.1265028008
 C    2.3476593421   -0.1948901581    1.1657826614
 O    2.8444626838    0.5876169681    0.0930660731
 H    0.7604018944    2.1097602400    0.1010300957
 H   -0.8108535245    1.9843615429   -0.7097609947
 H   -0.7129740483    1.8393953665    1.0492771532
 H   -0.9799479578   -0.4185582544   -0.0588734445
 H    0.4778337463   -0.1381597640   -0.9844008609
 H    0.3358810329   -0.2049000640    2.0692422977
 H   -0.0256321975   -2.6366671799    1.0953206590
 H    1.8159597250   -1.8147078828    3.2100396253
 H    2.2073145022   -3.3642957371    2.3964291529
 H    3.9986717505   -1.7168540418    1.2642844567
 H    2.3120030611   -3.4145231317    0.0526785043
 H    2.0038172180   -1.9299745555   -0.8822361055
 H    2.6118034642    0.3721658816    2.0624431648
 H    2.7940451279    0.0643806373   -0.7132781680