23

 C    0.4019517205    1.2629931551    0.2137646169
 O   -0.1724647868    0.0377986222   -0.1963740187
 C    0.4848303332   -0.5869650666   -1.2674939982
 C    0.3096865537    0.0958371158   -2.6061486053
 C    1.7882182523   -1.3025307219   -0.9416880913
 C    0.5078367216   -2.0907479050   -1.1790471440
 C   -0.1712088495   -2.7975677744   -0.0265743862
 O    0.3900397518   -2.7373087110   -2.4191068545
 C    1.1478197817   -3.9250344786   -2.5388853969
 H    1.4704034221    1.1524709417    0.4482683664
 H    0.2930965528    2.0488680973   -0.5461070010
 H   -0.1301808274    1.5750574461    1.1156682338
 H    0.8453316310    1.0502868819   -2.6415928722
 H    0.6820709842   -0.5396629489   -3.4097640538
 H   -0.7521900806    0.2912025022   -2.7875983385
 H    2.5523594265   -1.3340093635   -1.7112684155
 H    2.1602388969   -1.2391047101    0.0755307103
 H   -0.2013870476   -2.1524559305    0.8516328607
 H   -1.2002179783   -3.0517043594   -0.3008520292
 H    0.3515280445   -3.7222694443    0.2395445636
 H    2.2094048175   -3.7546043102   -2.3091321663
 H    0.7751863270   -4.7244527410   -1.8839590214
 H    1.0565038028   -4.2546319270   -3.5766744889