20

 O   -0.1053045254    1.5566834224    0.0150449382
 C    0.0983323373    0.1474174152    0.0037004901
 C   -1.2828279235   -0.4849023729   -0.0331315872
 C   -2.0566497415   -0.5347153236   -1.4340587260
 C   -1.8663707127   -2.0724105394   -1.3568991106
 C   -2.2772688907   -3.5676834008   -1.1360156102
 N   -0.9637530849   -3.4402395702   -0.2910710191
 C   -0.4441266014   -2.6681810259   -1.5037946305
 C   -1.6007532865   -2.0418007398    0.1164968856
 H    0.7544321988    1.9845841908   -0.0394280128
 H    0.7060300692   -0.1412011269   -0.8642251249
 H    0.6283671109   -0.1891975191    0.9089581968
 H   -1.8645875817    0.0433223303    0.7276571498
 H   -3.0900869963   -0.1948043075   -1.3331891771
 H   -1.5896949777   -0.0152718867   -2.2755946256
 H   -3.1700081718   -3.7593950276   -0.5357971375
 H   -2.1709545379   -4.2915146327   -1.9502771523
 H   -0.2515006469   -3.2991277962   -2.3770594422
 H    0.4273664794   -2.0537446424   -1.2807340025
 H   -2.4186370469   -2.2018981371    0.8228241681