16

 C    0.0623939861    1.5507706673    0.0314597829
 C   -0.0252929922    0.0608025195   -0.0067031805
 C    0.8965794581   -0.9966916692   -0.5756152801
 C    0.5193369352   -1.0125268233    0.9115332748
 C   -0.7473530840   -1.9040500488    0.8011536484
 O   -0.4710208452   -2.9550821653   -0.1518460868
 C   -0.2650328491   -1.8838426635   -1.1001362224
 C   -1.2100825347   -0.9158347438   -0.3176587036
 H    1.0759233137    1.8755356060    0.2908532641
 H   -0.1882428694    1.9923873871   -0.9401432580
 H   -0.6216583824    1.9739795497    0.7763246784
 H    1.9185538459   -0.9125323108   -0.9201659603
 H    1.2531164192   -0.9404793321    1.7031169322
 H   -1.3000841699   -2.2271775105    1.6815905178
 H   -0.3296545198   -2.1865191423   -2.1438331436
 H   -2.2408432915   -0.6862510501   -0.5767047435