19

 C   -0.2569921521    1.3960910227   -0.0724894804
 C   -0.0021878715   -0.1093579277   -0.0219138556
 C   -1.1535133982   -0.8881838321    0.6808331537
 N   -0.3143142827   -1.0642215089    1.9118856738
 C    0.8803833343   -0.5446633842    1.1831068811
 C    1.8162688018   -1.6872077411    0.7880252620
 O    2.3914659563   -1.4928126560   -0.5158809650
 C    1.5131338213   -1.1158977954   -1.4760688300
 N    0.3876196548   -0.5501036375   -1.3483306076
 H    0.6562262771    1.9331623707   -0.3480268231
 H   -1.0225782385    1.6198956863   -0.8208606388
 H   -0.5963569679    1.7678065646    0.9003183871
 H   -2.0887538481   -0.3385453272    0.8248711302
 H   -1.3801276420   -1.8497435853    0.2105872912
 H   -0.6014635611   -0.4177076899    2.6385195616
 H    1.4248698340    0.2588670138    1.6882259586
 H    2.6605556646   -1.8006984127    1.4706012643
 H    1.2467699182   -2.6233636104    0.7793301037
 H    1.9050285395   -1.3595377796   -2.4627612967