13

 N   -0.0530220228    0.8827060711    0.9241096850
 C   -0.0469948282    0.0614592165   -0.0326368901
 O    1.0804757029   -0.1727329557   -0.7867434369
 C    1.5237870772   -1.3843682635   -1.3030131894
 O    2.5561957921   -1.3739215747   -1.9099122408
 C    0.7567157099   -2.6058488658   -1.0209119807
 C   -0.5591144539   -2.7294269945   -0.7776463721
 N   -1.5518829726   -1.7567246457   -0.7955964806
 C   -1.3334884357   -0.5427464771   -0.4824047571
 H    0.8882458346    1.2340635874    1.1140636869
 H    1.3548888478   -3.5047351199   -1.1197614879
 H   -0.9593303256   -3.7293565879   -0.6300991833
 H   -2.1695674456    0.1555442398   -0.5089860331