19

 O    0.0610130941    1.3162822515   -0.3327021210
 C   -0.0687516034   -0.0277229208    0.1322574272
 C   -1.4970043702   -0.5275613076   -0.1025914217
 O   -1.8759449519   -0.2894178269   -1.4453059159
 C   -1.6199127487   -2.0232311920    0.1371587347
 O   -1.2379726006   -2.4243740972    1.4855284005
 C   -2.4587824787   -3.1641490904    1.6189014975
 C   -3.6386600854   -2.2503922956    1.5880365851
 C   -2.9885029298   -2.6844691465    0.2877798459
 H   -0.3878035578    1.8916115112    0.2961769062
 H    0.6314566208   -0.6151794114   -0.4708924103
 H    0.2101978990   -0.1298804256    1.1874565322
 H   -2.1701936662    0.0079822438    0.5906509768
 H   -1.4534026763    0.5470390058   -1.6840911615
 H   -0.9992377343   -2.5526593434   -0.5971719930
 H   -2.4105194488   -4.1380661675    2.0911182820
 H   -4.5990723307   -2.7204444105    1.7763560639
 H   -3.5444986178   -1.2353550266    1.9626664449
 H   -3.5218445833   -3.2064539701   -0.4935131334