17

 O    0.1094058714    1.3887901508    0.1241479881
 C    0.0213486680    0.0113085558    0.0580699263
 C    0.8550625108   -0.7739090815    1.0593143197
 O    0.5282488601   -2.1211968740    0.6615898840
 C   -0.3810193800   -1.9135393495   -0.4143489131
 C   -1.3537827945   -0.7800858064    0.0272009462
 C   -1.9771637232   -0.3117282886   -1.2769278185
 O   -0.8110509713   -0.2894890958   -2.1427981391
 C    0.2139576435   -0.7708975871   -1.2799368198
 H   -0.1658838996    1.7347028015   -0.7340434093
 H    1.9305228486   -0.5905010815    0.9527139277
 H    0.5647947874   -0.5991167735    2.1019140494
 H   -0.7190883210   -2.8594288976   -0.8317953208
 H   -1.9819181002   -0.8783562966    0.9114520912
 H   -2.7289537261   -0.9981100240   -1.6831910719
 H   -2.4157489995    0.6920798106   -1.2167525815
 H    1.1647346955   -0.8433839127   -1.8060384186