23

 C   -0.0012769607    1.5817052897    0.0005582806
 C    0.0559506604    0.0532728253    0.0174064346
 C    0.7805002087   -0.5647690837   -1.2065491889
 C    1.2912399666   -1.9224427858   -0.7235968670
 C    0.7030335077   -3.2055342564   -1.2586679530
 C    2.1247200942   -2.8174051134   -1.5997499893
 C    1.5300407025   -1.7797510118    0.7582082933
 C    2.2873714092   -0.5555487872    1.2195708728
 C    0.7766275115   -0.5531025959    1.2211160439
 H    1.0062716245    2.0122501226    0.0091417216
 H   -0.5157070237    1.9505695708   -0.8936839660
 H   -0.5355701702    1.9693689019    0.8745420694
 H   -0.9730486204   -0.3317815464    0.0342040357
 H    0.1263811511   -0.6465699236   -2.0795867167
 H    1.6206908842    0.0758471088   -1.5035071680
 H    0.5507877162   -4.0295302481   -0.5684283706
 H   -0.0466391100   -3.1390552919   -2.0409158993
 H    2.3347488472   -2.4918937975   -2.6138904704
 H    2.9311535506   -3.3792928720   -1.1396878188
 H    1.5804340931   -2.6801290137    1.3617872549
 H    2.7786854022   -0.6151016956    2.1848043388
 H    2.8278328755    0.0392953762    0.4902412250
 H    0.2694658997   -0.5348931622    2.1802336876