21

 C    0.4955520441    1.2635327909   -0.2699362623
 C    0.0687046969   -0.1678506576    0.0186734103
 C   -1.4191313877   -0.3864118922   -0.2189372852
 O    0.8485398246   -1.1226435782   -0.7743378280
 C    1.4421768500   -1.7188834991    0.4065574018
 C    2.9545813479   -1.5532712204    0.3689304607
 O    3.4639285859   -2.0937463204   -0.8360773374
 C    0.6196357597   -0.7892009740    1.3329359150
 O    1.3192601975    0.1291121122    2.1416147683
 H    1.5585970171    1.4103236318   -0.0741731343
 H    0.2958752264    1.4946224782   -1.3211694958
 H   -0.0649858744    1.9676341645    0.3522657448
 H   -1.6774278809   -0.1459537786   -1.2550189647
 H   -1.6938149525   -1.4289657910   -0.0339287532
 H   -2.0139352473    0.2540762212    0.4410969422
 H    1.1857170937   -2.7845617740    0.4656207210
 H    3.2178796710   -0.4926305283    0.4832465817
 H    3.4215531959   -2.1051450558    1.1930958717
 H    2.9244592070   -1.7074371686   -1.5379206013
 H   -0.1493050449   -1.3153063573    1.9111596914
 H    1.5471602502   -0.3027400934    2.9702524334