17

 O    0.3857794898    1.0323733702    0.6257562838
 C    0.0474815631   -0.0308214955   -0.2430998156
 C   -1.3989967526   -0.4890952677   -0.0880376014
 C   -1.6858085308   -1.8845879317    0.3332842736
 N   -1.8919064882   -0.7624169303    1.2635570018
 C   -2.4613425745    0.2375176596   -0.9356220524
 O   -3.7594945250   -0.0514836397   -0.4999699224
 C   -2.1940611869    1.7007083812   -0.9028824730
 N   -1.9373190403    2.8274208667   -0.8562551700
 H   -0.0647086801    1.8311036522    0.3243246789
 H    0.2448398071    0.2203773708   -1.2966260916
 H    0.7169987612   -0.8551135872    0.0220231286
 H   -2.5996975230   -2.3724411667    0.0095568987
 H   -0.8372457316   -2.5444218209    0.4906460255
 H   -1.1412236376   -0.6586165828    1.9408776364
 H   -2.3782094212   -0.0829283456   -1.9812886012
 H   -3.6852205594   -0.1261325326    0.4687613104