17

 C    0.0313904322    1.5904733399    0.1194646602
 C    0.0877452334    0.0981051084   -0.0166003154
 C   -0.8830305986   -0.8738262307    0.6518701367
 C    0.5889772623   -0.9651632682    0.9687401221
 N    1.3085858826   -1.5765004773   -0.1561561127
 N    1.5982059516   -2.8053763849   -0.6395903629
 C    1.4098544419   -2.6383388706   -1.9524124784
 C    0.8668596281   -1.3632192131   -2.3003547975
 C    0.8110045590   -0.7150012864   -1.0857975545
 H    1.0250202598    2.0358722843    0.0100083798
 H   -0.6197643657    2.0289044511   -0.6448987465
 H   -0.3671661607    1.8786118865    1.0970745962
 H   -1.5061450069   -0.4505118333    1.4368971119
 H   -1.3537142967   -1.6625068631    0.0738075274
 H    1.0358337885   -0.8630958298    1.9486258232
 H    1.6881160766   -3.4333428406   -2.6313426979
 H    0.5935638624   -1.0152642123   -3.2827162217