15

 O    0.0547668746   -0.0595543816    0.0114462460
 C   -0.0209439903    1.1479097781    0.0299872547
 C   -1.3278970607    1.9274385148    0.0926316225
 C   -1.2142475279    3.2673022212    0.8392090575
 C    0.0087240584    4.0224602670    0.4034196902
 C    1.0920977170    3.3451603531   -0.0074782041
 N    1.1097644741    1.9423123585   -0.0649684920
 C    2.3011416996    3.9977422979   -0.4018747577
 N    3.2945851919    4.5014496498   -0.7167907836
 H   -1.6258047870    2.1122636153   -0.9481479447
 H   -2.0817547952    1.2728997015    0.5323307543
 H   -2.1160584442    3.8646148759    0.6760074806
 H   -1.1607734977    3.0906288233    1.9242479223
 H    0.0364345718    5.1034636636    0.4350303951
 H    1.9845316055    1.4576467316   -0.2029842411