11

 O   -0.0688173192   -0.0462507190    0.0050642270
 C    0.0199296439    1.1413521047    0.0089557752
 O   -1.0724504300    1.9856873972    0.0283526783
 C   -0.7199076821    3.3915437389    0.0302026711
 C    0.7679063980    3.3371614054    0.0094242277
 C    1.1874858172    2.0554899888   -0.0025009049
 O    2.4971693620    1.9884335980   -0.0203908368
 N    2.9144474464    3.4263681522   -0.0200009736
 N    1.8791919266    4.1312326342   -0.0020121999
 H   -1.1658144164    3.8605752420   -0.8521313058
 H   -1.1412256063    3.8520476978    0.9289596718