20

 C   -0.2080276174    1.5026878539   -0.0752429802
 C   -0.1015363655    0.0511253812   -0.0376042534
 C    0.0024046654   -1.1476670520    0.0005668072
 C    0.0837515232   -2.6096901219    0.0254353477
 C   -1.3307364463   -3.2270499878    0.0986741025
 N    0.9006658355   -3.0664639169   -1.1099875304
 C    1.1793897449   -4.4908656881   -1.1604946022
 C    2.3638992716   -4.7628573064   -2.0760409360
 O    2.4891521236   -5.7502610550   -2.7514916409
 H    0.4683764799    1.9293582311   -0.8239550768
 H   -1.2252350664    1.8239512689   -0.3247758914
 H    0.0512195099    1.9440874522    0.8933699637
 H    0.6308810846   -2.9120406599    0.9306212080
 H   -1.2776377568   -4.3175070924    0.1677623621
 H   -1.8664203813   -2.8536108570    0.9758668211
 H   -1.9088664772   -2.9604357201   -0.7918035545
 H    0.4778377114   -2.7484950065   -1.9761165167
 H    1.4922045263   -4.8114613313   -0.1544069095
 H    0.3489003329   -5.1477997026   -1.4607645579
 H    3.1253221217   -3.9511718993   -2.0606226124