14

 O    0.0143350869   -0.0630867091    0.0039024279
 C    0.0401293881    1.1469645696    0.0091424781
 N   -1.0584318150    1.9999430697    0.0287902308
 C   -0.7551468073    3.4302587117    0.0306786987
 C    0.7451728290    3.4016156413    0.0093588846
 C    1.1577449618    2.1103744838   -0.0022681068
 O    2.5018720527    2.0076798589   -0.0216876347
 C    2.9544928952    3.2959336351   -0.0222704669
 C    1.9269466990    4.1987750045   -0.0037268739
 H   -1.9929000247    1.6285852451    0.0396990281
 H   -1.1812829458    3.9344101945   -0.8469599261
 H   -1.1562818447    3.9267501079    0.9243176186
 H    4.0263728311    3.4077627824   -0.0368930804
 H    2.0290029235    5.2725846647   -0.0003413581