17

 C   -0.0265418452    1.5574520195    0.0541813293
 C    0.0491776382    0.0608558214   -0.0055704904
 C   -0.8364366214   -0.8514354575    0.8225633348
 C    0.6420020136   -1.0000736867    1.0144061797
 C    1.1952962499   -1.8516716780   -0.1465851014
 C    0.6803752478   -0.7459917147   -1.1023172121
 O    0.9004011809   -0.5040201608   -2.2558109747
 C    1.3185472577   -0.7252841607    2.2320589424
 C    1.9039942027   -0.4904038321    3.2574177434
 H    0.8831890390    2.0114321342   -0.3491115036
 H   -0.8744487359    1.9286154453   -0.5311327578
 H   -0.1533239691    1.8980188242    1.0863789930
 H   -1.3672306091   -0.3374860064    1.6173887143
 H   -1.3978830741   -1.6584107163    0.3585579554
 H    2.2864722614   -1.9015672056   -0.1804166386
 H    0.7803605848   -2.8584679642   -0.2480974598
 H    2.4183350386   -0.2877522116    4.1639152860