21

 C   -0.3250253582    1.5909753560   -0.0920524253
 O   -0.2550066364    0.3166424133    0.5057439759
 C   -1.2565183800   -0.5640376279    0.0777238355
 C   -1.0946741296   -1.1516388419   -1.3398225404
 C   -1.8751235449   -2.4737654325   -1.2352487508
 O   -2.0684260183   -2.7361768961    0.1685549900
 C   -1.2812176264   -1.8447730017    0.9231015699
 O    0.0333694252   -2.2894133483    1.0918251567
 C    0.1375910176   -3.4479356871    1.8972688029
 H    0.4505877288    2.2059628616    0.3703957219
 H   -0.1440479055    1.5540742037   -1.1764844158
 H   -1.3041128490    2.0672492793    0.0777364009
 H   -2.2476587519   -0.0900777282    0.1727935404
 H   -1.4814773685   -0.5033711096   -2.1283939688
 H   -0.0305298264   -1.3274518452   -1.5160656607
 H   -2.8675418137   -2.4089674196   -1.6943481796
 H   -1.3404511513   -3.3101553465   -1.6986303495
 H   -1.7780941662   -1.7337577340    1.8969979029
 H    1.1997827927   -3.6903206881    1.9728438941
 H   -0.2597575120   -3.2683398339    2.9080405566
 H   -0.4000342560   -4.2963484531    1.4568667332