15

 C   -0.2239399818    1.5531467768    0.0064440687
 C    0.1039395643    0.0625628555   -0.0162125426
 C    0.9264099297   -0.4362095706   -1.2263459018
 N    1.7975558734   -1.4610258865   -0.6638340160
 C    1.9142025415   -1.4770271718    0.6966975695
 O    2.6397720833   -2.1682593304    1.3713027959
 C    0.9118063823   -0.4077339584    1.1904667157
 O    0.8138140222   -0.0264320381    2.3238850097
 H    0.6871574231    2.1563164522   -0.0605358165
 H   -0.8778795016    1.8289301385   -0.8259736645
 H   -0.7246543924    1.8075739842    0.9437112487
 H   -0.8304550842   -0.5154807687    0.0231503697
 H    0.2952761395   -0.8514714594   -2.0181010372
 H    1.5100551142    0.3857445683   -1.6627089208
 H    2.4041710966   -2.0306479818   -1.2334679386