14

 N   -0.0889876949    1.2142723629    0.0075704411
 C   -0.0355713994   -0.0363722034    0.0005629610
 C   -1.2360438277   -0.9889304927    0.0023444245
 N   -0.5464753078   -2.2536223573   -0.0085100693
 N   -0.9322675328   -3.5492086307   -0.0128117731
 C    0.2307294638   -4.2017312819   -0.0237459436
 C    1.3688939250   -3.3463136965   -0.0246146906
 C    0.7888553877   -2.1034023936   -0.0151003199
 O    1.1460877343   -0.7858699751   -0.0099940499
 H    0.8413015957    1.6332427208    0.0045722727
 H   -1.8501585589   -0.8453474785    0.8962109132
 H   -1.8604848332   -0.8356510007   -0.8827110533
 H    0.2285662129   -5.2819410925   -0.0298808195
 H    2.4121779554   -3.6072403910   -0.0316128832