19

 C   -0.0819354157    1.5683246555   -0.0439266886
 C    1.4516130075    1.5169604612    0.0045268000
 C    1.3934654831    0.1947384509    0.8270655822
 C    2.5315368851   -0.4429417314   -0.0519563405
 C    2.2490000043   -1.8297279774   -0.5539613352
 C    1.1745621455   -1.7622728713   -1.3475683256
 C    0.6717985423   -0.3376099590   -1.3660643525
 C    0.0425608166    0.0220798376    0.0218498703
 C    1.9477789479    0.5327291536   -1.1192164132
 H   -0.5033716564    2.0015576219    0.8684799031
 H   -0.5794623638    1.9991384248   -0.9200846683
 H    2.0881215489    2.3622880446    0.2628226078
 H    1.3670531902    0.1424391027    1.9142733416
 H    3.5327580697   -0.2232208278    0.3213225520
 H    2.7818220354   -2.7234319578   -0.2524240916
 H    0.6566412205   -2.5912562314   -1.8149453785
 H    0.0389821758   -0.0608009079   -2.2113525577
 H   -0.7694188429   -0.6121839249    0.3767002715
 H    2.5271241859    0.8507633961   -1.9867507567