14

 N   -0.0754064644    0.9564392202    0.6671339208
 C   -0.0093546463   -0.0959963009   -0.0095236537
 O    1.1348418141   -0.7163774072   -0.4547521147
 C    0.7961826678   -1.9313743461   -1.0906931319
 C    0.7882255220   -3.1959210083   -0.2021267767
 O    0.0558135230   -2.8597778465    0.9712618135
 C   -0.6956135975   -3.2140643973   -0.1847398561
 C   -0.7548232669   -1.9525742528   -1.0761262160
 O   -1.1245193021   -0.7478702934   -0.4440601237
 H    0.8580108339    1.2998311340    0.8779062049
 H    1.3070008552   -2.0223781366   -2.0497932387
 H    1.5127974669   -3.9981366981   -0.1375920694
 H   -1.3982641754   -4.0338886276   -0.1024773525
 H   -1.2791812704   -2.0657795993   -2.0254678057