20

 C   -0.0065082899    1.4897978651   -0.0294875040
 C    0.0193079481   -0.0221799765   -0.0114098707
 C   -1.2879737227   -0.7648857094   -0.3524126248
 C   -1.4400572491   -1.8609293390    0.7066167202
 C   -0.5397417849   -3.0415919206    0.6828898873
 N   -0.2394254991   -1.8927158661    1.5647032598
 C    0.6647928151   -0.8532040500    1.0962869150
 C    1.2966386477   -0.7555971292   -0.2921030532
 O    1.3267506624   -1.7706006372   -1.2551984591
 H    0.9541314551    1.9076245144    0.2878176610
 H   -0.2163814985    1.8725283992   -1.0353293328
 H   -0.7784323815    1.8791855940    0.6444203648
 H   -2.1253197703   -0.0636844174   -0.2908926188
 H   -1.2750867565   -1.1692077473   -1.3691935769
 H   -2.3962847852   -1.9335960945    1.2199928929
 H   -0.8260560949   -3.9397190871    1.2246312177
 H    0.0569202979   -3.2012828089   -0.2033875679
 H    1.2147447081   -0.3791711099    1.9043797416
 H    2.1850804346   -0.1202326969   -0.3127229403
 H    2.0472201836   -2.3696919429   -1.0310344019