17

 C    0.0577853418    1.5323216117    0.2587221132
 C   -0.0323356488    0.0381188207   -0.0969980322
 C   -1.4310865365   -0.4643950006   -0.1950545323
 C   -2.1796301714   -0.9710594470   -1.2077578796
 C   -3.4820878369   -1.2689061482   -0.6587580971
 C   -3.4083795376   -0.9101888485    0.6580662174
 O   -2.1802043687   -0.4242075459    0.9519259650
 C   -4.5982352124   -1.8147986559   -1.3329327472
 C   -5.5389379007   -2.2802555574   -1.9233927137
 H    1.1024692228    1.8474615509    0.3363671139
 H   -0.4302268062    2.1456997638   -0.5045861025
 H   -0.4312386488    1.7328527098    1.2158342135
 H    0.4584216507   -0.1522680964   -1.0565729191
 H    0.5122785828   -0.5468667845    0.6554769597
 H   -1.8663010952   -1.1261656375   -2.2276757995
 H   -4.1194217588   -0.9444104432    1.4662281733
 H   -6.3718416060   -2.6901219519   -2.4382263026