15

 C   -0.4397790617    1.0284610240    1.0412630827
 C   -0.1837024125   -0.1448708761    0.1662350885
 C   -0.9694001773   -0.9063828551   -0.6532083248
 N   -0.1458825884   -1.8481047169   -1.2295421292
 N    1.0362595967   -1.7204409813   -0.8230007556
 O    1.0618458747   -0.6214556384    0.0902100381
 C   -2.4081218844   -0.8511410959   -0.9811742562
 C   -3.4664472645   -0.9508440802    0.0403393776
 O   -3.1294055247    0.3061030958   -0.5512092447
 H   -0.2487053822    0.7801303789    2.0906066248
 H    0.2242678500    1.8563809261    0.7739909939
 H   -1.4752037197    1.3477997760    0.9248372838
 H   -2.6444606768   -1.1923061247   -1.9881589149
 H   -4.4420442928   -1.3478181104   -0.2342523564
 H   -3.1848159065   -1.0665543517    1.0852519124