19

 C    0.3663979642    1.3865634987    0.2411812319
 C   -0.2355675001    0.0429272258   -0.1675989644
 O   -1.5770464171    0.1633564188   -0.6223815450
 C    0.6089828260   -0.6237010973   -1.2416938003
 O    1.8650688271   -1.1711884210   -0.8714159978
 C    0.8393921090   -2.0865272113   -1.3266354604
 C    0.2904068319   -3.0946774308   -0.3520039699
 C    1.1371243554   -2.5927471506   -2.7089839373
 O    0.7863520952   -3.6647738674   -3.1289948975
 H    1.3786498413    1.2515502981    0.6329462969
 H    0.4270369093    2.0649184276   -0.6196093255
 H   -0.2521606003    1.8586698504    1.0089553078
 H   -0.2850823489   -0.6080196078    0.7089271317
 H   -1.6105495507    0.8755794122   -1.2707058285
 H    0.6322368008   -0.0589878632   -2.1807583008
 H    0.2134601817   -2.6782834910    0.6524013762
 H   -0.6976336553   -3.4302050846   -0.6780043550
 H    0.9424376931   -3.9717173321   -0.3162131349
 H    1.7314186674   -1.8773936845   -3.3206971874