18

 C    0.3484892790    1.4609870005   -0.2589425172
 C    0.0022295048    0.0043253033    0.0471960494
 O    0.4232963591   -0.8499321217   -1.0369901698
 C    1.3702645328   -1.7945469599   -0.5771378312
 C    2.6746900978   -1.6103518347   -1.2559623465
 N    3.7047066355   -1.4807757082   -1.7634334968
 C    1.4842617136   -1.5834865433    0.9262470277
 C    2.3674205184   -2.4340808561    1.7765359590
 C    0.6931552905   -0.5670278980    1.2527499436
 H    1.4311099957    1.5898541551   -0.3442598178
 H   -0.1160229530    1.7669309602   -1.2001702248
 H   -0.0217117544    2.1162448426    0.5365428819
 H   -1.0908293972   -0.0932369681    0.1313734277
 H    1.0230315274   -2.8114969663   -0.8196144586
 H    3.4091448961   -2.3780325615    1.4395723087
 H    2.3270131741   -2.1238522412    2.8230881955
 H    2.0730586506   -3.4895257777    1.7209486053
 H    0.5493506392   -0.1705421151    2.2504003140