18

 C   -0.0967835739    1.5166963770   -0.0628099460
 C    0.0755204963    0.0155876590    0.0228629588
 C    1.4045462011   -0.7129062682   -0.2154099841
 C    2.6465168429    0.0876692430   -0.0832562888
 N    3.5359805589    0.2396389748   -0.9662251547
 O    2.6959247896    0.6555733854    1.1706995442
 C    1.6971839643    0.0916868886    2.0337261433
 C    0.7533631791   -0.7111694056    1.1458403969
 O    0.2161667188   -1.8750463472    1.6874739432
 H    0.7575027579    2.0551426395    0.3542028221
 H   -0.2074060369    1.8301254050   -1.1056085789
 H   -0.9946321345    1.8358562023    0.4779385067
 H   -0.7520816560   -0.5563640556   -0.3912160002
 H    1.4149724842   -1.5774063638   -0.8640010709
 H    4.3074975585    0.8007113608   -0.6007318190
 H    2.1706080268   -0.5836742581    2.7554835394
 H    1.2175020599    0.9141543347    2.5751069445
 H   -0.6361256170   -1.6611030517    2.0814909036