16

 C   -0.0332506772   -1.2100776304    0.0088792470
 C   -0.0155127845   -0.0086696076   -0.0225434587
 C    0.0121844440    1.4334080247   -0.0318845627
 C   -0.8911819910    2.2024874414    1.0074993988
 C   -1.2964512643    3.0909881746   -0.1507558813
 C   -0.1620534272    3.4565902201   -1.0743669280
 C    1.2387102530    3.3068938070   -0.5996824874
 C    1.3721832769    2.1047147847   -0.0423492931
 N   -0.7863987815    2.1161473212   -1.1785627909
 H   -0.0503450545   -2.2717539104    0.0253394755
 H   -1.7297121289    1.5751675221    1.3138196151
 H   -0.3998866258    2.6327850689    1.8843008495
 H   -2.2673903539    3.5660266422   -0.2536419107
 H   -0.4002137012    4.1332717231   -1.8893371052
 H    1.9918065969    4.0790538492   -0.6833133089
 H    2.2361908991    1.6889477791    0.4580833812