14

 C   -0.0588450204    1.5471929899   -0.1158028619
 C   -0.0191997975    0.0280393151    0.1149883612
 C   -1.3788987271   -0.5865534952    0.0807904031
 N   -1.9097657383   -1.2016270194    1.1095296937
 O   -3.1639785165   -1.6081025139    0.6578719588
 C   -3.2469139093   -1.1839306789   -0.6107863719
 N   -2.1957718398   -0.5517864386   -1.0321567483
 C   -4.4405780772   -1.4660647503   -1.3322896961
 N   -5.4119670937   -1.6974066330   -1.9138546741
 H    0.9560543983    1.9528934510   -0.1214642390
 H   -0.5294726468    1.7821812634   -1.0738560021
 H   -0.6228318085    2.0496072631    0.6753657767
 H    0.5866227051   -0.4476886931   -0.6645304646
 H    0.4382788617   -0.2103595801    1.0786054445