21

 C    0.1564001955    1.3835978165    0.4780992964
 C    1.4591309350    1.5968439628   -0.3415384247
 C    1.3683318698    0.1209360532   -0.8007263509
 C   -0.1132744121    0.0978089677   -0.3516054958
 O    1.6321806182   -0.1464800035   -2.1924027233
 C    2.6229388545   -1.1862065236   -2.1205696542
 C    2.0519386229   -2.1433821966   -1.0455373539
 C    2.3275236468   -0.8895441712   -0.1545703379
 C    3.5990353220   -0.6684652058   -1.0356263492
 H    0.3589934633    1.1640269377    1.5296421809
 H   -0.5957875266    2.1729315265    0.4289534918
 H    1.3055478445    2.2663900108   -1.1918948063
 H    2.3631231239    1.9038125904    0.1924614197
 H   -0.4666129376   -0.7938837870    0.1743445174
 H   -0.7690076283    0.2886348374   -1.2051774104
 H    2.9169422616   -1.4878510533   -3.1246904847
 H    1.0198370954   -2.4774274391   -1.1733613259
 H    2.7103714979   -2.9815849447   -0.8108539887
 H    2.3575122288   -0.9283154266    0.9340634849
 H    4.4032687135   -1.3676690882   -0.8000070903
 H    3.9828013211    0.3473004464   -1.1543807149