14

 C   -0.0126959895    1.5118718845    0.0470268455
 C    0.0218774112    0.0228581056   -0.0338231823
 C   -0.0590782569   -0.7807537488   -1.1297048115
 N    0.0230731461   -2.0905939263   -0.6556453390
 C   -0.0153360857   -3.2641494763   -1.4072202057
 O    0.0606432399   -4.3660704858   -0.9349448851
 C    0.1505962238   -1.9935101266    0.7190761753
 N    0.1531552980   -0.7561819824    1.1176263228
 H    0.9043816988    1.8977318275    0.5045277621
 H   -0.1192686456    1.9601657016   -0.9439617650
 H   -0.8478852362    1.8480808056    0.6704578096
 H   -0.1648959480   -0.5695224369   -2.1808932505
 H   -0.1236100270   -3.0570792078   -2.4867321375
 H    0.2337342214   -2.8775153939    1.3311863514