20

 C   -0.0939950967    1.5897991252   -0.1105577372
 C    0.0619470053    0.0849548350    0.0173283188
 C    1.0449788752   -0.6643981610   -0.9183384095
 C    1.4131539925   -1.6070808675    0.2560314651
 C    2.8445090150   -2.0899888584    0.4084529926
 C    0.8305981768   -0.5295099068    1.2512067169
 C    1.8201984447    0.3452234994    1.8500187353
 C    2.6426858679    1.0720871104    2.3443454597
 H    0.8725609648    2.0941256152   -0.0218502490
 H   -0.5274211301    1.8492334407   -1.0829210024
 H   -0.7524977192    1.9921642228    0.6670483569
 H   -0.9208353620   -0.3970513240   -0.0259912188
 H    0.6423584488   -1.1144869912   -1.8294819706
 H    1.8929493853   -0.0253337252   -1.1886144197
 H    0.7279777568   -2.4617830448    0.2653568933
 H    3.5411650289   -1.2477563885    0.4503409566
 H    2.9745310141   -2.6760333254    1.3248786821
 H    3.1268968309   -2.7259277637   -0.4380102710
 H    0.1857683987   -0.9334260839    2.0381493094
 H    3.3637075722    1.7109853018    2.7908044615