15

 O   -0.2227535006    1.3722745303    0.1768091765
 C   -0.0526820574    0.0318761558    0.0189688645
 C   -1.0286510148   -1.0946835723   -0.0443602761
 C   -0.3713434653   -1.6963890982   -1.2879177610
 C    0.8876212007   -0.8732218705   -0.8909406217
 C    1.3368483905   -1.5174390116    0.4512096404
 O    2.3810722498   -1.9407680191    0.8590022981
 C    0.0460203648   -1.0899638418    1.0885622333
 O   -0.2818362697   -0.9505905285    2.4105113921
 H    0.4225526365    1.7029004778    0.8132110240
 H   -2.0689576208   -1.0876120313    0.2589570712
 H   -0.2494309123   -2.7847362353   -1.3280105981
 H   -0.8350502450   -1.3366096341   -2.2100215737
 H    1.6280459153   -0.5361205422   -1.6102738066
 H   -0.7472778616   -1.7400044090    2.7084099071