19

 C    0.2502051116    1.4493777138   -0.1999352097
 C   -0.0512611337   -0.0319760437    0.0193731024
 C   -1.5430184623   -0.3403356737   -0.0139987025
 N    0.7582824319   -0.9404160744   -0.8473823543
 C    1.5502657851   -1.4390726087    0.1909992165
 N    2.5623403556   -2.1872105950    0.3088698981
 C    0.7205756236   -0.6800973807    1.2006921338
 C    1.0767467807   -0.1754129243    2.5246200511
 O    0.1191010131   -1.2299532186    2.3500319640
 H    1.3234748765    1.6495798254   -0.1270615752
 H   -0.0943774255    1.7725664509   -1.1889416763
 H   -0.2656520935    2.0653210317    0.5436191612
 H   -1.9792966325   -0.0399647361   -0.9726920108
 H   -1.7193948369   -1.4084850571    0.1289662607
 H   -2.0628700142    0.2021795056    0.7818274726
 H    1.0905681658   -0.7123937029   -1.7745711351
 H    2.9036725572   -2.5131537990   -0.5970883158
 H    2.0248930841   -0.4775355603    2.9648193463
 H    0.6680061835    0.7735227271    2.8691612130