20

 C   -0.0007085941    1.5956745987    0.0273382325
 C   -0.0083238607    0.0626006228    0.0759478571
 C   -1.3845241255   -0.5255406828    0.0421447337
 C   -2.6750075713   -0.1056905017    0.7703743217
 C   -2.6273528287   -0.1700024961   -0.7368013648
 N   -3.1209175633   -1.6145502742   -0.7609978308
 C   -3.1446531935   -1.5785072595    0.7499474102
 C   -1.9043085387   -2.0008327257    0.0443313147
 C   -1.2233975490   -3.3191733895   -0.0984226137
 H    1.0233970883    1.9790080267    0.0443799993
 H   -0.4806107831    1.9659465336   -0.8845048386
 H   -0.5314798001    2.0227551656    0.8843269529
 H    0.5728666456   -0.3292706343   -0.7700747378
 H    0.5105837411   -0.2754624312    0.9834659649
 H   -2.8473642735    0.7237048167    1.4416817402
 H   -2.8316806689    0.5644791024   -1.5065889666
 H   -3.8706313364   -2.1388381301    1.3286276477
 H   -1.9705677619   -4.1170002670   -0.1583134506
 H   -0.6179441424   -3.3572087815   -1.0110291630
 H   -0.5684776240   -3.5253010729    0.7555061608