19

 C   -0.0494790332    1.5355872745   -0.0318736874
 C   -0.0465120423    0.0222267506    0.0309077776
 C   -1.2594640954   -0.6620484424   -0.5678398281
 N    1.2848896601   -0.5867081835   -0.1757340288
 C    0.6711315692   -0.6549942941    1.1438086715
 C    1.2834295493   -0.1469380173    2.4648940956
 N    0.7814480550   -1.3964912830    3.0594739965
 C    0.2771957433   -1.9250710330    1.8936501905
 O   -0.2336565492   -2.9789813456    1.6106006840
 H    0.8833590790    1.9458635575    0.3618306292
 H   -0.1543672572    1.8727248994   -1.0691297998
 H   -0.8865352922    1.9484436558    0.5415701796
 H   -1.3089016600   -0.4694320014   -1.6459305221
 H   -1.2299345485   -1.7409526778   -0.3980743484
 H   -2.1822769143   -0.2755948211   -0.1219329146
 H    1.1972551750   -1.4960761365   -0.6289192495
 H    2.3739544461   -0.0617923551    2.4473698482
 H    0.8386258842    0.7596766762    2.8865704542
 H    0.8841356212   -1.7914935832    3.9809666216