14

 C   -0.8306313842    1.1179976616    0.2013710542
 C    0.3578211212    0.2437633257   -0.1361211052
 O    1.3575322835    0.1931531400    0.5358291245
 C    0.2541898129   -0.5883202852   -1.4112360652
 C   -0.9064960562   -1.5100715518   -1.5511234121
 O   -0.8703589255   -0.2877167209   -2.2617505363
 C    1.4927785255   -0.9095374543   -2.0703572440
 C    2.5266993295   -1.1629844808   -2.6257686746
 H   -0.9289039973    1.9033102174   -0.5555795815
 H   -1.7706312536    0.5595130711    0.1890811348
 H   -0.6718635555    1.5650662972    1.1829569400
 H   -0.7677531698   -2.4112554218   -2.1445544827
 H   -1.6389542505   -1.5765351648   -0.7479214581
 H    3.4440237598   -1.3856477433   -3.1128835136