24

 C    0.0219848673    1.6345364228    0.0825213485
 C   -0.0073767446    0.1055025847   -0.0122286700
 C    0.7017953855   -0.5627331909    1.1728530641
 C    0.7352172332   -2.1106979739    1.1845720504
 C   -0.6870895457   -2.6991111945    1.2403611128
 C    1.4864114796   -2.6619197019   -0.0418716213
 C    1.4941166740   -2.5240664167    2.4589436197
 O    1.5625165557   -3.9418641576    2.5338686489
 H    1.0509944983    2.0110875961    0.1001390905
 H   -0.4870219303    2.0972641437   -0.7688734361
 H   -0.4715689169    1.9848034610    0.9961266586
 H   -1.0492380764   -0.2314790211   -0.0631769469
 H    0.4620539999   -0.2053869079   -0.9527667443
 H    1.7363936344   -0.1919208158    1.2109034164
 H    0.2241351191   -0.2178033431    2.1013995468
 H   -1.2422327931   -2.5002688744    0.3190774671
 H   -0.6443212339   -3.7813906436    1.3832340718
 H   -1.2565544611   -2.2720854221    2.0744246772
 H    2.4802743938   -2.2073826164   -0.1309303619
 H    1.6190841356   -3.7425298413    0.0489992031
 H    0.9429775088   -2.4637824669   -0.9702640346
 H    2.5051365844   -2.0856409687    2.4359129911
 H    0.9743072049   -2.1117412839    3.3391056770
 H    2.0384201075   -4.1780435274    3.3345552809