21

 C    0.3692789138    1.5102205432    0.3225738106
 C   -0.2005223370    0.1512076741   -0.1060563971
 C    0.5532123659   -0.4683431783   -1.2719035235
 C    1.9322575071   -1.0939401049   -1.0689427431
 C    0.7847288113   -1.9794720743   -1.4121233922
 C    0.2192616994   -2.9741394045   -0.4298557897
 O    0.9526493893   -4.1806052710   -0.5926743576
 C    0.3608578016    0.1983400924   -2.5873039236
 O   -0.3784159619    1.1298498568   -2.7934213722
 H    1.4167115846    1.4204380000    0.6301892179
 H    0.3131096134    2.2298481035   -0.4971818119
 H   -0.1948219030    1.9150837795    1.1683353277
 H   -0.1897238013   -0.5309400398    0.7491779752
 H   -1.2486279330    0.2754592317   -0.3997934610
 H    2.7003423976   -0.9128347336   -1.8137405583
 H    2.2951118016   -1.1081844183   -0.0462878656
 H    0.7608098198   -2.3540045761   -2.4329342867
 H    0.3076333098   -2.5953148422    0.5985877147
 H   -0.8520388032   -3.1307131201   -0.6327825780
 H    0.5528999478   -4.8506208488   -0.0299505802
 H    0.9645111765   -0.2468595893   -3.4143244255