15

 N   -0.1820855329    1.2885940921   -0.0386954486
 C    0.0249927914   -0.0341830350    0.2027395880
 O    0.9564174857   -0.5210888057    0.7877670325
 O   -1.0401928497   -0.7514826392   -0.3023251899
 C   -0.9677497947   -2.1450454957   -0.1229581421
 C   -1.2394058390   -2.7109905285    1.2491576166
 C   -2.2896879369   -2.8123456258    0.1784022396
 C   -0.0303478620   -2.8140950060   -0.9953526067
 N    0.6954936656   -3.3652839131   -1.7065588273
 H    0.6021501070    1.8989660889    0.1144091010
 H   -0.8749490256    1.5621020382   -0.7144443291
 H   -0.6929822521   -3.5999789296    1.5389260427
 H   -1.3748817073   -1.9774059177    2.0341367642
 H   -3.1404781465   -2.1433082209    0.2297476852
 H   -2.4798713829   -3.7732204021   -0.2836312459