18

 C    0.0635778005    1.3101319378    0.6311867128
 C   -0.0417255512   -0.0758080385    0.0302680985
 C   -1.3327459499   -0.6520599524   -0.4014823503
 N   -0.3440556740   -0.2176928954   -1.4135057339
 C    1.3814745624    1.9588191636    0.3279480794
 C    2.1536713978    2.8720963005    1.0007195274
 N    3.2872285375    3.1873197453    0.2861287716
 C    3.2109773463    2.4699382640   -0.8102781075
 N    2.0766308032    1.7136241351   -0.8421045660
 H   -0.7718350231    1.9189277109    0.2516926852
 H   -0.0644331967    1.2632519826    1.7186315501
 H    0.7301373253   -0.7680004022    0.3611938122
 H   -1.4940076539   -1.7245136094   -0.3493595514
 H   -2.2303348845   -0.0523721966   -0.2748220826
 H   -0.6447913401    0.6853362188   -1.7776772357
 H    1.9526840978    3.3213866185    1.9621845781
 H    3.9380642411    2.4501097800   -1.6084624805
 H    1.8150802316    1.0364945174   -1.5421449373