19

 C   -0.2706872600    1.4349823290    0.0515899340
 N   -0.0163355757    0.0093529883    0.1805963537
 C    1.2926264992   -0.5021811787   -0.2121389929
 C    0.8715644263   -0.5077461211    1.2215512428
 C    1.5706723368    0.4073944619    2.2086137507
 C    0.3834841567   -1.8307664450    1.8211066830
 C   -0.5595801301   -1.6523296832    2.9208284726
 C   -1.3310650560   -1.4866967230    3.8278736744
 H    0.6154141460    2.0760086716    0.1784408063
 H   -0.6788986104    1.6259200545   -0.9461828100
 H   -1.0224275050    1.7364462791    0.7876919589
 H    1.2950152047   -1.4156698973   -0.8034860082
 H    2.0595896956    0.2192031429   -0.4952805149
 H    1.9442867635    1.3180531732    1.7368387163
 H    0.8953674061    0.6877153453    3.0230150673
 H    2.4283507609   -0.1086095060    2.6539318588
 H   -0.0910136469   -2.4144912548    1.0253158164
 H    1.2488591272   -2.4093677422    2.1723757254
 H   -2.0190808188   -1.3524599443    4.6252018751