14

 C    0.4225024979    1.5412155658    0.1914936747
 N    1.1905082894    0.3992610492   -0.2879753060
 C   -0.2268708845    0.1989585944    0.0971243760
 C   -0.4702776280   -0.6276602854    1.2992198526
 N   -1.4684758954   -1.5109909540    1.2578480741
 C   -1.5937027023   -2.2114471534    2.3788679447
 N   -0.8339016443   -2.0853721154    3.4686620509
 N    0.1220754778   -1.1659210230    3.4434731449
 N    0.3182205402   -0.4307420270    2.3729876428
 H    0.7171425949    1.8985890083    1.1727939686
 H    0.0907671893    2.3001671722   -0.5120818549
 H    1.2530602715    0.4113858757   -1.3032025597
 H   -0.9595469828    0.0331588255   -0.6859144342
 H   -2.3818501637   -2.9586344830    2.4280351856