11

 O   -0.0456492451    0.0000630024   -0.0006739298
 C   -0.0007020603    1.2005782524    0.0067577688
 C    1.2663274594    1.9835301126   -0.0008197968
 N    2.4431199691    1.4037385945   -0.0178601133
 O    3.3471857671    2.4154237177   -0.0196697449
 N    2.7564522506    3.6367515663   -0.0043076440
 C    1.4655131285    3.4030500250    0.0079018162
 C    0.4628746256    4.5043151353    0.0270358728
 O    0.7500664949    5.6708416449    0.0340679956
 H   -0.9197378288    1.8212287472    0.0200209565
 H   -0.5915009609    4.1604450819    0.0344723690