19

 C    0.0950716841    1.5163967665    0.0970692567
 O   -0.1671751190    0.1227250283    0.1454534440
 C    0.6296180547   -0.5876849571    1.0555540213
 C    0.0527931241   -1.9955916348    1.3564912798
 C   -0.9525993609   -2.4916048459    0.3020592502
 C    1.2914880118   -2.8599707312    1.3982449680
 C    2.3944481485   -2.2492503244    0.9466449622
 C    2.0780837871   -0.8561292356    0.5691413805
 O    2.7921346058   -0.0616436301   -0.0003066940
 H    1.1099765776    1.7253507092   -0.2524369791
 H   -0.6312498259    1.9462897197   -0.5968340324
 H   -0.0443861164    1.9769045576    1.0881685397
 H    0.7206029544   -0.0264207863    2.0029511171
 H   -0.4477104335   -2.0086751960    2.3325064755
 H   -0.5023978545   -2.5037320890   -0.6940243087
 H   -1.2863065722   -3.5059392312    0.5426738717
 H   -1.8224281418   -1.8330264455    0.2701059459
 H    1.2440812661   -3.8908940065    1.7359046126
 H    3.3819004100   -2.6786831977    0.8344553187