21

 C   -0.2389177199    1.7416190642    0.4212291091
 C   -0.0456705066    0.2658493528    0.0908546931
 O    0.7399603124   -0.3992179756    1.1013377128
 C   -1.3608746119   -0.4742233906   -0.1547222354
 C   -1.8843126174   -0.6429443393   -1.6296624681
 O   -0.8640233448   -0.6393360144   -2.6034622643
 C   -2.3570375594   -2.0686471217   -1.2323293074
 C   -1.3517578585   -2.0319032843   -0.0616236739
 O   -0.1131060767   -2.5730901431   -0.5035507332
 H    0.7262962042    2.2345152037    0.5656203922
 H   -0.7702156979    2.2491312487   -0.3903969656
 H   -0.8317114206    1.8659378506    1.3364475825
 H    0.5660532687    0.1843315276   -0.8112370245
 H    0.2689146780   -0.3249907001    1.9390562884
 H   -2.1631778326   -0.0736107417    0.4774849968
 H   -2.6405568932    0.0682013129   -1.9700661132
 H   -0.2601440544   -1.3573282139   -2.3655444007
 H   -3.3924242039   -2.0820902353   -0.8819855823
 H   -2.2084632230   -2.8566674076   -1.9741274181
 H   -1.6603373129   -2.4829969295    0.8903216627
 H    0.5536676804   -2.2043423034    0.0959765991