22

 C    0.2519340451    1.2041470779   -0.5191245455
 N   -0.0082348009   -0.1257248771   -0.0088814088
 C   -1.4149165517   -0.4291066690    0.1852679083
 C   -1.4134722246   -1.6687619681    1.0762354120
 O   -2.3777403422   -2.3160292854    1.3893806706
 C    0.0311089351   -1.9082077162    1.4994273153
 C    0.7515098663   -0.5807350154    1.1862309125
 C    2.2243378225   -0.8024280445    0.8271996880
 C    0.6382293517    0.3815012990    2.3897102201
 H    1.3244302767    1.3539053388   -0.6684459537
 H   -0.2344055498    1.3184097820   -1.4941236929
 H   -0.1215409799    2.0152524033    0.1326682725
 H   -1.9873649596    0.3672640014    0.7016774485
 H   -1.9307469353   -0.6229086441   -0.7628242221
 H    0.0962070787   -2.2271649607    2.5418129350
 H    0.4296053459   -2.7164746637    0.8739024580
 H    2.3073497167   -1.4277401902   -0.0660495544
 H    2.7430784737    0.1421266755    0.6353067450
 H    2.7468159451   -1.2974345463    1.6520273910
 H    1.1729703985   -0.0223476125    3.2551712615
 H    1.0727454794    1.3587355922    2.1590884389
 H   -0.4036827815    0.5382182132    2.6889940403