16

 N   -0.2314490873   -1.1125044624   -0.0991906431
 C   -0.1268099235    0.0376984750   -0.0986823276
 C    0.0193175844    1.4901893378   -0.0764790908
 C    1.5009694774    1.9540924762    0.0340738072
 C    2.2584416584    1.5538750655   -1.1545190430
 N    2.8488287530    1.2848195916   -2.1107125893
 C    1.5626318877    3.4657290977    0.2558185470
 C    2.7352066332    4.2798332643   -0.1384420559
 N    1.4515573340    4.4182946102   -0.8527526506
 H   -0.4379190685    1.9170591785   -0.9744783387
 H   -0.5301631065    1.8858982698    0.7839593972
 H    1.9493074244    1.4551375183    0.9019995632
 H    1.0037012302    3.7634678293    1.1413921635
 H    3.0192273480    5.1346180357    0.4675153926
 H    3.5553120723    3.7823652131   -0.6478196677
 H    1.5129517129    3.9346085594   -1.7474992439