18

 C    0.1984780803    1.3279225172    0.0686922524
 N   -0.0816983216   -0.0863620574    0.0040194998
 N   -0.5202382386   -0.6503132854   -1.1613197669
 C   -0.6560537218   -1.9365095546   -0.8687930361
 C   -0.3113352034   -2.2342131751    0.4680380261
 C   -0.3319164089   -3.5257165756    1.2175125177
 O    0.8417462173   -3.7052555790    2.0274748289
 C    0.0630659990   -1.0010337824    0.9927804205
 N    0.4519179822   -0.6707111354    2.2868346272
 H    1.2768200407    1.5305842646    0.0983664748
 H   -0.2185423465    1.7831932036   -0.8289377841
 H   -0.2703867055    1.7706683186    0.9532982359
 H   -1.0048025876   -2.6214608490   -1.6296459668
 H   -1.1596876131   -3.5728059408    1.9353157926
 H   -0.4631758249   -4.3669015795    0.5216969072
 H    1.5977926350   -3.6428942390    1.4328320676
 H    0.7588756433   -1.5037959153    2.7779424705
 H    1.1591785542    0.0516123847    2.3375021127