18

 O    0.1540231415    1.3423893521   -0.1124490633
 C    0.0816519834   -0.0507840533   -0.0585122711
 C    0.1313018320   -0.6478169647    1.3950887491
 N   -1.2907548067   -0.1818179161    1.4668809250
 C   -1.3800259928   -0.6218664823    0.0375664316
 C   -1.2682540950   -2.1923999660   -0.0778457466
 C   -1.2158732585   -2.8250900029    1.3329898086
 C    0.2042598079   -2.2176825241    1.2448110245
 O    0.1582577718   -2.5156362452   -0.1909156897
 H   -0.4538600647    1.6594451565    0.5703654704
 H    0.7498678463   -0.4536657288   -0.8101379502
 H    0.8108454528   -0.2305584319    2.1419924895
 H   -1.8917755825   -0.6655606711    2.1267491915
 H   -2.1871304596   -0.1790829943   -0.5508845437
 H   -1.8639042828   -2.6325510099   -0.8793941832
 H   -1.9168797311   -2.5393166340    2.1188826995
 H   -1.1663282472   -3.9111428068    1.2570731308
 H    1.0562972951   -2.6826908971    1.7436210471