13

 N   -0.0453933492    1.5158295740    0.0341124266
 C    0.0328102093    0.0526870620    0.0158941022
 C    0.6558866044   -0.5246848936   -1.1877105153
 C    1.1634588266   -0.9518058406   -2.1897222904
 C    0.7605342474   -0.4329227451    1.2409955365
 N    1.6259131630    0.2545013482    1.9244120588
 O    2.0273920356   -0.5844322419    2.9071265731
 N    1.3531327653   -1.7951072326    2.7668863553
 N    0.5974355978   -1.7011341683    1.7679577819
 H    0.8937716710    1.9043691148    0.0173309726
 H   -0.5017831571    1.8259918795   -0.8184429818
 H   -0.9898526764   -0.3381309558    0.0916820280
 H    1.6106599624   -1.3375070307   -3.0729853075