18

 O    0.0013449127   -0.1243149880   -0.3963370305
 C    0.0053502339    1.0279762679   -0.0336081486
 C   -1.3017131966    1.7650394454    0.2783345768
 C   -1.1593679004    3.1174526207    0.9577963090
 C   -0.4919349469    3.3400714907    2.3021512543
 C    0.6767758047    2.3779542914    2.4817248876
 N    1.2566967271    2.8351061258    1.1734255081
 C    1.3034013680    1.8277960089    0.1177042095
 C    0.1683541597    3.8145380559    1.0175614460
 H   -1.7928763941    1.9055917604   -0.6941531436
 H   -1.9455072769    1.0764824522    0.8381645418
 H   -2.0015150167    3.7895491210    0.8092440382
 H   -0.9565420440    3.9298423024    3.0812274818
 H    1.3416875242    2.6357353352    3.3113265375
 H    0.4377220243    1.3081119128    2.5439862900
 H    2.1207563671    1.1200980349    0.2879034177
 H    1.5094982714    2.3362762846   -0.8339933718
 H    0.3678655325    4.8099465378    0.6357852462