21

 C   -0.1511186848   -1.2421201088   -0.2278333417
 C   -0.0782544522   -0.0475180938   -0.1038708729
 C    0.0074095682    1.3963414130    0.0475140634
 C   -0.6145880130    1.9556662972    1.3845725664
 C    0.5231489674    2.8230734516    1.9667530643
 C    1.6248436300    1.8860277246    2.5120449618
 C    2.2587653424    1.2916526038    1.2123345434
 C    1.4565760429    1.9767743339    0.0848074712
 C    1.1886679245    3.3714393859    0.6857767456
 H   -0.2188345370   -2.2955942761   -0.3405978429
 H   -0.5130445977    1.8539321888   -0.8022459017
 H   -1.5054965403    2.5518523586    1.1680275287
 H   -0.9113281839    1.1504007626    2.0605126797
 H    0.1774019515    3.5669807541    2.6873253608
 H    2.3631854004    2.4507995374    3.0894916668
 H    1.2165031270    1.1151373491    3.1721239191
 H    3.3190248083    1.5496743537    1.1349343689
 H    2.1815115999    0.2033975438    1.1615563773
 H    1.9453154597    1.9479083789   -0.8903898876
 H    0.5192134832    3.9871597049    0.0760573071
 H    2.1057691834    3.9357763769    0.8813443723