14

 N    0.3756933152    1.2552936185    0.3111524182
 C    0.1697853355   -0.0986823078    0.0830953113
 N   -1.0022732008   -0.6912648514    0.2843264931
 N   -0.7689005048   -2.0043642901    0.0254499527
 C    0.5037422822   -2.2630380574   -0.3410374977
 C    1.1488077822   -1.0448987789   -0.3107445023
 O    2.4537437003   -0.7617861164   -0.6615698424
 C    3.3885699862   -0.8328599957    0.3313971606
 O    4.5369102462   -0.5912178688    0.1346876361
 H    1.0271657999    1.6748266684   -0.3387456707
 H   -0.4914949921    1.7744645369    0.3487115856
 H   -1.5271096751   -2.6562544124    0.1196047593
 H    0.8540321934   -3.2497733727   -0.5968456429
 H    2.9425897218   -1.1393810922    1.2945745894