18

 O    0.2036803428   -0.2085045670   -0.1183922702
 C    0.1012451038    0.9864642474   -0.0174321883
 C    1.2764638006    1.9380135983    0.0518110338
 C    1.3046797936    2.9350011980   -1.1376304749
 C    1.9925156699    4.2255019133   -0.6042862362
 C    2.3262962632    3.9477079568    0.8769690169
 C    1.3110181403    2.8591438648    1.3071396727
 C    0.0030229087    3.4515808012    1.6058370250
 N   -1.0220412647    3.9352644817    1.8343624192
 H   -0.8945188698    1.4825027325    0.0115425121
 H    2.1866815135    1.3323295785    0.0674717107
 H    1.8243558894    2.4964894063   -1.9919849603
 H    0.2832232336    3.1550984386   -1.4656613927
 H    2.8905777755    4.4763974701   -1.1733304555
 H    1.3131579188    5.0775246920   -0.6876466709
 H    3.3300171724    3.5226328432    0.9765034969
 H    2.2771114658    4.8373808435    1.5080730612
 H    1.6414087427    2.3111408007    2.1943556806