20

 C   -0.0110313525    1.4513138217   -0.1958693459
 N    0.0090611626    0.1287631557    0.3995325563
 C   -1.2421878012   -0.6205254117    0.3410786932
 C   -1.1730524568   -1.8569125768    1.2319116024
 C    0.0732767352   -2.7023895877    0.9561355033
 O    0.0741516683   -3.9091534006    1.1399010948
 C    1.2588113248   -1.9493124864    0.5591973642
 C    2.5690516818   -2.6823291325    0.4645643480
 C    1.1604595783   -0.6077574668    0.3531548023
 H    0.9575674255    1.9362169094   -0.0538783519
 H   -0.2307452890    1.4234054960   -1.2752129805
 H   -0.7751387311    2.0660962294    0.2900040801
 H   -2.0597069323    0.0393638280    0.6484393995
 H   -1.4385704282   -0.9228630452   -0.7033673778
 H   -1.1319764878   -1.5507610822    2.2862560153
 H   -2.0618606633   -2.4790966151    1.1061277692
 H    2.5271684602   -3.4658791637   -0.2997946792
 H    3.3896059754   -2.0031755875    0.2138803328
 H    2.8113091287   -3.1868162960    1.4064019362
 H    2.0540435712   -0.0258482981    0.1386390678