21

 C   -0.0823137114    1.5539166993   -0.0058060447
 C    0.0339695016    0.0342422759    0.0087650837
 O   -1.2678460908   -0.5794076747    0.0328512074
 C    0.7263512470   -0.5059579382   -1.2541721514
 C    0.9085729988   -2.0284633986   -1.2221007966
 C    1.6995324591   -2.4663762248    0.0163367184
 C    1.0253931509   -1.9686582760    1.3113792240
 C    0.7886964190   -0.4682951340    1.2642802683
 O    1.1384950449    0.2822765399    2.1464803536
 H    0.9033240563    2.0238764082   -0.0560691933
 H   -0.6730153572    1.8705141407   -0.8699428631
 H   -0.5617838622    1.9151865315    0.9089762649
 H   -1.7697490431   -0.1700296202    0.7465447993
 H    0.1310761417   -0.2039157962   -2.1231030168
 H    1.7043441080   -0.0159664167   -1.3454540384
 H   -0.0767886772   -2.5066916280   -1.2188510904
 H    1.4212827460   -2.3568063414   -2.1327270187
 H    1.7965061729   -3.5566376831    0.0492062012
 H    2.7196461276   -2.0630595274   -0.0366619224
 H    0.0474934466   -2.4551860585    1.4106223059
 H    1.6168215015   -2.1967930580    2.2012256091