22

 C    0.6824303009    1.4887954082   -0.5374434173
 C    0.0674272352    0.1762143316   -0.0606958568
 C    0.5246658461   -1.0977329431   -0.8342929559
 C    1.3841421457   -1.5504270321    0.3850632013
 C    2.8936650603   -1.4108530014    0.2111377072
 C    0.6723117594   -0.4493797208    1.2409767157
 N    1.4601562396    0.3786694239    2.1212780307
 C    1.2031176994    0.5261975139    3.4513705797
 O    0.2992215244   -0.0061098474    4.0588825097
 H    1.7698571981    1.4203457145   -0.6583238175
 H    0.2697397443    1.7706461603   -1.5118402148
 H    0.4733015433    2.3041528214    0.1630385791
 H   -1.0181766836    0.2995606497   -0.0026709567
 H   -0.2950872223   -1.7822230735   -1.0642080681
 H    1.0824244913   -0.9106293489   -1.7570947950
 H    1.1648989812   -2.5631583292    0.7363821498
 H    3.1792627152   -0.4278462748   -0.1811971018
 H    3.4192803920   -1.5589748487    1.1603514817
 H    3.2657865287   -2.1581554454   -0.4975701726
 H   -0.1068737760   -0.8813884938    1.8691902123
 H    2.2473624291    0.8815852243    1.7443466337
 H    1.9332637674    1.2073928313    3.9332943559