18

 O   -0.0671492275    1.3852509327   -0.0015095566
 C   -0.0152169422   -0.0308592599    0.0201763493
 C    0.4897852812   -0.6363401608    1.3869073472
 C   -0.8093601189   -1.3321717719    1.8334755709
 C   -1.2475539759   -2.0448134369    0.5201477418
 C   -1.4587378463   -0.5828102956    0.0333321414
 C   -1.8880951730   -0.2640806288    1.4941534206
 C    0.7653307420   -0.5145191192   -1.1335001143
 N    1.3992310993   -0.8735703029   -2.0313124081
 H    0.8341284574    1.7265470065   -0.0001786957
 H    1.3250322079   -1.3291659113    1.2603699381
 H    0.7978404086    0.1752025524    2.0518212015
 H   -0.7861802408   -1.8477411029    2.7931483880
 H   -0.5187453093   -2.6686122498   -0.0049304266
 H   -2.1947442268   -2.5774215157    0.6221971148
 H   -2.0652677567   -0.3266018732   -0.8337390459
 H   -2.9016737165   -0.6136104258    1.6999606768
 H   -1.7508140726    0.7559978932    1.8560917968