21

 O    0.1117801271    1.4348650028   -0.1356964485
 C    0.0594455157    0.0447774086    0.0990362760
 C   -1.3786037879   -0.4721817374   -0.0032312084
 O   -1.9378192114   -0.0300630803   -1.2493711506
 C   -1.4923754600   -1.9807455031    0.1547303676
 C   -1.2061210818   -2.6409579264    1.5513864953
 C   -2.5897284871   -3.3023024786    1.4997211378
 C   -3.6551891946   -2.2497307148    1.4057999951
 C   -2.8914717927   -2.6171265485    0.1639679879
 H   -0.5123656858    1.5894744417   -0.8575020839
 H    0.6912810762   -0.5099702775   -0.6206013036
 H    0.4672085927   -0.1393897758    1.0990413013
 H   -1.9805128642    0.0385282262    0.7567995822
 H   -1.5511181231   -0.5699175847   -1.9493556250
 H   -0.8643456082   -2.4600716053   -0.6078084241
 H   -0.3731062168   -3.3455151865    1.5148608438
 H   -1.0430315260   -1.9551988587    2.3904416528
 H   -2.8086633023   -4.3164608177    1.8099552915
 H   -4.6764587474   -2.6158529594    1.4330637745
 H   -3.5228040077   -1.2836954604    1.8873624035
 H   -3.3953018148   -3.0153507040   -0.7082073952