17

 O    0.0547658880    0.0032974172    0.0349825809
 C    0.0161606688    1.2050634949   -0.0485217290
 C   -1.2625907304    2.0460408691   -0.1992085411
 C   -0.8114902816    3.3446244385   -0.9225927689
 C   -1.5829099766    4.5293823091   -0.5668886495
 C   -2.2167960980    5.5037743883   -0.2604262729
 C    0.6926494127    3.4683535538   -0.6111853518
 C    1.0997725399    3.3499974569    0.8157480391
 C    1.1900491909    2.1279441031   -0.0953107601
 H   -2.0241261365    1.4892405674   -0.7463936417
 H   -1.6716235516    2.2646553773    0.7928369360
 H   -0.9077750859    3.1792011184   -2.0031607094
 H   -2.7775523638    6.3659140060    0.0039680090
 H    1.2969740633    4.0623326696   -1.2860401775
 H    2.0489849953    3.7853556268    1.1057740513
 H    0.3443645597    3.3732221781    1.5937797281
 H    2.1618882357    1.7146836654   -0.3325131327