15

 C   -0.0166007456    1.4257236162   -0.0019893631
 N    1.4130382150    1.8219296955    0.0165641855
 C    2.3038894030    0.9144747814    0.0437344445
 N    2.1227241219   -0.5407631576    0.0603660607
 C    0.9716299229   -0.8374805682   -0.8860945484
 C    0.2594092015   -1.8399105958    0.0467580522
 O   -1.0320940936   -1.1053185235    0.0152338122
 C   -0.0236982324   -0.0616945487    0.0179939509
 C    0.9404968450   -0.8123245406    0.9754799933
 H   -0.5080617029    1.8769155222    0.8669306124
 H   -0.4785364455    1.8530529405   -0.8987250352
 H    3.3490877062    1.2227613591    0.0570286968
 H    1.0770703749   -0.8330444333   -1.9701452711
 H    0.2281644534   -2.9273072954    0.0609288973
 H    1.0096361662   -0.7785588418    2.0619344118