20

 C   -0.7107569973    1.3256359573   -0.0260260213
 C    0.1236954275    0.0460497062   -0.0517251329
 C    1.3128736371    0.0529082564   -1.0265883341
 C    2.2615191723   -0.9616630097   -0.4317908110
 N    3.2098609739   -1.5384230498   -1.0303273787
 O    1.9281113670   -1.1764067983    0.8832506394
 C    0.8078764781   -0.3438475647    1.2774401642
 C    1.3581152061    0.8002074925    2.1289406193
 O    2.0900053915    0.3023780234    3.2288015953
 H   -0.1001812104    2.2046180626    0.2036893164
 H   -1.1770742762    1.4948428915   -1.0013252519
 H   -1.5131123946    1.2665088755    0.7166584073
 H   -0.5304768606   -0.7901363986   -0.3262251325
 H    1.0550877154   -0.2070883126   -2.0537785572
 H    1.8023633385    1.0342604403   -1.0498968685
 H    3.7022719029   -2.1727145392   -0.3985746999
 H    0.1702692921   -0.9699998103    1.9088150242
 H    1.9725752892    1.4710665205    1.5056863788
 H    0.5330092906    1.3915668047    2.5382198048
 H    2.7176375968   -0.3360334679    2.8694983384