19

 C   -0.0663283719    1.5590087060   -0.0256935423
 C    0.0166897107    0.0332763691    0.0277359244
 C    0.6973200587   -0.5331180217   -1.2440518467
 O    1.0848005627   -1.9070599524   -1.1373253617
 C    1.6297310615   -2.2328318954    0.1303824540
 O    0.6852000076   -1.9501350224    1.1412881314
 C    0.7763115487   -0.5225839982    1.2570455212
 C    2.2766124756   -0.2763317785    1.1428798243
 C    2.7946586928   -1.3121532094    0.4897772656
 H    0.9286453482    2.0148023534   -0.0758364578
 H   -0.6264203915    1.8907749711   -0.9064128228
 H   -0.5746336940    1.9577481943    0.8584854424
 H   -0.9944225911   -0.3838086411    0.0967833969
 H    0.0152234899   -0.4832550433   -2.0975952329
 H    1.5753182165    0.0833413746   -1.4827658126
 H    1.8308128434   -3.3044537625    0.1069133238
 H    0.3248157213   -0.2125300031    2.2032847501
 H    2.7797545759    0.6219543340    1.4748255452
 H    3.8118243751   -1.4569041244    0.1523906975