22

 C   -0.0568675454    1.4729258890   -0.0584329824
 C    0.0217952787   -0.0532826986    0.0239896061
 C    0.7568976091   -0.5324865047    1.2682180098
 O    0.7848180034   -1.9430849928    1.2674784089
 C    1.4471526084   -2.4904560197    2.3852618372
 C    1.4123322770   -4.0083649355    2.2731885057
 C    2.1064209924   -4.6987503190    3.4396010090
 O    2.0117489706   -6.0996220388    3.2318926766
 H    0.9412917884    1.9240217724   -0.0862671233
 H   -0.5887814826    1.7909683827   -0.9596919706
 H   -0.5857405522    1.8934038528    0.8041658778
 H   -0.9848540097   -0.4868036747    0.0265706126
 H    0.5323863488   -0.4563769651   -0.8581116597
 H    1.7849418687   -0.1281830526    1.2854372707
 H    0.2538318377   -0.1589525994    2.1781766138
 H    2.4902483005   -2.1290604906    2.4272332798
 H    0.9589999581   -2.1598284532    3.3194944384
 H    0.3712476636   -4.3445758257    2.2244173815
 H    1.8920293561   -4.3139419867    1.3373627637
 H    3.1591493977   -4.3749995520    3.4943134970
 H    1.6276899304   -4.4041133694    4.3883456455
 H    2.4510917303   -6.5419246884    3.9638961420