17

 O    0.0048308232    1.3567493873   -0.2792431568
 C   -0.0589505645   -0.0266555616    0.0513560191
 C   -1.5269643312   -0.4144712898    0.0924228694
 N   -2.1266128121   -0.1705256959   -1.2067082732
 C   -3.4315276975   -0.5245992445   -1.4296170618
 N   -4.0938669191   -1.3913809946   -0.6686359024
 N   -5.2963203052   -1.4559843483   -1.3178180054
 C   -5.2954001193   -0.6431323823   -2.3853896120
 N   -4.1339172166   -0.0295489870   -2.4978194727
 H    0.9177260895    1.5819162522   -0.4782637257
 H    0.4588394575   -0.6366734973   -0.7029592400
 H    0.3986941628   -0.2259466689    1.0318315967
 H   -1.6197451354   -1.4771323566    0.3355733075
 H   -2.0318915838    0.1469895190    0.8945229047
 H   -1.8728076879    0.7193823868   -1.6114354707
 H   -6.0244909766   -2.0503239730   -0.9611978911
 H   -6.1437478237   -0.5281290655   -3.0437316556