19

 C    0.0459153954    1.5403507964   -0.0623731588
 C    0.0796653464    0.0269225473    0.1398527442
 N   -1.2503865349   -0.5470293994    0.0726845869
 C   -2.1672620769   -0.3137999140    1.2201946354
 C   -2.5214760510   -1.8122849938    1.2365160585
 O   -3.5122197400   -2.2075911358    0.2692907203
 C   -2.4957127586   -2.5739049767   -0.7012818507
 C   -1.3867426442   -2.0157309414    0.2043916582
 H    1.0563163943    1.9585843038   -0.0222022015
 H   -0.4006696262    1.7879567422   -1.0295008071
 H   -0.5472076334    2.0291019929    0.7179218756
 H    0.6836281019   -0.4375851043   -0.6493488171
 H    0.5831657783   -0.2031666277    1.1015766588
 H   -1.6379312197   -0.0133524153    2.1392295583
 H   -2.9879901578    0.3839642666    1.0273185683
 H   -2.6429302144   -2.3174907591    2.1968119716
 H   -2.4705425511   -3.6614717658   -0.8513841123
 H   -2.6246616202   -2.0603670670   -1.6593734083
 H   -0.4663173982   -2.5831886790    0.3591851097