15

 O   -0.0008872939    0.0454071237    0.0772283841
 C   -0.0151997673    1.2338934494   -0.0174138559
 C   -1.1714818673    2.2555378469    0.0072690377
 C   -0.6880407905    3.0740281599    1.2268350395
 O    0.7650728680    3.0477357235    1.1375307783
 C    1.1095317691    2.2881832435   -0.0353504432
 C    0.6881420655    3.1173807232   -1.2473822685
 O   -0.0566582554    2.3652437479   -2.2202730175
 C   -0.7850408151    3.0877704861   -1.2178198974
 H   -2.1812388528    1.8561161453    0.0620679675
 H   -1.0281646598    4.1156710641    1.2084048995
 H   -0.9966109431    2.6155897965    2.1724497835
 H    2.1374262112    1.9428529251    0.0420513563
 H    1.2728648356    3.9529945670   -1.6159595799
 H   -1.4069802142    3.9043020377   -1.5704775738