19

 C    0.0063466013    1.5809033140    0.2355834039
 C   -0.0245754042    0.0705115017    0.2852667044
 C   -1.1896393600   -0.7006282809   -0.1603319858
 O   -0.0211156137   -0.6045327204   -0.9773217670
 C    1.3909031680    2.1032778918   -0.0257146156
 C    2.3957355965    1.7340761465   -1.1516289798
 C    3.1195702212    2.5757216055   -0.0785224588
 C    1.9276018480    3.5595445059   -0.0433159866
 O    2.4516026596    1.7710333425    0.9716758301
 H   -0.6658740348    1.9355728171   -0.5537446983
 H   -0.3517404357    1.9886842554    1.1894367347
 H    0.6380025987   -0.3766438886    1.0258946270
 H   -1.3856266029   -1.6840088847    0.2646143157
 H   -2.0677077252   -0.1764156727   -0.5369244357
 H    2.6773602682    0.6821599277   -1.1933342524
 H    2.2413228688    2.1757080820   -2.1393782963
 H    4.1833372881    2.7746907034    0.0479485165
 H    1.7324461962    4.1697894875   -0.9291707277
 H    1.8066653522    4.1081159765    0.8920217814