17

 C   -0.0851180078    1.4888874789   -0.0930377000
 C   -0.0852704663   -0.0072457174   -0.0178212105
 N   -0.3403695123   -0.7995941946   -1.3477015066
 C   -0.4085423371   -1.8793741693   -0.3525104748
 N    0.6228402684   -2.6250386463   -0.2661777210
 C    1.2862897258   -2.2025064930    0.9859406391
 C    0.6547718759   -0.8009873400    1.1768494086
 O    1.1143988351    0.0403591043    2.1782668685
 C   -0.7973223036   -0.9744000222    0.8582303145
 H    0.6791623123    1.8330363642   -0.7961697201
 H   -1.0568731865    1.8667709526   -0.4310583907
 H    0.1325382280    1.9060570447    0.8924123104
 H   -1.2851210158   -0.4775454801   -1.5906410201
 H    1.1075185330   -2.8293679276    1.8751085815
 H    2.3641126780   -2.1921413438    0.7929703701
 H    0.8679640338   -0.3338654125    3.0323932421
 H   -1.6869335008   -0.9304658679    1.4749385190