15

 O    0.0653146381    1.3795645675   -0.1271005146
 C    0.0352946791   -0.0339481240   -0.0727947633
 C    0.7576987218   -0.6363080884    1.1649765988
 C    0.0210590657   -1.9526726499    1.4996351295
 C   -1.3797602728   -1.7281046194    0.9602047620
 O   -1.9366851559   -0.4527637564    1.3191553987
 C   -1.3657510136   -0.6165625966    0.0065768632
 H   -0.4478589182    1.6953376581    0.6264022142
 H    0.5088443110   -0.3699933004   -1.0030572045
 H    1.8254411650   -0.7778067324    0.9866091521
 H    0.6566681839    0.0710397077    1.9924464209
 H    0.4654594230   -2.8078050047    0.9759688718
 H    0.0303325638   -2.1853044523    2.5690253007
 H   -2.0972632801   -2.5425291631    0.8998768551
 H   -2.0609273707   -0.5188643156   -0.8230517244