19

 C    0.0848532412    1.5363859961   -0.0512609148
 C    0.0242854991    0.0041062985   -0.0137113738
 C   -1.4427453130   -0.4791691085    0.0544034521
 C    0.7081443564   -0.5936093969   -1.2530942952
 O    0.8885727448   -1.9935867919   -1.0843533115
 C    1.7845813575   -2.2315639319   -0.0583660422
 O    1.3772396878   -1.6850828335    1.2038118934
 C    0.7056927545   -0.5048341958    1.2679211042
 O    0.5973075096    0.0459436628    2.3288764387
 H    1.1175686706    1.8965183648   -0.0994383936
 H   -0.4501320078    1.9144618191   -0.9288469251
 H   -0.3732237244    1.9549506260    0.8462056288
 H   -2.0052418024   -0.0725366793   -0.7928616491
 H   -1.4979604273   -1.5697972772    0.0109401535
 H   -1.9156708335   -0.1398167789    0.9790678329
 H    0.0900069228   -0.4570333907   -2.1443675656
 H    1.6831297637   -0.1117397907   -1.4317281357
 H    1.8537440812   -3.3104877510    0.0890045875
 H    2.7768308291   -1.8119857709   -0.2914827044