16

 C   -0.1034361072    1.5624611445   -0.0211562520
 C    0.0559043328    0.0607567125    0.0376464171
 C    1.3515601439   -0.7035878956   -0.2090632468
 C    2.6256903133    0.0616245722   -0.0728337695
 C    2.8246559701    0.5018279972    1.1782857829
 C    1.7068847735    0.0553702293    2.0584917732
 O    1.5977641887    0.2366937234    3.2496826699
 C    0.7365119128   -0.7004092949    1.1705460914
 H    0.7956409240    2.0911191561    0.3009868021
 H   -0.3367610061    1.8821029776   -1.0425443442
 H   -0.9284152615    1.8808612950    0.6244470299
 H   -0.8155462587   -0.4721396273   -0.3383895948
 H    1.3208770428   -1.5722717143   -0.8569970121
 H    3.2740136340    0.2594401365   -0.9196033758
 H    3.6393965555    1.1164458738    1.5383300583
 H    0.2246191423   -1.5540398061    1.5967565202