19

 C    0.3761561759    0.7365816868   -0.8563481698
 C   -0.0624692459    0.0278296212    0.4311412147
 O   -0.0458226344    0.9319036725    1.5114506942
 C   -1.4195754511   -0.6083581108    0.2945626844
 N   -2.3769164440   -0.3379700084    1.0909692874
 C   -3.5330026969   -1.1641347449    0.7088245770
 C   -3.0780373438   -1.9084775890   -0.5470162405
 C   -2.6376387569   -1.1067986717   -1.7105050658
 N   -1.6348157360   -1.5934280539   -0.7214662027
 H    1.3630636959    1.1790272151   -0.7005062661
 H    0.4327501991    0.0335813055   -1.6918872015
 H   -0.3229137623    1.5406309027   -1.1055582139
 H    0.6454015973   -0.7973990742    0.6215144776
 H   -0.9167795818    0.8659823456    1.9302280802
 H   -3.7712464015   -1.8607200156    1.5209858097
 H   -4.4153966690   -0.5329945095    0.5559574390
 H   -3.3581710770   -2.9468538089   -0.6877582369
 H   -2.5596170340   -1.5683799151   -2.6895985109
 H   -2.8520315437   -0.0412533072   -1.7149477861