15

 O   -0.2048502907    1.3484354263   -0.1465097030
 N   -0.0634647096   -0.0393391971   -0.2261967209
 C   -1.1314110297   -0.6338628217    0.1621548768
 C   -2.5084441009   -0.1498975585    0.3194333639
 C   -3.2669714472   -1.2411390793    0.6218707013
 C   -3.7510292508   -2.0789651532   -0.5609781262
 N   -2.4864664162   -2.9221899399   -0.3237513084
 C   -2.4145576945   -2.4267754223    1.0680142968
 C   -1.2402106303   -2.1258932141    0.2333143915
 H    0.6284001392    1.6621420812   -0.5150915020
 H   -2.8539806716    0.6664006267   -0.3066977526
 H   -4.5867520190   -2.7628593599   -0.3906982988
 H   -3.8402173795   -1.5816579444   -1.5298875361
 H   -2.4963646996   -3.0598981325    1.9443311781
 H   -0.3640377896   -2.7600454011    0.1784439496