15

 C    0.0890708186    1.4504195544    0.1078321295
 N    0.0476119482    0.0033076781    0.0788823228
 C   -1.0508937321   -0.6168569989   -0.0231017933
 O   -1.0907252210   -1.9768756691   -0.0503727486
 C    0.1823554967   -2.6105075717    0.0439791086
 C   -0.0331944409   -4.0565189255    0.0006347162
 N   -0.1565916414   -5.2038144477   -0.0298085651
 C   -2.3723206333   -0.0654968068   -0.1229144090
 C   -3.4637372834    0.4313793554   -0.2046233380
 H    0.7176023977    1.8048504293   -0.7165772952
 H   -0.8942265697    1.9305723758    0.0346912067
 H    0.5721143388    1.7739484360    1.0364448975
 H    0.8330102140   -2.2994929343   -0.7805676293
 H    0.6875257295   -2.3304232647    0.9747394721
 H   -4.4338323616    0.8597574598   -0.2774834049