18

 C    0.1242360061    1.5963681184    0.2494572602
 C    1.3113774558    0.7256262790   -0.1336825581
 C   -0.0367154877    0.1194780175    0.0870481173
 C   -0.4982696734   -0.9613526306    1.1132127774
 C   -1.2891987225   -1.5235477905   -0.0602785805
 C   -2.1307247062   -2.3705130871   -0.7445451658
 C   -2.1775022412   -1.8479058136   -2.0774842695
 C   -1.3765922581   -0.7173339815   -2.1640554511
 N   -0.8530942652   -0.5537925264   -0.9123759407
 H    0.0843793867    2.0049677562    1.2536826913
 H   -0.2996967596    2.2386697655   -0.5148744308
 H    1.6770792412    0.7887305730   -1.1528753208
 H    2.0798160494    0.5413764936    0.6096641093
 H    0.3064981427   -1.5927069264    1.5009966383
 H   -1.0853306548   -0.5719841068    1.9501059951
 H   -2.6499483941   -3.2408716432   -0.3761781296
 H   -2.7462957703   -2.2634349913   -2.8964170721
 H   -1.1610935788   -0.0599523857   -2.9900076597