15

 O   -0.4787649176    0.6929172993    0.7319759909
 C    0.2150695406    0.9816974691   -0.2125792513
 C    1.3757412557    1.9001969150   -0.1320448886
 C    1.8846705736    2.4073769040    1.2072332094
 O    2.7238293924    3.5165662550    0.8871306415
 C    2.1737669560    4.1594754461   -0.2561527130
 C    1.5779089746    3.0392807338   -1.0943547143
 N    2.3568179784    1.8216289066   -1.2331500943
 H    0.0343222474    0.5759027483   -1.2310353526
 H    1.0316012543    2.6985503404    1.8358138943
 H    2.4922032973    1.6827851576    1.7570359803
 H    1.3842002539    4.8782263590    0.0157519160
 H    2.9840653481    4.7034226209   -0.7524474747
 H    0.8832079499    3.2699521341   -1.8957847980
 H    3.2938243556    1.9551438109   -0.8534701455