18

 C    0.1805357205    1.5483261568    0.1045353424
 N    1.3003117419    0.6113019392   -0.0610935953
 C   -0.0736361045    0.0869392910   -0.0100983289
 C   -0.4335121299   -0.7419379966    1.1764599844
 C    0.2645633558   -0.5499410902    2.5359062190
 O    0.3963764598   -1.9874486101    2.7083406463
 C   -0.1909761920   -2.2525425665    1.4275866683
 C   -1.7208533436   -2.3605778179    1.4726065208
 O   -1.8636252121   -0.9248703835    1.3040442239
 H    0.1312678967    2.0317377320    1.0762013732
 H   -0.1100472445    2.1793037153   -0.7306115937
 H    1.6346302893    0.6223869657   -1.0203292104
 H   -0.5283936538   -0.2538205264   -0.9381870334
 H    1.2458976603   -0.0680969325    2.4795628747
 H   -0.3577958194   -0.0878525161    3.3092908590
 H    0.3914789410   -2.9469033336    0.8190818070
 H   -2.1787528505   -2.9038321476    0.6358851268
 H   -2.1304193052   -2.7198578291    2.4223352260