17

 O   -0.3704374774    1.6530440633   -0.2673768525
 C    0.0354942340    0.3426379472    0.0619842669
 C   -1.1324753198   -0.6667599747    0.0600020969
 C   -2.0830558253   -0.4117118596    1.1481669007
 C   -2.8759017894   -0.2138568050    2.0308695505
 N   -1.7073956154   -0.6856016151   -1.2980088780
 C   -2.9839330233   -1.3619076885   -1.5062446862
 C   -2.8985355989    0.1205511816   -1.5796387788
 H   -0.6581798959    1.6339180508   -1.1858803763
 H    0.7968796536   -0.0329656483   -0.6364523894
 H    0.4742689399    0.3898537482    1.0627383400
 H   -0.6926462029   -1.6612468939    0.2176157046
 H   -3.5627260794   -0.0336134934    2.8209094739
 H   -3.0491034911   -1.9622707213   -2.4090072826
 H   -3.4866940399   -1.7750837627   -0.6348080307
 H   -3.3432082892    0.6798151807   -0.7613917857
 H   -2.8967789997    0.6236403109   -2.5428588434