18

 C   -0.1039373363    1.5195764591   -0.0493576541
 C   -0.0308087109    0.0180938964    0.0269885423
 N   -0.7109611369   -0.7090221516   -1.0316490480
 C   -1.1714787218   -1.7670963118   -0.5011884438
 O   -0.9734877300   -1.9753370460    0.8300080519
 C   -0.2186348788   -0.8454110418    1.2674520651
 C    1.1566260406   -0.6976449841    0.6735011641
 C    1.8995500104   -1.8738357040    0.0733978195
 O    2.1925980501   -2.8752008837    1.0379877787
 H    0.4177544192    1.8817920838   -0.9407408535
 H   -1.1440693984    1.8550882064   -0.1075071584
 H    0.3596429273    1.9793139205    0.8281923553
 H   -1.7222773271   -2.5513842203   -1.0060669757
 H   -0.4811292536   -0.5303231173    2.2694595195
 H    1.7803545243   -0.0271326516    1.2596048077
 H    1.3472881361   -2.2878933279   -0.7795997325
 H    2.8671855567   -1.5345656745   -0.3084812138
 H    1.3484328793   -3.2134110017    1.3556949357