13

 C    0.1016871265    1.4394955353   -0.0645682012
 N    0.0995144500   -0.0061333949    0.0007622048
 N    0.1866200030   -0.7861352781   -1.1102731748
 N    0.1632708571   -2.0065633847   -0.7772475482
 N    0.0577914147   -2.0624421688    0.5948594071
 C    0.0029491749   -3.2626740248    1.3284325608
 O    0.0422146995   -4.3515566524    0.8372834007
 C    0.0127631303   -0.7719476998    1.1478840671
 O   -0.0768511241   -0.4327197815    2.3037962979
 H    1.0307799610    1.8005728244   -0.5113986314
 H   -0.7490080768    1.7967796473   -0.6492566847
 H    0.0214468828    1.7986981926    0.9626164700
 H   -0.0800653490   -3.0356343545    2.4034104420