18

 C   -0.3007412443    1.4147712480    0.4000800280
 O   -0.1009835223    0.0324492007    0.1793563589
 C   -1.1985376573   -0.7184370847   -0.0720202924
 C   -1.2377939021   -2.0315492770   -0.4755893568
 C   -2.6167433488   -2.3942800934   -0.5422466276
 C   -3.3668810015   -1.2992123312   -0.1961304575
 C   -4.8306931145   -1.0510285162   -0.1495818852
 O   -5.1171174438   -0.2817130044    1.0242109552
 N   -2.4849503866   -0.2618937959    0.0705414573
 H    0.6911968739    1.8600588465    0.4896594267
 H   -0.8344810143    1.8852654692   -0.4365281323
 H   -0.8535502527    1.6034864493    1.3317931623
 H   -0.3790992832   -2.6461400994   -0.6903723976
 H   -3.0106384907   -3.3557086878   -0.8366911123
 H   -5.1742095023   -0.4971483757   -1.0406812814
 H   -5.3556234906   -2.0172318208   -0.1452052142
 H   -6.0271445435    0.0248124423    0.9607967190
 H   -2.7750467354    0.5873420805    0.5235416497