18

 O    0.2571229298    0.9065696984   -0.2987769846
 C   -0.0564022917   -0.2462705319    0.4600863022
 C   -1.4926027314   -0.6950655655    0.2365164646
 C   -1.8814181529   -1.1076920427   -1.1696210450
 O   -0.8733790745   -1.1356052123   -2.1408183539
 C   -1.8487343800   -2.1403000550   -0.0838164474
 O   -0.8321409807   -3.0956360663   -0.2654633210
 C   -0.3345975758   -3.6859280172    0.8511213620
 N    0.5479423768   -4.5758618260    0.7364138429
 H    0.1716589982    0.6382602662   -1.2224159306
 H    0.6376408787   -1.0676845154    0.2387967247
 H    0.0887068746    0.0252604948    1.5104782367
 H   -2.2465049941   -0.1485534327    0.7958434262
 H   -2.8426836491   -0.7994699060   -1.5700539118
 H   -0.4487686403   -2.0026247561   -2.0980305414
 H   -2.7795755499   -2.5578062660    0.2912437739
 H   -0.7818008204   -3.3014818075    1.7759297987
 H    0.8203341129   -4.9223977387    1.6537675339