23

 C   -0.0600423539    1.5058990398   -0.0217110923
 C   -0.0331345076    0.0528764438    0.0730884240
 C    0.0011198548   -1.1481927333    0.1554443359
 C    0.0056910544   -2.6043215967    0.2432677539
 C   -1.3130089893   -3.2406369348   -0.2526756401
 C   -1.3536837352   -4.7542659302   -0.1074581654
 C   -0.3660876668   -5.5264546660   -0.9637131293
 C   -1.6932445330   -5.3145424793    1.2554966968
 C   -2.7031832307   -5.3879614897    0.1336705148
 H    0.9261401862    1.9078152253   -0.2803041333
 H   -0.7643818574    1.8431934198   -0.7905243439
 H   -0.3639033441    1.9637644778    0.9264205224
 H    0.8493590470   -3.0010253369   -0.3353659612
 H    0.1811915322   -2.9141065642    1.2820246794
 H   -2.1416495675   -2.7968491682    0.3099883967
 H   -1.4682002322   -2.9625326898   -1.3027035824
 H    0.6723644498   -5.2838889742   -0.7120697712
 H   -0.4896336140   -6.6056074032   -0.8289928975
 H   -0.5102808147   -5.3054087588   -2.0281277489
 H   -1.2092159477   -6.2335254749    1.5691619002
 H   -1.8837759983   -4.6169343720    2.0649251281
 H   -3.5731499891   -4.7416384749    0.1876636294
 H   -2.8997400430   -6.3568439393   -0.3137446860