16

 O   -0.0231406279   -0.0102089194   -0.0663342833
 C    0.0118676059    1.1821294067    0.0146969542
 C   -1.0769546057    2.2950708470    0.0590208760
 C    0.0129850054    3.3642420419   -0.2301543156
 N    0.4774167138    4.0780125474    0.9860987597
 C    1.5303296752    3.0705755540    1.2091460105
 C    2.8642949467    3.1493586421    0.4177711170
 O    2.3897492734    2.2190345525   -0.5952392206
 C    1.1007324206    2.2334293262   -0.0417820068
 H   -1.8097503853    2.1692261576   -0.7427395599
 H   -1.5936281812    2.4084588880    1.0142616909
 H   -0.0981966924    3.9393590181   -1.1492439762
 H    0.8219357704    5.0188437882    0.8255126255
 H    1.6023751405    2.6791323301    2.2253136741
 H    3.0934315531    4.1355247047   -0.0037400375
 H    3.7442899476    2.7517699949    0.9333538421