14

 O    0.0599568287    1.3124285451   -0.0501980168
 C   -0.0370013252   -0.0229959676    0.0196902317
 C   -1.1692367669   -0.7239930562   -0.0960401966
 C   -1.1615066146   -2.1809394394   -0.0037212575
 N   -2.2655013775   -2.8345504351   -0.1184048802
 C    0.1674391618   -2.7507168739    0.2192819339
 C    1.2435202628   -1.9605340918    0.3214805847
 O    2.4970594240   -2.3889524125    0.5249647234
 O    1.1918830259   -0.5980034744    0.2289116017
 H    0.9841381487    1.5632872473    0.0640446049
 H   -2.1037318271   -0.2064100544   -0.2601923509
 H   -2.0897384848   -3.8375784246   -0.0308233613
 H    0.3030993648   -3.8211288801    0.3054261168
 H    3.0844382594   -1.6244312424    0.5600491563