19

 C    0.3740711910    1.4989154276    0.2433483095
 C    0.2123924561   -0.0006553391    0.2098480579
 O    0.6825103112   -0.5381934523   -1.0219418807
 C    1.0957592229   -1.8546826411   -0.7373333015
 C    2.4991423678   -2.0111848296   -0.1660051963
 C    3.5094425152   -0.8742873065   -0.2030448747
 O    3.9575019110   -0.4923153569    1.0868835863
 C    1.2914323431   -1.9184244155    0.7426084031
 O    1.0008402513   -0.6201222317    1.2284154379
 H    1.4260253957    1.7681528950    0.1222419882
 H   -0.2064903873    1.9507199016   -0.5645958165
 H    0.0111133266    1.8894413025    1.1973539110
 H   -0.8406199807   -0.2995652844    0.3521476517
 H    0.6267333974   -2.6257460228   -1.3385125809
 H    2.9057255396   -3.0162012560   -0.2470880922
 H    4.3984016422   -1.1969822389   -0.7529330458
 H    3.0793623385   -0.0252453949   -0.7492107269
 H    3.1672437628   -0.2129199376    1.5649825979
 H    0.9760870556   -2.7318228893    1.3862523819