21

 C   -0.0827037737    1.5489302337   -0.0720664239
 C    0.1055057932    0.0497763606   -0.0099852033
 C    0.1336863695   -0.6423345524   -1.3641086409
 C    0.3934451874   -2.1403476925   -1.2195373800
 O    1.5721886163   -2.3613761593   -0.4639041660
 C    1.4280584890   -1.9890556723    0.8904226521
 C    0.7609585592   -0.6333662333    1.1291172037
 C    1.2774352572    0.0872963103    2.3550276939
 O   -0.6753482388   -0.6455772317    0.9798218993
 H    0.7449459564    2.0183403389   -0.6146929538
 H   -1.0082163039    1.7852290550   -0.6089429975
 H   -0.1467234538    1.9972037383    0.9199017746
 H   -0.8194811891   -0.4696490859   -1.8805427094
 H    0.9238680903   -0.1916640352   -1.9765996007
 H   -0.4699001133   -2.6289542633   -0.7446336128
 H    0.5608547226   -2.6035575229   -2.1957192392
 H    0.8454133403   -2.7456993993    1.4441672588
 H    2.4411021741   -1.9778264036    1.3049881697
 H    2.3063184204    0.4305672238    2.2028867682
 H    0.6527579740    0.9434082740    2.6114515264
 H    1.2776210527   -0.5924185230    3.2153834308