21

 C   -0.4269536215    1.4561710887    0.0820525692
 C   -0.1135386876   -0.0365239654    0.0837598074
 C    1.0159865917   -0.4580292886   -0.9024793199
 C    2.0104614296   -0.5684835041    0.2909450481
 C    3.1398440928   -1.6340051754    0.3851724958
 C    4.2209083095   -0.5175008424    0.5188689329
 C    3.0874718727    0.5162137261    0.4237255320
 O    3.0494820895    1.7152053160    0.4440246071
 C    0.7938843968   -0.5022023696    1.2609973141
 H    0.4896567520    2.0458190550    0.1881912992
 H   -0.9163392539    1.7523054493   -0.8524716544
 H   -1.0971740794    1.7163609181    0.9088744681
 H   -1.0375805969   -0.6118289839   -0.0228444706
 H    0.8409172401   -1.4338805325   -1.3648449813
 H    1.2768296487    0.2626473860   -1.6827804532
 H    3.0599244940   -2.2895214956    1.2555164075
 H    3.2410493740   -2.2535008114   -0.5090162482
 H    4.7676008496   -0.4858732204    1.4659545667
 H    4.9483227976   -0.4499306369   -0.2954696310
 H    0.8878186111    0.1852620466    2.1064872283
 H    0.5326126795   -1.4952076996    1.6383500222