19

 C    0.3033945958    1.5121131827   -0.0511077804
 C   -0.0498067172    0.0304824274    0.0403203056
 O    0.3664312463   -0.6020037968   -1.1866879084
 C    1.1977156553   -1.7206845360   -0.9991242156
 C    0.4996254918   -2.7755037215   -0.1184733983
 C    0.7231269205   -2.1597001621    1.2518233262
 C    1.9334879315   -1.2779282894    1.0673877921
 O    2.3662434186   -1.3575290131   -0.2755190743
 C    0.5821040496   -0.6433101353    1.2521885834
 H    1.3886583220    1.6412369792   -0.0886637890
 H   -0.1284412490    1.9437927945   -0.9581488315
 H   -0.0894170302    2.0584844310    0.8131475864
 H   -1.1439863468   -0.0720498751    0.1052140590
 H    1.4995221038   -2.0517482165   -1.9927945055
 H   -0.5483860592   -2.8865131890   -0.4065320435
 H    0.9974326812   -3.7472004265   -0.1971085197
 H    0.5500130432   -2.7289506097    2.1563936482
 H    2.7486751082   -1.1734431430    1.7713513588
 H    0.3729653246   -0.1638796410    2.2033423165