20

 C   -0.4008653163   -1.1633740659   -0.0383684946
 C   -0.1919361858    0.0194611445   -0.0109871922
 C    0.0703583771    1.4614888122    0.0329852123
 C    1.5626774473    1.7505994997   -0.0078592953
 C    2.1206081034    2.9805506141    0.6619864164
 C    2.3918237610    1.6133213887    1.2395387882
 N   -0.5923721565    2.1137780389   -1.1054464962
 C   -2.0294052694    2.3283374233   -0.9792574940
 C   -1.0797229542    3.4706589612   -0.8767292326
 H   -0.5862910150   -2.2086349242   -0.0632897814
 H   -0.3263485117    1.8465370064    0.9934755456
 H    2.0237407292    1.4481439025   -0.9422089920
 H    2.9298125932    3.5073513282    0.1689521653
 H    1.4357129039    3.6271112669    1.2007491662
 H    1.8833525473    1.3428029013    2.1593455355
 H    3.3883890365    1.1970104330    1.1475340585
 H   -2.6097911457    2.1659050935   -1.8825013037
 H   -2.5153224449    2.0014383132   -0.0615726758
 H   -0.9365567390    3.9083832990    0.1096606715
 H   -0.9487947902    4.1631499433   -1.7029450717