13

 O    0.0264446705    1.3655909919   -0.3455348073
 C    0.0368633371    0.1021981352    0.2917132381
 C   -1.3364643654   -0.5289841977    0.2465717700
 N   -1.7287589162   -1.0532775272   -1.0651949594
 C   -1.5500092292   -1.9984790990    0.0564520239
 C   -0.4509123438   -2.9300628117   -0.0439864710
 N    0.4194742913   -3.6891535280   -0.0952401361
 H   -0.1870613022    1.2050156203   -1.2718963069
 H    0.7702665909   -0.5795109036   -0.1602150730
 H    0.3351521302    0.2782227263    1.3299861431
 H   -2.0989229390   -0.0190020875    0.8323354472
 H   -2.7216291928   -0.9208355420   -1.2382024972
 H   -2.4371898215   -2.4275423171    0.5142944885