15

 O    0.2192680018    0.1143254713   -0.5463841992
 C    0.1235236244    1.2240489092   -0.0858290171
 N    1.1395848974    1.8949565673    0.5782435854
 C    2.5357011066    1.8524256642    0.1870906214
 C    1.7612239031    3.1296637884    0.1799104720
 C    1.4216430178    4.0528845494   -0.9928021654
 O    1.6313832484    5.2063005147   -0.1519423777
 C    1.8938809714    4.3976172696    1.0172684167
 H   -0.8187927909    1.8039470359   -0.0846114575
 H    3.2465873802    1.6555979281    0.9852881024
 H    2.7652092975    1.3845420122   -0.7676482142
 H    2.1135427649    4.0246490228   -1.8430005906
 H    0.3904809907    3.9928818529   -1.3634990919
 H    1.1262780645    4.5192729435    1.7913593537
 H    2.8832710521    4.5969093104    1.4453733119