18

 C   -0.1002995037   -1.3071063146   -0.0421500882
 C   -0.0484788127   -0.1052323123   -0.0090007768
 C   -0.0312867005    1.3392486582    0.0169039988
 C   -0.3591790530    2.0586867298    1.4276690698
 C    1.1493620256    2.4058538625    1.4690366207
 C    2.4233978712    3.3105845792    1.3747082846
 N    2.8100830734    2.0698262017    0.4973192667
 C    2.1786541371    1.2596579950    1.6358459731
 C    1.3180846070    2.2119978241   -0.0027423132
 H   -0.1291968080   -2.3681792486   -0.0723523014
 H   -0.6824460774    1.7081895244   -0.7810760879
 H   -1.0222617200    2.9132035162    1.2728351814
 H   -0.7563396941    1.4195198155    2.2188659548
 H    2.3391381598    4.2415452308    0.8084773468
 H    3.0813197819    3.4176111009    2.2423488505
 H    2.7772134763    1.2563812626    2.5513726956
 H    1.8984811600    0.2479066108    1.3468510795
 H    1.2146176972    3.0547459937   -0.6898435447