17

 C    0.0066087292    1.4881091254   -0.2298087665
 C    1.5528770428    1.5042910822    0.1166415192
 C    1.3445405906    0.1827242876    0.9087374247
 O    1.0984234512    0.3072337515    2.2854985828
 C    0.0641397864   -0.6830474812    2.5120265133
 C   -0.1724323336   -1.2146756131    1.1083316590
 C    1.2666400456   -1.2898797483    0.4183243888
 O    0.7252306696   -0.8533660846   -0.8593975832
 C    0.0308845316   -0.0095109772    0.1335182412
 H   -0.5754814569    2.0761595610    0.4828555916
 H   -0.2987203166    1.7360788204   -1.2481996981
 H    2.1796940879    1.3784802497   -0.7645414616
 H    1.9131796809    2.3387092707    0.7183507469
 H    0.4272379591   -1.4558808024    3.1998000039
 H   -0.8116922419   -0.1979582722    2.9573628894
 H   -0.9118350073   -1.9974003363    0.9391935480
 H    1.9633174114   -2.1343250334    0.4191994104