20

 C   -0.0616385706    0.9719878791   -0.3021423895
 O   -0.4004505974   -0.0589532571    0.6077738134
 C    0.7063284530   -0.5795193074    1.2724763669
 C    0.5282779883   -1.9199909071    1.9067669010
 C    1.4461875693   -1.7704330284    0.7002673906
 C    1.0318272299   -2.3692909703   -0.6251654354
 N    1.2667955358   -3.8066719946   -0.6779131812
 C    2.0747564821   -4.3978403369   -1.5964112842
 O    2.6559021056   -3.8270442314   -2.4959530044
 H    0.6092234550    0.6140557267   -1.0952997259
 H   -0.9937048075    1.3216969459   -0.7513548299
 H    0.4250954037    1.8148282741    0.2108039506
 H    1.2998750121    0.1684000417    1.8006925742
 H    0.9578904791   -2.1002662379    2.8854305957
 H   -0.4346774035   -2.3923412060    1.7381709915
 H    2.5135030900   -1.8128525394    0.8997841426
 H   -0.0258423692   -2.1519310226   -0.8102006922
 H    1.6108613480   -1.9464049275   -1.4495855158
 H    0.8682382878   -4.3826363393    0.0468444764
 H    2.1447156784   -5.4921494115   -1.4330398844