20

 C   -0.1702955728    1.4552543554   -0.1251768936
 C    0.0276385545   -0.0426764454   -0.0329789044
 C   -1.2262526349   -0.9316145716    0.2669802881
 C   -0.4672217094   -1.6416504968    1.4266649131
 C    0.8022505794   -0.8054896258    1.1283919752
 C    1.7591959606   -1.4363750533    0.0746992351
 C    0.9861519178   -0.7025012069   -1.0044668950
 N    1.0809581326   -0.5596419275   -2.2591031071
 O    2.1385388786   -1.3353313638   -2.7774065715
 H    0.7876798420    1.9841153407   -0.1617168399
 H   -0.7257252659    1.7143577442   -1.0332743231
 H   -0.7358959375    1.8293456662    0.7353217208
 H   -2.0797201924   -0.3384238910    0.6060103968
 H   -1.5566973298   -1.5633623586   -0.5604518554
 H   -0.9005046099   -1.4407342426    2.4093364371
 H   -0.3426216123   -2.7238035412    1.3285972624
 H    1.2737315709   -0.2815590732    1.9603083877
 H    2.7981071940   -1.0972484436    0.1438754008
 H    1.7657483876   -2.5289706936    0.0085671138
 H    2.1054974169   -1.1192991116   -3.7153139009