21

 O    0.1350250873    1.4342082131    0.0114677882
 C    0.0396477727    0.0097126351    0.0711515589
 C    0.6073339720   -0.4411374020    1.4327147036
 C   -0.5918444886   -0.5408585868    2.3697972283
 C   -1.5514071373    0.6227492240    2.4140513356
 C   -1.8463320727   -0.5620417981    1.5204468244
 C   -1.4103317409   -0.4852009627    0.0804622062
 C   -2.3481421840   -0.1479456146   -1.0525846453
 C   -1.8444211307   -1.5615156436   -0.8827042416
 H   -0.4739256620    1.7344459968   -0.6717208130
 H    0.6009398142   -0.4257733422   -0.7683766078
 H    1.0717394581   -1.4278718414    1.3269188486
 H    1.3782060788    0.2582254109    1.7695290290
 H   -0.5016625270   -1.1697932863    3.2485764333
 H   -2.1618125266    0.7208725338    3.3058729365
 H   -1.2501280500    1.5574415263    1.9572964050
 H   -2.6882670195   -1.2016922401    1.7641914636
 H   -3.3833809524    0.0652646395   -0.8087235076
 H   -1.9713434634    0.4209285311   -1.8988925397
 H   -1.1195103342   -1.9313204774   -1.6008738987
 H   -2.5395532839   -2.3142095554   -0.5250582175