18

 C   -0.1147063646    1.3491118189   -0.0422709070
 N    0.0891523438   -0.0958435906    0.0302003358
 C    1.5062818010   -0.4970885186   -0.0968473819
 C    0.8472246387   -0.5205615213    1.2278091835
 C    0.9527932134   -2.0811653188    1.2754038338
 O    1.1781065233   -2.8010116933    2.4292638040
 C    0.2785704670   -2.7222104393    0.0921503718
 C    1.6287255180   -2.0574177635   -0.0913622086
 O    2.7635059300   -2.7099044052   -0.5288854187
 H    0.7148919055    1.9394925018    0.3827915869
 H   -0.2393884371    1.6396750588   -1.0901292120
 H   -1.0308973728    1.6076102078    0.4976685936
 H    2.2584566014    0.1830670635   -0.4785408640
 H    0.9734676179    0.1425237002    2.0758872277
 H    2.0528099325   -2.5729311596    2.7643477679
 H    0.3688922499   -3.8044538470    0.1341077941
 H   -0.6308762871   -2.3276631239   -0.3433828764
 H    2.6092877392   -3.0234029098   -1.4273452106