18

 C   -0.0528342978    1.4429897837    0.0730764133
 C    0.0317988466   -0.0816648507   -0.0410046712
 C    0.7495293140   -0.5120308896   -1.3082627080
 O    0.7803760722   -1.9565527638   -1.3286500614
 C    1.3761100939   -2.5104595190   -2.3743527707
 O    1.8856085812   -1.9120489342   -3.2943271553
 C    1.3488406116   -4.0550495311   -2.2889820543
 N    1.9631372106   -4.5953220527   -3.3674817076
 O    0.8418295930   -4.6631290032   -1.3736120548
 H    0.9430256169    1.8987397514    0.0950222916
 H   -0.5986858380    1.8779684128   -0.7711793046
 H   -0.5718792448    1.7351269602    0.9898920505
 H    0.5593577619   -0.4994006042    0.8235870832
 H   -0.9722690100   -0.5200379983   -0.0368519573
 H    0.2388509215   -0.1593504906   -2.2108325946
 H    1.7785923833   -0.1386523204   -1.3458397988
 H    2.3498970783   -3.9865702833   -4.0697199022
 H    2.0251373057   -5.5951535572   -3.4542214276