17

 C   -0.0567065366    1.4853548460    0.1197692418
 C    0.0133462840   -0.0293248445    0.1698132932
 O    0.9693263168   -0.6568604542    0.5816378650
 N   -1.0987288219   -0.6785075410   -0.3018379675
 C   -2.5069371022   -0.2851214674   -0.4577282952
 C   -2.8929127403   -1.7879673381   -0.3725356217
 C   -1.3800681021   -2.1024472375   -0.1116502335
 C   -0.7389166211   -3.0041415244   -1.0708872342
 N   -0.2749863172   -3.7318081490   -1.8389861344
 H    0.9306939938    1.8860202868    0.3465840561
 H   -0.3836803068    1.8389192833   -0.8626248272
 H   -0.7703704020    1.8610868116    0.8616656889
 H   -2.8886613587    0.3324253695    0.3628115975
 H   -2.7318432884    0.2085557469   -1.4081777958
 H   -3.5514922826   -2.0574653761    0.4518729040
 H   -3.2741174428   -2.2108173923   -1.3006279847
 H   -1.1491639919   -2.4485767695    0.9018142976