20

 C   -0.1546401602    1.6301027353   -0.0024843481
 C    0.0423867026    0.1231456396    0.0118355038
 C    1.0722383962   -0.6022118766   -0.8884109543
 C    2.3916427156    0.1668145362   -1.0122905340
 C    3.0807500995    0.2397917761    0.3767261402
 C    2.0830324064    0.1509349668    1.5625711788
 C    0.8313828478   -0.6145951664    1.1210695836
 O    1.2196604775   -1.6253581630    0.1421681923
 H    0.7807864403    2.1840800340    0.1129867453
 H   -0.6138086301    1.9512273805   -0.9441443046
 H   -0.8236915707    1.9404317608    0.8079149298
 H   -0.9222582757   -0.3795683568   -0.1068853610
 H    0.7269417498   -1.0220343841   -1.8377694119
 H    3.0547060226   -0.3382123816   -1.7220849488
 H    2.1956486722    1.1627859889   -1.4266484603
 H    3.7581045545   -0.6134858412    0.4526478482
 H    3.7016578314    1.1369719446    0.4566779367
 H    2.5603223638   -0.3636592983    2.4027499754
 H    1.7932346004    1.1420787821    1.9309657911
 H    0.2721327563   -1.0454162670    1.9567698379