17

 C   -0.4114217184    1.3503775235    0.2458299033
 C    0.4544229958    0.1423846167   -0.0284390945
 O    1.3774844300   -0.1844693161    0.6802411889
 C    0.1184678548   -0.7159919236   -1.2563302727
 C    1.3602776281   -1.1711041309   -1.9965984271
 C   -0.9639311604   -1.7932078852   -0.9744185144
 C   -1.8047646160   -0.9764018855   -1.9516318426
 O   -2.8910284995   -1.0152285697   -2.4287839533
 O   -0.8292534081   -0.0320710127   -2.1619896078
 H   -0.3528834165    2.0517153355   -0.5925787508
 H   -1.4663736205    1.0670156846    0.3300447225
 H   -0.0791680356    1.8290721384    1.1671261422
 H    2.0302939752   -1.6778413128   -1.2992850436
 H    1.0962729451   -1.8491737270   -2.8123632132
 H    1.8897496996   -0.3118646253   -2.4180354443
 H   -0.7182981527   -2.8018520231   -1.3100629316
 H   -1.3647304810   -1.8342915568    0.0400836091