19

 C    0.3400992601    1.3868545220   -0.2259084734
 N    0.4784927116   -0.0557419796   -0.0801075736
 C    0.5399779427   -0.7748950930   -1.0998474216
 O    0.5086881520   -0.4431786191   -2.4510768273
 C    0.8585736791   -1.8192975213   -2.8411488357
 C    2.2257749825   -1.8419027717   -3.4935584652
 O    2.2280171232   -1.0802372178   -4.6854655579
 C    0.7402904427   -2.2653739428   -1.3561424440
 N    1.8343826487   -2.9963528807   -0.7555924638
 H    1.0789878182    1.8823959221    0.4124054401
 H    0.4607992549    1.7449062253   -1.2551328154
 H   -0.6489032904    1.6925647232    0.1339359384
 H    0.0998542691   -2.2079146597   -3.5258378572
 H    2.9864008594   -1.4801718420   -2.7838189878
 H    2.4880522228   -2.8694050592   -3.7623594469
 H    1.9152475655   -0.1990934102   -4.4490062411
 H   -0.1860093716   -2.8221489050   -1.1916824722
 H    2.6070037264   -2.3739576585   -0.5412343186
 H    1.5401654030   -3.3968962020    0.1280411832