21

 O   -0.0032929415    1.4628751322    0.2322225692
 C   -0.0717923748    0.0487466247    0.3484473277
 C   -1.3772484993   -0.5223708253   -0.2167947047
 C   -1.4650712064   -2.0236054256   -0.0729442963
 O   -0.4614050326   -2.6118242069   -0.8756823348
 C   -1.7504117929   -2.7569274305    1.2113082612
 C   -2.8216885426   -2.0632517226    2.0604052592
 C   -3.8183135379   -2.1413447637    0.8561740757
 C   -2.7375264378   -2.8245870036    0.0142022000
 H    0.0424159118    1.6758411099   -0.7052009928
 H    0.7858644089   -0.4405713282   -0.1320565324
 H   -0.0085836636   -0.1635847387    1.4212468244
 H   -2.2188742535   -0.0339975044    0.2808562728
 H   -1.4497962139   -0.2767333704   -1.2850493337
 H   -0.4574685633   -3.5618886128   -0.7185369185
 H   -1.0528737270   -3.5043764052    1.5767610532
 H   -3.1503020254   -2.6757280820    2.9027178176
 H   -2.5722635340   -1.0668192997    2.4385665733
 H   -4.6613611191   -2.8023410573    1.0689190912
 H   -4.2140066576   -1.1965379397    0.4701114128
 H   -2.9085288776   -3.6287771401   -0.6943185250