18

 C   -0.1118445934    1.5230791808   -0.0422587088
 N    0.0918017679    0.0823762960    0.1268693907
 C    1.3625099243   -0.5699272910   -0.1764854281
 C    2.4973374557    0.3005996743    0.3118964653
 O    3.5005520883    0.7461528036   -0.1699989105
 C    1.9382599244    0.2830920245    1.7683154513
 O    1.6204739635    1.4638951822    2.4619850304
 C    0.7530758809   -0.5403659500    1.2411477802
 C    0.0620668569   -1.6324209884    2.0030934028
 H    0.7255352871    2.1537074160    0.2711226212
 H   -0.3244621818    1.7080776246   -1.0992822579
 H   -0.9915286622    1.8110640201    0.5403199240
 H    1.3907677291   -1.3580915427   -0.9212680858
 H    2.6139728059   -0.3624344053    2.3560678722
 H    2.4343118801    1.9676246600    2.5766385198
 H   -0.5450959653   -1.2087604426    2.8108832715
 H   -0.6013425038   -2.1938576798    1.3411373057
 H    0.7855294324   -2.3195291323    2.4535645560