27

 C   -0.3977929857    1.5507505798    0.0626643405
 C   -0.0352839220    0.0640517804   -0.0344051623
 C    0.7964487999   -0.4879725411    1.1458952416
 C    0.1190669826   -0.2116639673    2.5107459186
 C   -1.2160068719   -0.9273603235    2.7537630448
 C    1.1661235901   -1.9804540762    0.9189783620
 C    1.9399587184   -2.2060820711   -0.3919458380
 C    1.9768592643   -2.5553381599    2.0875230137
 O    2.2239265546   -3.9331906265    1.8295649222
 H    0.4941740196    2.1666094978    0.2267944485
 H   -0.8677575177    1.8924605741   -0.8650991999
 H   -1.0981598416    1.7592336328    0.8768101466
 H   -0.9523267578   -0.5292554692   -0.1468006429
 H    0.5292409637   -0.0849367033   -0.9592059948
 H    1.7435620932    0.0749708955    1.1555232103
 H    0.8132575072   -0.4647199012    3.3194011604
 H   -0.0369717184    0.8686289205    2.6026152836
 H   -1.6273504437   -0.6509696930    3.7298271457
 H   -1.9636082198   -0.6642490424    1.9985158488
 H   -1.1069383170   -2.0165825593    2.7413860774
 H    0.2379826095   -2.5658881991    0.8657300570
 H    2.8047890665   -1.5332432711   -0.4561353207
 H    2.3086303973   -3.2325245716   -0.4322747831
 H    1.3184065166   -2.0371507813   -1.2740317201
 H    2.9228484386   -1.9951962074    2.1868850583
 H    1.4276750716   -2.4440716583    3.0314947333
 H    2.7431940021   -4.2841723682    2.5582596384