18

 C   -0.0656997812    1.5602200457   -0.0389847872
 C    1.4815435397    1.4438528031    0.0142113257
 C    1.3030802540    0.1227852576    0.8461664426
 C    2.2757400328   -0.9179426917    0.3044466145
 C    2.8192563309   -0.4241099078   -0.9847884938
 C    1.8475980312    0.7281884865   -1.3009684693
 C    0.7243912930   -0.3727518986   -1.2873176026
 C   -0.0135811695    0.0098444565   -0.0002782530
 N    1.7380264078   -1.4643735898   -0.9816978672
 H   -0.4838636570    1.9841813807    0.8773970692
 H   -0.5212279071    2.0435425609   -0.9088534632
 H    2.1194417549    2.2621487050    0.3513258847
 H    1.1972890190    0.2209048101    1.9245639757
 H    2.8041692645   -1.6281021262    0.9285103060
 H    3.8088360930   -0.6142771933   -1.3862291816
 H    2.0002023636    1.3329795554   -2.1923941524
 H    0.1427159430   -0.5740923171   -2.1849319086
 H   -0.8594602027   -0.6034949470    0.3098490704