19

 C    0.0186770455    1.4604836716    0.0820522007
 C    0.0140543211   -0.0338206787   -0.0342274101
 C    0.5858877645   -0.9516246747   -1.1529543110
 C    0.0574226443   -1.8821057124   -0.0234240616
 C    0.1320692430   -3.3730979822    0.1102819542
 N    0.6359300355   -0.9377444970    1.0228924937
 C   -1.2263906388   -0.9873148014    0.0158718742
 C   -2.0431578407   -0.9993526138    1.2163327959
 N   -2.7459148805   -1.0110373383    2.1343975898
 H    1.0432243698    1.8467887705    0.0656235220
 H   -0.5286348686    1.9165942506   -0.7488918131
 H   -0.4507479651    1.7693302666    1.0206191186
 H    0.0824305479   -0.9691374879   -2.1260792231
 H    1.6737078365   -0.9267377203   -1.2644212380
 H    1.1735943066   -3.7111394066    0.0980503291
 H   -0.3225956129   -3.6926792397    1.0525177603
 H   -0.3930647948   -3.8640132337   -0.7151221092
 H    1.6563526035   -0.9145105531    0.9214356000
 H   -1.8488273666   -1.0071856694   -0.8808516822