20

 C   -0.1759728619    1.5009887437    0.0073934436
 C    0.1441073018    0.0083348296    0.0354785253
 C    0.7794342485   -0.4459064662    1.3441344569
 O    1.1305523360    0.3237721397    2.2036406020
 C    0.9308079978   -1.9563939353    1.4785213192
 O    1.6524581914   -2.2541912053    2.6586039542
 C    1.8118197521   -3.5632318969    2.9510455001
 C    2.5943262020   -3.7105919268    4.2296882420
 N    1.3349213189   -4.4661122786    2.1958574954
 H    0.7238391077    2.0928587682    0.1901182334
 H   -0.5934605870    1.7885523316   -0.9613049487
 H   -0.8986921788    1.7607086696    0.7855171271
 H   -0.7527009628   -0.5988278437   -0.1476256974
 H    0.8380434274   -0.2587351182   -0.7744838582
 H   -0.0618280337   -2.4255705128    1.5023905081
 H    1.4360125651   -2.3714161599    0.5967495283
 H    2.0751844201   -3.2025317780    5.0477693768
 H    2.7299959141   -4.7622179404    4.4864402383
 H    3.5742411478   -3.2350177991    4.1265026344
 H    1.5451241535   -5.3898273111    2.5665772292