23

 C    2.2383419080    0.5447563940   -0.9888862956
 N    3.0455188400    0.0586733055    0.1178575488
 C    3.6599447110    1.0241988283    1.0191622395
 C    2.6181788064    0.0782135548    1.5178752286
 C    1.2627182645    0.4714980401    2.1287300493
 C    0.6795538783    1.8213533057    1.6724956771
 C    0.2485762986   -0.6511771043    1.8272042091
 C    1.4912031879    0.5437390954    3.6551952145
 H    2.8796982870    0.6083781874   -1.8750582463
 H    1.4412313950   -0.1725842575   -1.2092213851
 H    1.7846674391    1.5344225335   -0.8390550148
 H    4.7124934833    0.8749799864    1.2518268459
 H    3.3736004582    2.0691662693    0.9039347296
 H    3.0000926260   -0.8064508958    2.0313737944
 H   -0.2136279016    2.0478125002    2.2655646651
 H    1.3852875688    2.6438285368    1.8219740949
 H    0.3751807317    1.8160053337    0.6241433969
 H    0.6242584634   -1.6228903526    2.1651067570
 H   -0.7022236518   -0.4632948934    2.3380045529
 H    0.0438910467   -0.7275521146    0.7548941930
 H    2.2020639734    1.3365708649    3.9104715089
 H    0.5506359761    0.7524232150    4.1761326522
 H    1.8863716399   -0.4002678828    4.0450747142