22

 C   -0.1337890466    1.5495971005   -0.0253309757
 C    0.0653556149    0.0272404186   -0.0438880382
 C    0.7495457325   -0.3968661308   -1.3503817821
 O   -0.1514350491   -0.0929997585   -2.4064441221
 C    0.7943653385   -0.5288329679    1.2280800671
 C    0.7251648385   -2.0752859441    1.2898418707
 C    2.2692995116   -0.0719719289    1.3287068028
 C    0.0782910561   -0.0256018340    2.4152067834
 N   -0.4791136169    0.3519018179    3.3551611600
 H    0.8240498272    2.0814703390   -0.0158408014
 H   -0.6706648706    1.8512145290   -0.9264740830
 H   -0.7083178870    1.8693879945    0.8471148676
 H   -0.9271892678   -0.4404472242   -0.0576735497
 H    1.6970385495    0.1502455891   -1.4735658715
 H    0.9840945761   -1.4706292841   -1.3428856994
 H    0.2917934612   -0.2691725484   -3.2411572552
 H    1.3251637384   -2.5215987790    0.4932995144
 H    1.1144046652   -2.4368182934    2.2452700045
 H   -0.3051847630   -2.4264816793    1.1877135762
 H    2.3587484783    1.0162030144    1.3116801070
 H    2.7152765526   -0.4316420006    2.2596694883
 H    2.8482850604   -0.4822913799    0.4968535565