19

 O   -0.9064676793    0.7456952636   -0.0472753079
 C    0.0926257662    0.8989911894    0.6191486453
 C    1.1806879869    1.7744699008    0.2768569275
 C    2.1152701315    2.4991316793    0.0243969578
 C    3.2151220159    3.3815774519   -0.3177847925
 C    3.8836330679    3.0615125302   -1.6792218697
 C    4.6918485515    4.3368250699   -2.0109382607
 C    4.0177810180    5.4947946976   -1.2158614028
 C    2.8076800405    4.8660068121   -0.4934504313
 H    0.2359208663    0.3514067270    1.5736255361
 H    3.9797379196    3.3220067073    0.4693130994
 H    4.4958014528    2.1574507345   -1.6407104143
 H    3.0974073646    2.8936325407   -2.4223085814
 H    5.7353049191    4.2202634146   -1.7037011793
 H    4.7024812150    4.5263666181   -3.0872004929
 H    4.7184829948    5.9115146509   -0.4858128652
 H    3.7109527056    6.3207392760   -1.8623578102
 H    1.9112318419    4.9103138309   -1.1207655066
 H    2.5685368309    5.3502200551    0.4563247488