16

 C    0.0162760847    1.5710964879   -0.0074621702
 C   -0.0046495339    0.0298314067    0.0469192378
 C    0.7584266693   -0.5055022434    1.2729310250
 O    2.1052119269   -0.0815837771    1.1489407185
 C   -1.3648235995   -0.4934731492    0.0352788334
 C   -2.4964002924   -0.9241898274    0.0350814127
 C   -3.7695943627   -1.4049148068    0.0367842981
 C   -4.8989564740   -1.8328342282    0.0382249375
 H    1.0499638671    1.9211135007    0.0148560060
 H   -0.4661653626    1.9332233171   -0.9184291767
 H   -0.5164507624    1.9917846515    0.8509124465
 H    0.5221086020   -0.3536525037   -0.8382614085
 H    0.2899740816   -0.1130313756    2.1884986367
 H    0.6799916921   -1.6019281660    1.2984627545
 H    2.5858963158   -0.3661155579    1.9313325635
 H   -5.8922582619   -2.2070379884    0.0392011154