18

 C   -0.0723369432    1.5343672982   -0.0149047846
 C    0.0330749028    0.0140296327   -0.0024721681
 N    0.7692871907   -0.4823287780   -1.1686677255
 C    0.7805839717   -1.9377452963   -1.2595472118
 C    1.6590470080   -2.4972226728   -0.1326114971
 C    1.2334986273   -1.9744410052    1.2258966503
 O    1.2709640634   -2.6200947580    2.2418860329
 C    0.7180819046   -0.5024776835    1.2685141278
 O    0.8241392194    0.1455484155    2.2769965187
 H    0.9227195098    1.9815200594   -0.0863154790
 H   -0.6697510605    1.8713416517   -0.8679878671
 H   -0.5431562118    1.8877544442    0.9036938564
 H   -0.9922251965   -0.4172447625    0.0421953081
 H    0.3722373808   -0.0774893725   -2.0094857788
 H   -0.2315587990   -2.3795728073   -1.1917121529
 H    1.1959833363   -2.2278585016   -2.2288556705
 H    1.6708305012   -3.5899728386   -0.1060237477
 H    2.6874086850   -2.1469669453   -0.2965036312