20

 C    0.3849130931    1.6520058872   -0.5987282657
 C    0.2289177922    0.2410221939   -0.2756731424
 C    0.0969974842   -0.9286681787   -0.0218996471
 C   -0.0555468112   -2.3389525655    0.3123067045
 C    0.3044144208   -2.6768826417    1.7907528796
 C   -0.5643464786   -3.9101719217    2.1019352173
 C   -1.7586981848   -3.7584775344    1.1722566323
 C   -2.4076835859   -2.4257586943    1.0766687595
 N   -1.4338180257   -2.8445680462    0.0572840070
 H    1.1343909382    1.8004460688   -1.3840333213
 H   -0.5574856057    2.0809763168   -0.9569558250
 H    0.7010439904    2.2317365459    0.2756801265
 H    0.5904043655   -2.9319537151   -0.3480623316
 H    1.3737360605   -2.8633988095    1.9099830531
 H    0.0510258449   -1.8367574309    2.4414324768
 H   -0.0317879118   -4.8360618600    1.8570440780
 H   -0.8484769288   -3.9684125701    3.1573182317
 H   -2.3211840701   -4.6500405778    0.9088345813
 H   -3.4274968120   -2.3455701637    0.7122702871
 H   -2.1249828954   -1.6513305429    1.7847687283