18

 C   -0.0110534542    0.9242197113    1.1094460687
 C   -0.1311036936   -0.0264442955   -0.0690539556
 O   -1.3730096480   -0.6978136627    0.0188827355
 C   -1.5940386611   -1.6058725613   -1.0281279649
 C   -2.9438592259   -2.3035934339   -0.7941807452
 O   -3.3007886138   -3.0719672075   -1.9390137465
 C   -2.9383987997   -3.1112763807    0.4261597016
 C   -2.9117030218   -3.8271099474    1.3914094751
 H    0.9436563949    1.4572910623    1.0728910598
 H   -0.8206521620    1.6592950552    1.0934961623
 H   -0.0670753251    0.3733809282    2.0524511537
 H   -0.0655489773    0.5256061137   -1.0219115079
 H    0.6942862992   -0.7581694306   -0.0638047720
 H   -1.6414019703   -1.0980223170   -2.0044953341
 H   -0.7923711772   -2.3625303303   -1.0797280270
 H   -3.7082366268   -1.5227125427   -0.7084852310
 H   -2.8334405711   -3.9123498197   -1.8809525494
 H   -2.9015814260   -4.4434357617    2.2563272970