17

 C    0.0121773991    1.4892667087    0.0370990092
 N   -0.0095623081    0.0326100629    0.0481759220
 C   -1.1781916137   -0.6705383841    0.0830205511
 C   -1.2203704151   -2.0279923135    0.0120986511
 C   -2.4934888627   -2.8139963618    0.0627887409
 C    0.0412983927   -2.7485841894   -0.1148846871
 O    0.1325529083   -3.9718933630   -0.1871095681
 C    1.2073122933   -1.8600312138   -0.1446658215
 N    1.1872719776   -0.5612165156   -0.0737989570
 H    0.9554110113    1.8176510345    0.4722453276
 H   -0.0650632544    1.8793597523   -0.9839270105
 H   -0.8193894199    1.8738166953    0.6311557855
 H   -2.0735612743   -0.0646756012    0.1773013180
 H   -2.5972921038   -3.4268905071   -0.8389649535
 H   -2.4736657027   -3.5162053888    0.9031331525
 H   -3.3712143723   -2.1691175027    0.1582396043
 H    2.1901702846   -2.3136691427   -0.2326262142