17

 C   -0.0725458297    1.6067037825   -0.0108852146
 C   -0.0334265796    0.0913098090    0.0056777449
 C    1.2040291026   -0.6282973791   -0.6001573309
 O    2.0264049071   -0.1530605388    0.5309208202
 C    0.7624295898   -0.6207440880    1.1351729514
 C    0.8793738363   -1.9048046991    0.2466422414
 N   -0.3148076065   -2.6656744480   -0.0539595286
 C    2.0516529236   -2.7389207457    0.5485983543
 N    2.8948888367   -3.4999752626    0.7665114970
 H    0.9041905015    2.0271966756    0.2359631405
 H   -0.3714917678    1.9720497149   -0.9989398969
 H   -0.8068353323    1.9795031587    0.7108727212
 H   -0.9900961830   -0.3721394757   -0.2357481658
 H    1.6411694211   -0.5816104725   -1.5979510471
 H    0.6695597802   -0.5650001483    2.2201288427
 H   -0.1464611863   -3.2775832702   -0.8478160163
 H   -0.5474479136   -3.2710470127    0.7285887869