17

 C    0.0808644679    1.3811735103   -0.4475493353
 C    0.0120547807   -0.0051339006    0.1502741958
 O    0.9496616070   -0.5341021310    0.6942269623
 C   -1.3449858718   -0.7389192460    0.0638615999
 C   -1.9689981585   -0.6795953870   -1.3305928836
 O   -1.0638156648   -1.1306193238   -2.3160388230
 O   -1.1778493788   -2.1248233444    0.3453957199
 C   -0.8370316434   -2.4895917668    1.6071941782
 O   -0.5982837178   -3.6217011420    1.8917996310
 H    0.9943100858    1.8754398210   -0.1158839291
 H    0.0937133570    1.2890603996   -1.5392839936
 H   -0.7926483645    1.9835600419   -0.1766997069
 H   -2.0275769579   -0.2734049478    0.7931297985
 H   -2.8964018479   -1.2689572139   -1.3194070766
 H   -2.2279733439    0.3517438076   -1.5840232553
 H   -0.8161450644   -2.0332655978   -2.0819914707
 H   -0.8525223947   -1.6466595691    2.3190197186