14

 N   -0.1078630390    1.1772749483   -0.8069381609
 C   -0.0295642736    0.0836802932   -0.1898713229
 N    0.9549089357   -0.6531144263    0.4883170455
 C    0.1335045501   -1.8646741746    0.6373987976
 C    0.0345922176   -2.3927266866    1.9962966927
 N   -0.0630466888   -2.8222988687    3.0645465168
 C   -1.0495197927   -0.9977756266    0.1060644873
 C   -2.4475571039   -0.9289464051    0.5199912777
 O   -2.0421379565   -1.4593010461   -0.7566868549
 H    0.7857431832    1.6677259465   -0.8578142735
 H    1.9502216700   -0.6421737361    0.3201216582
 H    0.3772883421   -2.6753858684   -0.0586000682
 H   -2.8299104955   -1.6606150631    1.2284868120
 H   -2.9585353888    0.0298308635    0.4800202026