15

 N    0.3512714993    1.3389368607    0.2682505234
 C    0.1131333844   -0.0292918847    0.0699822086
 C   -1.0537075324   -0.7454788475    0.2375655697
 N   -0.7716572297   -2.0773060769    0.0034507223
 C    0.5463175242   -2.2369329921   -0.3127902954
 C    1.1123879980   -0.9818195702   -0.2755687544
 O    2.4191336295   -0.6406171053   -0.5817471341
 C    3.3766167389   -0.9686989823    0.3284030821
 O    4.5319337912   -0.7434889367    0.1440653102
 H    1.1479351433    1.6586585359   -0.2689241560
 H   -0.4507413562    1.9163628661    0.0525811258
 H   -2.0448154325   -0.4223332137    0.5089294104
 H   -1.4429352227   -2.8213718598    0.0557909275
 H    0.9720262676   -3.1949404514   -0.5590916994
 H    2.9444522971   -1.4602397221    1.2187539892