21

 C    0.1950607386    1.1744507554   -0.9245930360
 C    0.5873759994   -0.2792907030   -0.6874842514
 C    1.9127039466   -0.8799615765   -1.2728765520
 C    2.2490249892   -1.4273903000    0.1225104321
 C    2.3967460798   -0.3139329090    1.1440229749
 C    3.0461399080    0.9952310540    0.8949794139
 O    3.5829212649    1.6431268874    1.7640910965
 C    1.0026688836   -0.7829292041    0.7090205830
 C    0.0288116470   -1.2859600020    1.7384073004
 H    0.9778333986    1.8779275687   -0.6292469386
 H   -0.0219343029    1.3463904890   -1.9847167221
 H   -0.7077328881    1.4302118286   -0.3589176466
 H   -0.2424569198   -0.9142094632   -1.0197673761
 H    1.7266572707   -1.6695711116   -2.0036961398
 H    2.6267517860   -0.1771329776   -1.7106918027
 H    2.6738166906   -2.4035384576    0.3279702175
 H    2.6295766666   -0.6713882054    2.1441749397
 H    3.0458081609    1.3586743719   -0.1530829584
 H   -0.5301866483   -0.4607646356    2.1948881293
 H   -0.6983911136   -1.9694649287    1.2847072239
 H    0.5387183820   -1.8235743005    2.5438916925