18

 C    0.1845043076    1.4140735737   -0.1037534450
 C   -0.0492264112   -0.0718949317    0.0971306257
 C   -1.5138655508   -0.4628858873    0.0225612680
 O    0.7332102393   -0.8376171432   -0.9177942642
 C    1.5083214198   -1.4322940312    0.0409251660
 N    2.4890469192   -2.2103641406   -0.0397449248
 C    0.7770820412   -0.7931132332    1.2035258434
 C    1.6099758017   -0.0451103992    2.2196211848
 O    1.3492824551    1.0486509819    2.6496048281
 H    1.2500854897    1.6519528508   -0.1119272126
 H   -0.2472451027    1.7237455489   -1.0604001938
 H   -0.2816942981    1.9865862915    0.7008615232
 H   -1.9468056941   -0.1405337559   -0.9290206349
 H   -1.6366069528   -1.5461893845    0.1074635509
 H   -2.0728506949    0.0164326417    0.8326674529
 H    2.7235048632   -2.4191909545   -1.0117078276
 H    0.1917315268   -1.5369026068    1.7588985522
 H    2.4987155510   -0.6150089704    2.5649351777