18

 C   -0.0273994933    1.5122250500   -0.0087011510
 C    0.0317167173    0.0056821543    0.0135015955
 C   -0.8378238826   -0.8048316937    0.9441334523
 C    0.6733741826   -0.8119660622    1.1331176084
 C    1.4183556969   -1.8950433196    0.4346863552
 C    1.2333886687   -1.7918346207   -0.8868050713
 N    0.4457442398   -0.6729612559   -1.2089499092
 C    0.1145867467   -0.3196278874   -2.4885484786
 O    0.4691812322   -0.9212628051   -3.4804700378
 H    0.8952365156    1.9369455926   -0.4170299199
 H   -0.8695456244    1.8850831714   -0.6014301871
 H   -0.1551600268    1.8899503966    1.0094808922
 H   -1.4220688727   -0.2390908172    1.6616705606
 H   -1.3088791081   -1.7078821003    0.5725033094
 H    1.0888599507   -0.3338398852    2.0140162877
 H    2.0074105015   -2.6541425902    0.9276260314
 H    1.5719838779   -2.4168682023   -1.6983199843
 H   -0.5211542019    0.5826858550   -2.5231356936