17

 O   -0.1581635661   -0.0023828267    0.0027513708
 C   -0.0056703221    1.2001241254    0.0080668819
 N    1.2003804320    1.8317212859    0.0003720529
 C    2.4467079091    1.1320934368   -0.0156810168
 C    2.9763533417    0.1518015432   -1.1065510744
 C    4.0997895741    0.2649651421   -0.0363113983
 C    3.8418210562    1.8032179613   -0.0224039307
 C    2.9945724101    0.1354265220    1.0509471808
 H   -0.8492299482    1.9201028591    0.0200150428
 H    1.2141069405    2.8395208047    0.0049914314
 H    2.4555552729   -0.8032590039   -1.1832896046
 H    3.1876003007    0.5867322998   -2.0874735127
 H    5.0683349045   -0.2297932432   -0.0482752667
 H    4.1163924178    2.3549687480   -0.9264147689
 H    4.1317177450    2.3411531457    0.8851347385
 H    3.2224639458    0.5554453191    2.0346370489
 H    2.4749516162   -0.8206969393    1.1219589152