16

 O   -0.1400927726    1.4283318873    0.0145205664
 C   -0.0353992532    0.0574445458    0.0064637766
 C   -1.2706853427   -0.8800837368    0.0480971166
 C   -0.3848093718   -1.8658424607    0.7789146033
 C   -0.4399852518   -1.8610440805   -0.7507974723
 C    0.6941692114   -0.8575213193   -1.0704403820
 C    1.8386628392   -1.1347506692   -0.0647296676
 C    0.7695406235   -0.8639594194    1.0223672449
 H    0.7451513558    1.8096233665   -0.0138118666
 H   -2.3363460736   -0.7024285576    0.0871198128
 H   -0.6760070306   -2.7183455899    1.3778905853
 H   -0.7738199447   -2.7098350622   -1.3325485469
 H    0.8597607584   -0.5665056608   -2.1073267218
 H    2.3206857382   -2.1165112864   -0.0850791386
 H    2.6040960205   -0.3506236741   -0.0898786625
 H    1.0092984441   -0.5793231429    2.0464574725