19

 O    0.0151077493    1.4334291147   -0.1226500638
 C    0.0006303034    0.0293902035    0.0449794575
 C   -1.4121786175   -0.4776369470    0.0868828209
 C   -2.4862468380    0.3140565517    0.0642786598
 C   -3.8562529696   -0.2447079820    0.1041761399
 C   -4.2592457154   -1.2801971161   -0.9563972767
 C   -3.9313153453   -1.7129405159    0.4414970655
 O   -2.7676822465   -2.3982709565    0.7944230655
 C   -1.5688080405   -1.9779757682    0.1576328563
 H    0.9291080219    1.7285257796   -0.0933645251
 H    0.5457760431   -0.4749719874   -0.7748029896
 H    0.5130840750   -0.2679696015    0.9780387650
 H   -2.3606564524    1.3900850063    0.0270137577
 H   -4.6366571585    0.4118410447    0.4738909136
 H   -5.2988216167   -1.3197703618   -1.2642388367
 H   -3.5473341573   -1.4598841394   -1.7538443848
 H   -4.7432038439   -2.0610400740    1.0702656372
 H   -1.4972124644   -2.4237379081   -0.8501925919
 H   -0.7589797968   -2.4223160927    0.7491768797