17

 C    0.1148500837    1.5031737333    0.0763722287
 N   -0.1440213543    0.0672255437    0.0652095021
 C    0.4890318008   -0.7017938701    1.0337910754
 C    0.5970320744   -2.0792143590    1.1227642781
 C    0.1297442190   -3.2178105013    0.2846931382
 O    0.9640825146   -4.3349248079    0.5712881995
 N    1.2435147702   -2.2586217633    2.3044517447
 N    1.5339908022   -1.1035388985    2.9038634000
 N    1.0711446694   -0.1482138266    2.1338832293
 H    1.1759203523    1.7602831956   -0.0541120790
 H   -0.4671158176    1.9665243340   -0.7240980320
 H   -0.2091413267    1.9202787008    1.0317919895
 H   -0.0759497116   -0.3362520938   -0.8590472152
 H   -0.9246887895   -3.4548855907    0.5031153495
 H    0.1772920164   -2.9389334561   -0.7808556967
 H    0.5543347236   -5.1209921862    0.1983837987
 H    1.5587369332   -3.1352122739    2.6889435093