22

 C   -0.1357726731    1.5440502890    0.1353179730
 C   -0.0104849142    0.0214417603    0.0146714510
 C    0.6999899317   -0.5203293490   -1.2501290352
 C    0.6379602731   -2.0575499150   -1.2391014846
 C    0.0347976390    0.0067675121   -2.5339467747
 O   -1.3432175734   -0.3247212159   -2.4965387758
 C    2.1840698928   -0.0573974876   -1.3096325628
 C    2.9763567477   -0.4881017345   -0.1601671510
 N    3.5960986046   -0.8300980543    0.7536393656
 H    0.8359215759    2.0494156497    0.1283283538
 H   -0.7460574250    1.9647558476   -0.6693103448
 H   -0.6219321059    1.8037100436    1.0804961628
 H    0.5201281862   -0.3690670465    0.8908079685
 H   -1.0129265211   -0.4157519993    0.0372401870
 H   -0.4009842243   -2.3893437596   -1.2941184608
 H    1.1742010256   -2.4814482556   -2.0959561681
 H    1.0865411610   -2.4629622404   -0.3275876338
 H    0.1757948031    1.0960601589   -2.6114105951
 H    0.5284605498   -0.4500875881   -3.4073096645
 H   -1.7494598346   -0.0296914411   -3.3162522182
 H    2.6586167893   -0.4532771114   -2.2157274438
 H    2.2465845817    1.0345248170   -1.3750597787