14

 O    0.0922834283    1.4042647992   -0.0542553118
 C    0.0855150638    0.0023258243    0.0662212687
 C   -1.3522868191   -0.5415230564    0.0433105365
 N   -2.0041103006   -0.1842832508   -1.2266365062
 C   -2.3799225894   -1.2867647208   -1.7508403181
 N   -2.0990189513   -2.4318456287   -1.0185776572
 C   -1.4240191242   -2.0694072766    0.1488936188
 O   -1.0059083755   -2.8134704068    0.9992546184
 H   -0.4523017460    1.6129387994   -0.8235837399
 H    0.6637266070   -0.4827759678   -0.7365869794
 H    0.5537923083   -0.2543797958    1.0205186875
 H   -1.9021546508   -0.0861787689    0.8754252573
 H   -2.8870261966   -1.3701945332   -2.7067851563
 H   -2.3059211338   -3.3821904371   -1.2811177082