13

 N   -0.0161913488    1.4169699407    0.1561369060
 C    0.0573287582    0.0433093693    0.0512675325
 N   -1.0583277899   -0.6906179586   -0.0007884131
 O   -0.6377163835   -2.0762117037   -0.0274197397
 C    0.6738849383   -2.0339717616   -0.0001942851
 C    1.1890242684   -0.8001884203    0.0589213311
 O    2.5755567609   -0.8605654900   -0.0071932540
 C    2.8170021362   -2.2569416908    0.2250922181
 O    1.5957620250   -3.0132847841   -0.0697526323
 H    0.7246748465    1.9119608663   -0.3190023384
 H   -0.9302852819    1.7807512291   -0.0785532324
 H    3.6100382223   -2.6078577498   -0.4358411375
 H    3.0581988082   -2.4226226365    1.2841819549