16

 N   -0.3771541546   -1.2020733789   -0.2242335136
 C   -0.1615960529   -0.0879568636    0.0017124309
 C   -0.0194383198    1.3448649820    0.0877309355
 C    0.5462666736    2.1248946680    1.2361936715
 C    1.3747120649    1.4720700442    2.3119503994
 N    1.5940659165    0.0299156617    2.1297327283
 C    2.6204225884    0.9720688256    1.6640806042
 C    2.5208228800    1.2848958209    0.1744722955
 N    1.2701200252    2.0599655965   -0.0482055134
 H   -0.8063204841    1.8364011134   -0.4827391607
 H    0.0746226557    3.0726624313    1.4826554439
 H    1.3603776145    1.8982095081    3.3085065782
 H    1.8690215913   -0.4021101619    3.0079168109
 H    3.5852079329    1.0025457713    2.1607645792
 H    3.3514917958    1.9254470764   -0.1360555823
 H    2.5312550627    0.3812481050   -0.4419660775