23

 C    0.0101987225    1.4770780306    0.1174501582
 C    0.0871320251   -0.0578796666    0.1221058979
 C    0.7982757991   -0.5586103571    1.3892166279
 C   -1.3161543365   -0.6642442732    0.0210159225
 C   -2.1166682634   -0.5575523040   -1.3408210733
 C   -1.2958438055   -1.8043974387   -1.8156852910
 C   -1.4796289947   -2.2034410807   -0.3120694955
 C   -3.0079186198   -2.3197496164   -0.2524796136
 C   -3.4248786032   -1.2424740100   -0.9258369039
 H    1.0093706481    1.9197072561    0.1881547918
 H   -0.4598861694    1.8562380383   -0.7950682094
 H   -0.5751323058    1.8414984846    0.9701325657
 H    0.6894513909   -0.3642806550   -0.7416019829
 H    0.8970338807   -1.6484037739    1.3943373848
 H    1.8032365122   -0.1309656238    1.4694586455
 H    0.2421734448   -0.2700715274    2.2892049565
 H   -1.8986832759   -0.3446024039    0.8931489373
 H   -2.1712627656    0.3644079989   -1.9203344689
 H   -1.7660734421   -2.4514897680   -2.5597839306
 H   -0.2645079614   -1.5831321671   -2.1003259000
 H   -0.8783102224   -2.9761644828    0.1676593621
 H   -3.5734678014   -3.0983395141    0.2396105212
 H   -4.4262333162   -0.8950952758   -1.1375387822