18

 C    0.0689275587    1.3529556381   -0.0879271219
 N    0.1607353222   -0.0990349681   -0.0810437338
 C    0.6565846104   -0.6623775853    0.9346942328
 N    1.1833399995   -0.2878314906    2.1638016378
 C    1.0146776434   -1.6392577996    2.7576116601
 C   -0.1416124911   -1.7904216087    3.7314230204
 C    0.7305675117   -2.1412289924    1.2922541298
 O   -0.4463655686   -2.8698628085    1.0730725550
 H    1.0138249640    1.8049344075   -0.4181223512
 H   -0.7063504045    1.6656944306   -0.7929052390
 H   -0.1778427118    1.7834692791    0.8961281181
 H    1.0377171268    0.5929826575    2.6382858345
 H    1.9459517911   -2.0148917901    3.1941063738
 H   -1.0821099574   -1.4667042421    3.2783763732
 H   -0.2546738829   -2.8384811702    4.0241592897
 H    0.0353704250   -1.2022513027    4.6383955810
 H    1.5957701826   -2.6584815622    0.8595349369
 H   -0.9550683689   -2.3675413423    0.4241189127