13

 O    0.0608738525   -0.0329082807   -0.3932413884
 C    0.0222007225    1.1625497659   -0.1817036554
 N   -1.1955615231    1.8357581823   -0.1980480503
 C   -1.5485616583    3.1309561451    0.2299024184
 O   -2.5744121225    3.3105558265    0.8357246188
 N   -0.7701704315    4.2064926078   -0.2151498794
 C    0.5036968148    4.2521351161   -0.2093927623
 C    1.4701951021    3.2270314169    0.1789145886
 C    1.2595296465    1.9028779322    0.1635342417
 H   -1.9829967143    1.1960262828   -0.1980842653
 H    0.9462259487    5.1872943070   -0.5633175608
 H    2.4721315236    3.5881531766    0.3961933633
 H    2.0807176290    1.2246951015    0.3709298611