18

 O    0.0395401407   -0.0870554158    0.0135691358
 C    0.0101375280    1.1140495577    0.1576080753
 C   -1.3006522330    1.8657783653    0.3570192558
 N   -1.0950652924    3.1767550006    0.9730397471
 C    0.2048701169    3.7583390425    0.7607283930
 C    1.0813220143    3.4161366255   -0.5048936887
 C    2.3139202412    3.8285244527    0.3383393672
 C    1.4390856829    2.9821322012    1.2984846044
 C    1.2356427923    1.9765839696    0.1049962966
 H   -1.7458611905    1.9367310735   -0.6510455172
 H   -1.9740905662    1.2440024705    0.9555018303
 H   -1.8248826076    3.8225496363    0.7017750217
 H    0.1732290239    4.8174225048    1.0298772881
 H    0.8828517452    3.6512298791   -1.5520583563
 H    3.2678072743    3.3861617989    0.0435252290
 H    2.4192654393    4.8912020985    0.5756830124
 H    1.6458594464    2.7079090109    2.3335391284
 H    2.1120872343    1.3985940583   -0.1966116227