18

 C   -0.2259411115    1.5074221245   -0.1064511777
 C    0.0014828280    0.0217246818    0.0064374604
 N    1.3816624776   -0.4697815985   -0.1140328578
 C    0.6817712289   -0.6284496836    1.1751153587
 C    1.2627373459    0.1216476100    2.3068739263
 C    0.9105672392    0.2386083822    3.6398990895
 C    1.8833750183    1.0993562337    4.1906812461
 N    2.7756992194    1.4904910241    3.2833753503
 N    2.3723919254    0.8856551529    2.1511894101
 H    0.5485021792    2.0675857101    0.4218030336
 H   -0.2177299588    1.8185949371   -1.1562527980
 H   -1.1968563357    1.7794692726    0.3204857002
 H   -0.7691321975   -0.5911901633   -0.4603951313
 H    1.4222711829   -1.3517174419   -0.6154711582
 H    0.3158781947   -1.6189644763    1.4368789378
 H    0.0747637627   -0.2289473364    4.1349956525
 H    1.9700728987    1.4473900107    5.2097558083
 H    2.8949321626    0.9767013206    1.2947375892