21

 C    0.0280688312    1.5895880597   -0.0249192641
 C    0.0391252034    0.0698362271    0.0043174796
 C    1.0472575875   -0.6884026159   -0.9135717930
 C    1.3199611596   -1.6715078182    0.2395781835
 O    2.6912650964   -1.9499191610    0.4606219416
 C    0.6806828943   -0.6495423196    1.2341306068
 O    1.7054624273    0.1119885906    1.8594639011
 C   -0.2136340588   -1.2028769174    2.3294131921
 O    0.5609319024   -1.9559692084    3.2502541562
 H    1.0180830294    1.9838098016    0.2182414342
 H   -0.2603243276    1.9578258636   -1.0153428345
 H   -0.6808957843    1.9983539393    0.7030911624
 H   -0.9740035308   -0.3204620002   -0.1490656730
 H    0.6812297463   -1.1016609518   -1.8554703615
 H    1.9373828302   -0.0845930823   -1.1136706189
 H    0.7334721302   -2.5942973393    0.1656184135
 H    2.7408078003   -2.6091160890    1.1630975226
 H    2.5412387452   -0.2710427257    1.5486679435
 H   -0.7488646517   -0.3802349580    2.8308649472
 H   -0.9620493207   -1.8814980792    1.9066112233
 H    1.2632191902   -1.3503433756    3.5212110873