17

 C   -0.1276843133    1.5370392111   -0.0605998642
 C   -0.0547563166    0.0307577349    0.0364754002
 C   -1.1926290470   -0.7323617098   -0.6057974604
 O    1.2413824915   -0.5360354006   -0.1680142408
 C    0.6845645377   -0.6226689615    1.1552734667
 C    1.3220477953    0.1219952721    2.2009218966
 C    1.8360478240    0.7195317251    3.1179684684
 C    2.4764767184    1.4541081556    4.1774104016
 O    2.2205311462    1.3235393467    5.3526813303
 H    0.7312527902    2.0046778064    0.4227206021
 H   -0.1433446771    1.8397081076   -1.1128318659
 H   -1.0431497291    1.9092870294    0.4102753864
 H   -1.2503497310   -0.4893542976   -1.6721473940
 H   -1.0462465241   -1.8105326365   -0.5086812877
 H   -2.1491414204   -0.4622544831   -0.1471614603
 H    0.3696691915   -1.6261322525    1.4408387221
 H    3.2457355238    2.1715941226    3.8266850791