18

 O    0.0031196598    1.4313226343    0.0368655571
 C    0.0272822440    0.0172549075   -0.0541722705
 C    0.8307491379   -0.6997015142    1.0580750381
 C    0.0078809086   -1.9697066898    1.3704128581
 N   -1.3763326068   -1.7743921323    0.8753435053
 C   -2.0599975367   -0.5674314518    1.4152067567
 C   -1.6259686647    0.1298247687    2.5917790752
 C   -1.3525954971    0.6763690699    3.6284793500
 C   -1.3783236061   -0.5399832699    0.0812843307
 H    0.8972803688    1.7550438783   -0.1098962535
 H    0.4037540076   -0.2885244093   -1.0434819062
 H    1.8498683710   -0.9391737370    0.7419341512
 H    0.8871575450   -0.0372526655    1.9228912075
 H    0.4029356788   -2.8402969238    0.8377121543
 H   -0.0090440150   -2.2115483135    2.4367228643
 H   -3.1415512558   -0.6831166277    1.3757497665
 H   -1.0954092621    1.1817437676    4.5262053237
 H   -2.0099693872   -0.5275961114   -0.8028443485