18

 C   -0.0800200026    1.5912706102   -0.0169031759
 C   -0.0076740484    0.0598836144   -0.0326599067
 C   -1.4216967049   -0.5567868219    0.0423735055
 C   -1.4151168263   -2.0176653016    0.0747438365
 N   -1.4143383179   -3.1726292531    0.0988253707
 N    0.6929829031   -0.4623824444   -1.1953869550
 C    2.0735287122   -0.5481935876   -1.1807852574
 N    2.6196706760   -0.9207506013   -2.4017783757
 O    2.7462376253   -0.2997902300   -0.1982448347
 H    0.9316203099    2.0021441235   -0.0352828773
 H   -0.6279597253    1.9712502637   -0.8872657938
 H   -0.5821615294    1.9544773629    0.8856971810
 H    0.5726694525   -0.2736034099    0.8306053227
 H   -1.9334496291   -0.1846357171    0.9360743385
 H   -2.0212390139   -0.2295850415   -0.8170722523
 H    0.2503643689   -0.3329404942   -2.0934399444
 H    2.0819883133   -1.5583370446   -2.9708222503
 H    3.5934480466   -1.1731871476   -2.3208637015