18

 C    0.6203915279   -0.9350545258    0.6742154971
 C    0.2586832092    0.1437483103    0.2848438840
 C   -0.2133562339    1.4484012427   -0.1861828615
 C   -1.0807515483    2.1895024381    0.9050182818
 N   -0.3640477765    3.2798426858    1.5758990676
 C    0.1220860248    4.2304107723    0.5049126847
 C    1.2984202737    3.2674189212    0.2607961919
 C    1.0804892793    2.8554378994    1.7330701121
 O    0.8950022095    2.2438856805   -0.6409316717
 H    0.9472804401   -1.8880103678    1.0105943646
 H   -0.8335152510    1.2788271979   -1.0736289709
 H   -1.9748585553    2.6126270282    0.4373607655
 H   -1.4062452170    1.4586997948    1.6502846323
 H   -0.5684273440    4.3999057410   -0.3257309041
 H    0.4092489311    5.1836065437    0.9584998091
 H    2.2671741614    3.6258737770   -0.0954219179
 H    1.5853710194    3.5204588551    2.4388229363
 H    1.2441865995    1.8147455757    2.0176597293