18

 C    0.0103447487    1.5285949699    0.2232519670
 C    1.4845612885    1.8695436116   -0.0472465972
 O    1.9075856164    0.9023375594   -1.0109159912
 C    1.3275148096   -0.3202585461   -0.6707571978
 C   -0.0434270001    0.0055168937   -0.0437922643
 C    1.4308269495   -1.3025073956   -1.8572393417
 N    2.4704663913   -2.2728679648   -1.4928234158
 C    2.7783502157   -1.9960395616   -0.2953498519
 O    2.1590983941   -0.9753409192    0.3443445519
 H   -0.2969038078    1.7942447353    1.2368863783
 H   -0.6372106072    2.0658202247   -0.4744302535
 H    1.6442683585    2.8589207763   -0.4805837149
 H    2.0906102677    1.7795117423    0.8638784023
 H   -0.1790425838   -0.5810521268    0.8661659918
 H   -0.8484833047   -0.2564080041   -0.7339033458
 H    0.4859210980   -1.8247542469   -2.0417666443
 H    1.7031831113   -0.7584688571   -2.7654747753
 H    3.5125722243   -2.5250398110    0.3027276724