20

 C   -0.0321968012    1.4026849493   -0.1228629431
 N   -0.0057434353   -0.0387986046   -0.0849093684
 C   -1.2099164581   -0.8357274484    0.0602285008
 C   -0.7208250935   -2.2857975720    0.0353505524
 C   -1.4992885081   -3.3094066579    0.8238611710
 C    0.0309664163   -2.6752237193   -1.2046334586
 C    0.7919397597   -2.2115206269    0.0255513964
 C    1.1665520912   -0.7558220901    0.0209778436
 O    2.2805642340   -0.2776600069    0.0898748325
 H    1.0020999541    1.7487999007   -0.1654522840
 H   -0.5760081970    1.7693871238   -1.0021863025
 H   -0.5110356059    1.8185965305    0.7740106907
 H   -1.7149761419   -0.6108754037    1.0131534257
 H   -1.9265484299   -0.6236936403   -0.7457246484
 H   -2.5173513447   -3.4211868622    0.4323545478
 H   -1.0179322565   -4.2906999247    0.7748943196
 H   -1.5765883529   -3.0251646837    1.8792338857
 H    0.0871380895   -3.7337643282   -1.4360893256
 H    0.0111775972   -2.0233475265   -2.0727919543
 H    1.4370481331   -2.8990549787    0.5567471487