21

 C   -0.2469748983    1.5796321726    0.0361902093
 C    0.0007249160    0.0683847866   -0.0154797829
 C    0.8336134910   -0.4800590130    1.1497203210
 O    0.1905353950   -0.2270334603    2.4067388550
 C    0.9968170202   -2.0162865542    1.1016580838
 C    2.1687811145   -2.3164325813    2.0468805998
 C    3.0375847387   -1.0541130518    2.0105225100
 O    4.1209787326   -0.9240110675    2.5166510580
 C    2.2891064751    0.0193501630    1.2096816858
 H    0.6887210568    2.1482443749    0.0059928333
 H   -0.8550648563    1.9023686042   -0.8136368864
 H   -0.7891171043    1.8628244781    0.9448680186
 H   -0.9617467736   -0.4574153929   -0.0150932763
 H    0.5018017177   -0.1905719052   -0.9563849971
 H    0.2466659235    0.7160299223    2.5909054134
 H    0.0647738411   -2.5053013899    1.3931750939
 H    1.2343350145   -2.3232284250    0.0774110844
 H    1.8254267301   -2.4479687469    3.0783603098
 H    2.7587233764   -3.1983021851    1.7853804517
 H    2.7321664263    0.0570893359    0.2053167404
 H    2.4164182931    1.0088265257    1.6569077044