13

 C   -0.0448698824    1.4893044539    0.0469991053
 C   -0.0012451957    0.0019083641   -0.0452729366
 N   -0.0398337280   -0.7193147083   -1.1486878537
 C    0.0302011334   -2.0103995141   -0.6886767290
 N    0.1082156276   -2.1219195123    0.6353718485
 N    0.0869822819   -0.8281483260    1.0220492344
 C    0.0191633358   -3.1413153908   -1.5454558662
 C    0.0091320407   -4.0930674315   -2.2795033868
 H    0.8628381308    1.8898622897    0.5106019755
 H   -0.1307581692    1.8992088661   -0.9594533704
 H   -0.9014827081    1.8304531474    0.6377269294
 H    0.1347856487   -0.6049158559    2.0031109899
 H    0.0002621147   -4.9339712024   -2.9278811904