18

 O    0.3249141057    1.1829725966   -0.5444182511
 C    0.0881334590   -0.1222345394   -0.0751364040
 C    0.2426194632   -0.3462714296    1.4569500849
 C   -1.2777731720   -0.6332219556    1.5823653550
 C   -2.1302611964    0.5549776916    2.0491877448
 O   -2.2343387935    1.4293727138    0.9218578911
 C   -2.4068336576    0.5722353590   -0.2125978673
 C   -1.4176147453   -0.5621882805    0.0202849945
 H   -0.2197355739    1.7770334425   -0.0093150461
 H    0.7055439844   -0.7778206864   -0.6937585906
 H    0.8761278317   -1.1983432860    1.7163414572
 H    0.6065353366    0.5319392636    2.0003108024
 H   -1.5532517489   -1.5636994440    2.0805441634
 H   -3.1329691633    0.2162298498    2.3537338579
 H   -1.6896519115    1.1254230380    2.8716734514
 H   -3.4410152043    0.1974176696   -0.2582300841
 H   -2.1974029029    1.1620476183   -1.1075817036
 H   -1.6705728909   -1.4824803513   -0.5080450358