15

 O    0.0244771342   -0.0284156638    0.0369970571
 C    0.0103491478    1.1810979270    0.0851358722
 N   -1.0872710662    1.9955236753    0.1214363794
 C   -0.8092784516    3.4221570809    0.0255250166
 C    0.6949306439    3.5095074505    0.3878409457
 C    1.2147811461    2.1115899014    0.1103886508
 C    2.5538045164    1.5939602418    0.3886711069
 O    2.1556519594    1.9027311323   -0.9488587145
 H   -2.0088726514    1.6067973292   -0.0021098976
 H   -1.0007772595    3.8002836130   -0.9873075424
 H   -1.4334624587    3.9926343273    0.7196725920
 H    1.2269477402    4.2622040660   -0.1959053416
 H    0.8087683742    3.7506731084    1.4490742012
 H    3.3014303732    2.2583433455    0.8206003890
 H    2.6649609620    0.5330266953    0.6035991651