15

 C   -0.0351654281    1.3979966210    0.0104692714
 C    1.2781013625    1.8497187556    0.0000800836
 N    2.0957757320    0.7595056117   -0.0140158665
 C    3.4665711289    0.6505503828   -0.0280999212
 C    4.0243902013   -0.5886042788   -0.0404287471
 N    3.3035649147   -1.7547687295   -0.0397722299
 C    1.9981089919   -1.6412629791   -0.0262960399
 C    1.3070164455   -0.4095005054   -0.0127094859
 C   -0.0264061733   -0.0065816689    0.0025728067
 H   -0.9066084588    2.0353572902    0.0225598574
 H    1.6862746788    2.8475844545    0.0016068089
 H    4.0310516577    1.5737631121   -0.0285429376
 H    5.1039320784   -0.6884660088   -0.0515858111
 H    1.4133500846   -2.5592442262   -0.0256519416
 H   -0.8797501859   -0.6662670112    0.0072801427