23

 C    0.5224941890    1.4083771259   -0.3799185964
 C    0.0614368624    0.0159469946    0.0440928432
 C    0.1843857548   -1.0530305614   -1.0639941694
 C    1.5136964026   -1.7483317251   -0.7402258441
 O    2.6300224572   -1.0343416885   -1.2614237822
 C    1.5503976326   -1.6767549249    0.8036581613
 C    0.7678731681   -2.8483278427    1.4201235511
 C    2.9586288910   -1.6049047354    1.3905238852
 O    0.8839308939   -0.4429913494    1.1230660429
 H    1.5337685977    1.3580757668   -0.7917516953
 H   -0.1512545883    1.8271169875   -1.1359453512
 H    0.5296221632    2.0803041956    0.4829972909
 H   -0.9744339961    0.0743466174    0.4052763495
 H   -0.6404502873   -1.7696175331   -1.0142394256
 H    0.1821242641   -0.6215150452   -2.0695484925
 H    1.5353801515   -2.7910072905   -1.0862993403
 H    2.5370517960   -1.0029819465   -2.2183917264
 H    1.2916839375   -3.7980623868    1.2698844787
 H    0.6556638611   -2.6820343782    2.4949133532
 H   -0.2337821996   -2.9386933609    0.9890732159
 H    3.5031004134   -0.7586100620    0.9729047696
 H    2.8957555387   -1.4863658944    2.4761346161
 H    3.5174433464   -2.5208501930    1.1751786557