21

 C    0.0603341148    1.5232396308   -0.0129856976
 C   -0.0211722463    0.0168675476    0.0307218915
 C   -0.9097382400   -0.7011004758    1.0082983809
 C    0.5948503087   -0.8517669267    1.1202745612
 C    1.3413061850   -1.9680025536    0.3501472556
 C    0.3349721282   -2.8999088526   -0.3333890154
 O   -0.3107125447   -2.0417562004   -1.2985221970
 C    0.3724005713   -0.7775868473   -1.2420149023
 C    1.8173230825   -1.1861742632   -0.9047667181
 H    1.0130024560    1.8663908761   -0.4344339482
 H   -0.7439251448    1.9504730400   -0.6240259266
 H   -0.0264895722    1.9491404062    0.9919238885
 H   -1.3793028070   -0.0867800279    1.7711637260
 H   -1.5264311198   -1.5176364927    0.6554399516
 H    1.0923957711   -0.4108797844    1.9780096065
 H    2.1042873908   -2.4860488661    0.9317250406
 H    0.8314495033   -3.7311683099   -0.8516325912
 H   -0.4136735240   -3.3142820736    0.3500039852
 H    0.1907730125   -0.2533274128   -2.1813009632
 H    2.4600362419   -0.3376151711   -0.6594686470
 H    2.2894400728   -1.8049865124   -1.6742949008