19

 C    0.0238571671    1.4349542275    0.0860362183
 O    1.3162081200    1.9387799808   -0.2466463116
 C    2.2240004544    2.0925924359    0.8230928633
 C    2.4336233994    0.9347719509    1.7968169015
 N    1.3175813003    0.5866227099    2.6821257599
 C    1.8135135478   -0.4283169853    1.7491133489
 C    0.9002954217   -0.9331260172    0.6655389286
 N   -0.5563310232   -0.9310598568    0.9110697523
 C    0.0088378577   -0.0640874008   -0.1369062532
 H   -0.2496593166    1.6622559918    1.1196663242
 H   -0.6836819703    1.9310115113   -0.5874437295
 H    3.1839186322    2.3165668651    0.3442711533
 H    1.9489560309    2.9694884071    1.4340725400
 H    3.4254887013    0.9772482904    2.2495567039
 H    1.6281271319    0.3938766812    3.6292589524
 H    2.4258713975   -1.2210105080    2.1794421213
 H    1.3131420351   -1.7957890794    0.1452472548
 H   -0.9813907375   -1.7546318816    0.4926162389
 H   -0.1356110799   -0.3665013228   -1.1728751975