16

 C   -0.7280918891    1.2628463200   -0.9411595101
 N   -0.8215084121   -0.1001112500   -0.4548300456
 C   -0.3207946887   -0.4819300257    0.7429523265
 O    0.2381602320    0.2450609870    1.5455586090
 C   -0.5061344182   -1.9563995280    1.0768292018
 C   -1.5802118703   -2.2832799884    2.1320399572
 C   -2.2555986198   -3.0255606932    0.9807253264
 O   -3.2346087864   -3.6639176133    0.7840795255
 O   -1.2598830241   -2.7170142194    0.0696073693
 H   -1.7214397803    1.6812115574   -1.1344409950
 H   -0.2339500531    1.8539074479   -0.1691272477
 H   -0.1400269429    1.3143978576   -1.8636571860
 H   -1.2460111125   -0.8127363485   -1.0278997414
 H    0.4698421659   -2.4137048692    1.2478839540
 H   -1.2670691537   -2.9260536718    2.9555374790
 H   -2.1404857667   -1.4329001925    2.5226058771