25

 C   -0.0848767539    1.5606806986    0.1028256664
 C    0.0033003504    0.0336286199    0.0088465493
 C    0.7093146325   -0.4948081422   -1.2495448263
 C    0.8709893981   -2.0211794031   -1.2061446621
 C    1.6907689776   -2.5334348635   -2.3968578286
 C    1.2588367612   -1.9024859816   -3.6936736850
 C    0.4857107652   -0.8174519630   -3.7793900245
 C    0.0514323840   -0.2411339388   -5.1001672141
 C   -0.0122940508   -0.0913127234   -2.5478492459
 H    0.9100236085    2.0176787633    0.0503674774
 H   -0.6872839547    1.9858862175   -0.7059328943
 H   -0.5415526960    1.8695698150    1.0484011966
 H    0.5347771996   -0.3477014033    0.8904676371
 H   -1.0075830243   -0.3953276023    0.0571817504
 H    1.7184012953   -0.0551991034   -1.2800407334
 H    1.3406432426   -2.3265128094   -0.2637977755
 H   -0.1254187664   -2.4839305612   -1.2249749785
 H    2.7610067872   -2.3373998922   -2.2282603015
 H    1.6064800911   -3.6255484562   -2.4703645657
 H    1.6071202419   -2.3779449119   -4.6090626291
 H    0.4202064489   -0.8330194393   -5.9424039789
 H   -1.0435645433   -0.1951806226   -5.1710340439
 H    0.4110757299    0.7890635458   -5.2227314811
 H   -1.0949450810   -0.2688858111   -2.4383955676
 H    0.0829652265    0.9899554786   -2.7126936813