16

 C    0.1070248513    1.4390267469    0.3739003994
 C   -0.0109634928   -0.0282774228    0.0471677301
 C   -1.1907576110   -0.6908213922    0.1900058166
 C   -1.4862651815   -2.0610151476   -0.1372461909
 C   -0.6059289134   -3.0718141767   -0.3034626659
 C    0.8383661945   -2.9444219939   -0.0162114510
 O    1.4379250232   -3.7668028500    0.6407752590
 N    1.5028304918   -1.8794007303   -0.6287074051
 C    1.1553520293   -0.6474733120   -0.5668160315
 H    0.8384415035    1.6061528223    1.1734913052
 H    0.4539246398    2.0108187062   -0.4948943611
 H   -0.8489208928    1.8561048786    0.6981457407
 H   -2.0417092468   -0.1048126590    0.5308880144
 H   -2.5447923451   -2.2999879732   -0.2103870125
 H   -0.9588378430   -4.0762913549   -0.5169746540
 H    1.8270975029    0.0557257586   -1.0709587437