12

 O    0.0204835802   -0.0010849109    0.0559704893
 C   -0.0237434980    1.1919519117   -0.0291862248
 N   -1.1372802131    2.0051978046   -0.1275325935
 C   -0.8007275331    3.3904450081   -0.0297714430
 C   -0.0448207999    3.8343410315    1.2132677012
 C    0.7006753947    3.3522608162   -0.0037636028
 O    1.0950023912    1.9979885293   -0.0383712901
 H   -2.0254980296    1.6254417782    0.1556205363
 H   -1.3746520002    4.0872699974   -0.6287860469
 H   -0.0041071396    4.9002682414    1.4099798816
 H   -0.0718788798    3.1969399797    2.0904746673
 H    1.3477675373    3.9973805328   -0.5827787645