16

 O   -0.0825915283    1.3818686880    0.0010796408
 C   -0.0035939494   -0.0243074614    0.0276235099
 C    0.4550907094   -0.6369463126    1.4036160050
 C   -0.8728613879   -1.3412108479    1.7513821788
 C   -1.2584093320   -2.0739254307    0.4459656492
 C   -1.4551432739   -0.5971529502    0.0481645883
 O   -1.8531412757   -0.3108094306    1.4116806498
 C    0.7854703389   -0.5162083628   -1.1138045181
 N    1.4160254675   -0.8875039355   -2.0091245392
 H    0.8094431243    1.7437364509    0.0450711485
 H    1.3081344626   -1.3135300081    1.3225888856
 H    0.6824021685    0.1686468427    2.1042517068
 H   -0.9953038390   -1.7662685029    2.7465284598
 H   -0.5160033824   -2.6823806047   -0.0749679222
 H   -2.2144175882   -2.5890985820    0.5332249535
 H   -2.1338435543   -0.2341900320   -0.7212403366