15

 C   -0.2431093873    1.0481317875    0.5463751093
 N   -0.1035426537   -0.3451948303    0.1730427989
 C   -1.1167667895   -0.9343897525   -0.2944068834
 N   -1.0533950492   -2.2505425277   -0.7831581211
 C   -0.2010306457   -3.2170394296   -0.1379874186
 C   -1.7004382905   -3.3533501755   -0.0611881737
 C   -2.3649232055   -3.1060743922    1.1959072505
 N   -2.9275975227   -2.9082529969    2.1867335117
 H    0.4560038255    1.6542347542   -0.0408383894
 H   -1.2586468192    1.4487515930    0.4045070083
 H    0.0365828849    1.1690385815    1.5985232235
 H   -2.1062605364   -0.4788375442   -0.4258660593
 H    0.3428742755   -3.8892094749   -0.7942182118
 H    0.3203989955   -2.8942699643    0.7580779634
 H   -2.2040770918   -4.0789415481   -0.6934071082