23

 C   -0.0375605552    1.5914391972    0.0258293301
 C    0.0433239916    0.0828053217    0.0712928522
 C    1.3351994324   -0.6624049208   -0.1833245248
 O    2.5158185835    0.0950345888   -0.1285529346
 C    2.9788265530    0.1040184488    1.2336737694
 C    3.8628918740    1.3185761581    1.4498445825
 C    1.6967037459    0.0311205489    2.0923110720
 C    0.7094705964   -0.7170643779    1.1876638098
 C    0.0258143207   -1.9495770706    1.7322537663
 H    0.9414037527    2.0481060004    0.1845621010
 H   -0.3936853883    1.9219844775   -0.9556577704
 H   -0.7301980656    1.9831878990    0.7791159776
 H   -0.8350192318   -0.4183610360   -0.3324993803
 H    1.3747012310   -1.5152761220   -0.8565411109
 H    3.5695617494   -0.8118522072    1.4029971457
 H    3.2951204710    2.2436268652    1.3085873442
 H    4.2708252629    1.3148312485    2.4656756810
 H    4.6986589657    1.3169768399    0.7446191169
 H    1.8695361247   -0.5147349595    3.0245758547
 H    1.3472780166    1.0344986485    2.3600949938
 H   -0.6867413143   -1.6936385939    2.5256118407
 H   -0.5310506368   -2.4742574124    0.9491098808
 H    0.7519100106   -2.6551727321    2.1538106422