18

 N   -2.3253126466    0.5769138008   -1.8432893927
 C   -2.1266043153   -0.5994867472   -1.4347022994
 O   -1.4726102876   -0.8046030144   -0.2687971304
 C   -1.2054409493   -2.1468218490    0.0786526558
 C   -0.0065403811   -2.7454906768   -0.6480840138
 C    1.2477847636   -2.0606622442   -0.3539806680
 C    2.2788003064   -1.4975241372   -0.1046066301
 C   -1.4460761182   -2.4660326518    1.5174569799
 C   -2.3770880404   -3.0186134327    0.4556516358
 H   -2.8413642020    0.5555215391   -2.7203595000
 H   -2.4482685979   -1.5276887297   -1.9244104288
 H    0.0741964624   -3.8032407017   -0.3699949000
 H   -0.1914046591   -2.7298914834   -1.7305380488
 H    3.1868439180   -0.9919802325    0.1127113832
 H   -0.7560982321   -3.1406171256    2.0112936003
 H   -1.8187343063   -1.6578987828    2.1350360612
 H   -3.3657382797   -2.5796306885    0.3864618444
 H   -2.3335939350   -4.0762637924    0.2188954314