19

 C   -0.3458778421    1.7298943004    0.3317956218
 C    0.0298737871    0.2553105274    0.1276237539
 C    0.9569102826   -0.0161284994   -1.0805804573
 C    1.9064403026   -1.0708127368   -0.5730821630
 C    1.7853122247   -1.2860929173    0.7364708703
 C    0.7867759499   -0.3545620212    1.3755317932
 O    1.4174585622    0.6049869009    2.2183410934
 C   -1.2714032716   -0.5284447256   -0.0126460870
 O   -1.5936914700   -1.2155291045   -0.9460510249
 H    0.5400484655    2.3186763736    0.5781407504
 H   -0.8011008145    2.1425682928   -0.5740583802
 H   -1.0539662755    1.8519791732    1.1579489685
 H    0.3744622138   -0.3673984021   -1.9379897313
 H    1.4931416867    0.8862361080   -1.4018457919
 H    2.6022912610   -1.5855580419   -1.2272158733
 H    2.3672028567   -1.9847730734    1.3266451293
 H    0.0818419452   -0.8657665766    2.0422217344
 H    2.2241858520    0.8895680282    1.7741354445
 H   -1.9484111761   -0.4086100456    0.8661392191