19

 O   -0.6101548113    1.3998529120    0.3046346044
 C   -0.1631541914    0.0856136754    0.0760185500
 C    0.3785657745   -0.7216205932    1.2948517610
 C   -0.7392792014   -1.7846211465    1.0912218766
 C   -1.3404452012   -0.9324721357   -0.0753240770
 O   -2.6157545724   -0.4844981377    0.3404607494
 C   -2.6379414541   -0.5098557113    1.7708157719
 C   -1.8717933867   -1.7906822765    2.1310547405
 O   -2.6923970982   -2.9415061307    1.9985683684
 H    0.1620996658    1.9588431692    0.4385288550
 H    0.5165338423    0.0372444283   -0.7869177612
 H    1.3999034725   -1.0951769087    1.1912028357
 H    0.3018182449   -0.1718851167    2.2381011265
 H   -0.4067645271   -2.7977933078    0.8680177916
 H   -1.4504135582   -1.3699833242   -1.0694679110
 H   -2.1570843129    0.3877196712    2.1800144329
 H   -3.6805815905   -0.5444600469    2.0948595491
 H   -1.5016127073   -1.7907400109    3.1600665121
 H   -3.1596972772   -2.8555932394    1.1591094839