19

 O    0.3909776191    1.1955620812   -0.0091781346
 C    0.0607057164   -0.1601492833    0.0678226952
 C   -1.3987630985   -0.5626626309    0.1649006691
 C   -2.4525542200    0.5312948094    0.2259660007
 C   -3.4939978459    0.5274436358   -0.8634905871
 C   -3.2510433108    0.4999169348   -2.1815133567
 C   -1.9540576675    0.4090210491   -2.8457503734
 C   -0.8188474150   -0.1449096411   -2.3873157851
 C   -0.6112300174   -0.8508847897   -1.1004211866
 H    0.3387446553    1.4655657824   -0.9332707240
 H    0.7946687985   -0.7238903141    0.6369174850
 H   -1.6141386262   -1.4362518126    0.7726259976
 H   -2.9461315824    0.4811497870    1.2013532538
 H   -1.9325522183    1.4994042646    0.2068040132
 H   -4.5294375053    0.6208223543   -0.5439975406
 H   -4.1017975665    0.5906046064   -2.8540002228
 H   -1.9304775597    0.8110071550   -3.8576884722
 H    0.0390155013   -0.1582260828   -3.0599980796
 H   -0.3042037271   -1.8876195355   -1.2333750121