16

 C   -0.8546311709    1.6464367412   -0.2540049980
 C    0.1220504359    0.4788760825   -0.1291727234
 C   -0.5607122328   -0.7953389363    0.3513635973
 O   -0.0014055625   -1.8543698164    0.5151421918
 C    0.9319265474    0.2811078275   -1.4395166386
 O    0.8536265420    1.0622933242   -2.3502826920
 N    1.7575045028   -0.8390195105   -1.4146094107
 C    2.6630726592   -1.2413578561   -2.3950441773
 O    2.9483053389   -0.6442580117   -3.3950282682
 H   -0.3283811486    2.5569514891   -0.5408735502
 H   -1.6050314287    1.4467219217   -1.0239907879
 H   -1.3676976675    1.8196071955    0.6967011802
 H    0.8778841663    0.6981426724    0.6405561711
 H   -1.6454545024   -0.6929158609    0.5641449772
 H    1.6058969809   -1.4752633357   -0.6372078177
 H    3.1116863601   -2.2157421264   -2.1153488034