18

 C    0.0182476819    1.5012267213   -0.0451748218
 C    0.0172414514   -0.0149125985   -0.0196096043
 C    1.3417354506   -0.7371685724   -0.1979195166
 C    0.6848657040   -0.7139050333    1.1522727841
 C   -1.1901434021   -0.6511137049   -0.5960685825
 N   -1.3540579013   -1.9788402755   -0.6532196457
 N   -2.5416560973   -2.1204024957   -1.2285450767
 N   -3.1799883893   -1.0100844133   -1.5579068635
 C   -2.3353744462   -0.0550383567   -1.1632718670
 H    0.9398601973    1.8908906577    0.3959491804
 H   -0.0481742573    1.8851520910   -1.0695618938
 H   -0.8228189489    1.9125334086    0.5245836087
 H    1.3231427212   -1.6682799365   -0.7519542918
 H    2.2240144880   -0.1255675970   -0.3554840552
 H    1.1139251338   -0.0862890421    1.9264152497
 H    0.2249444871   -1.6294055671    1.5052620899
 H   -2.9361678402   -3.0299314201   -1.4049759189
 H   -2.5792739928    0.9856299147   -1.2995576651