22

 C   -0.1413902816    1.5289057549   -0.0010936416
 C    0.0527239215    0.0288458436    0.0247573924
 C    1.3964595057   -0.6072700274   -0.2427067084
 C    0.7883377138   -0.6933231564    1.1364034553
 C    1.4317792689    0.0441126539    2.2950497569
 N    0.2175725826   -1.9700599517    1.4949410523
 C    0.9789294194   -3.0672733956    1.7993604942
 C    0.1920344721   -4.2788362366    2.2823875031
 O    2.1918343814   -3.0768892510    1.6989701625
 H    0.7455113949    2.0629870505    0.3500378394
 H   -0.3421420225    1.8693968829   -1.0227155708
 H   -0.9864991352    1.8394831345    0.6238805724
 H   -0.7943031224   -0.5290504940   -0.3692928140
 H    1.4406338058   -1.5140979952   -0.8326003007
 H    2.2531323869    0.0487024072   -0.3596603179
 H    1.8758782362    0.9903566929    1.9772958480
 H    0.7002619020    0.2603594922    3.0822890552
 H    2.2259429685   -0.5759324235    2.7197218965
 H   -0.7672898318   -1.9987703515    1.7068839803
 H   -0.8652009875   -4.2503100183    2.0044328675
 H    0.6518422426   -5.1787905308    1.8705948477
 H    0.2624388287   -4.3408987605    3.3733327096