22

 C   -0.0258569194    1.5604550385   -0.0413717615
 C    0.0596521225    0.0315656664   -0.0057654269
 C    0.6736233674   -0.5347622133   -1.2987892692
 C    0.9398241723   -2.0139696075   -1.2107144629
 C    0.9191606682   -2.6920421880   -0.0638057951
 C    0.6429925455   -2.0545447809    1.2748097561
 C    0.7905468249   -0.5189353318    1.2430813201
 C    2.2692423554   -0.1074713498    1.3305311138
 H    0.9622342399    2.0208821941   -0.1467543274
 H   -0.6337836838    1.8970772652   -0.8882777486
 H   -0.4824167780    1.9544706032    0.8732813834
 H   -0.9687804910   -0.3533511704    0.0524502106
 H    0.0030881144   -0.3275294446   -2.1436170462
 H    1.6072580525   -0.0028367723   -1.5397206329
 H    1.1589196693   -2.5325707484   -2.1415376305
 H    1.1037388630   -3.7640731368   -0.0690852129
 H   -0.3712641815   -2.3268083099    1.6030797258
 H    1.3156955699   -2.4790309747    2.0317178783
 H    0.2824896857   -0.1115959505    2.1273805021
 H    2.8569848982   -0.5351938720    0.5123079282
 H    2.3942226118    0.9789661279    1.3055934286
 H    2.7069428029   -0.4648092545    2.2685640670