23

 C   -0.0770093283    1.6091772845    0.0166992770
 C   -0.0146021293    0.0787997103    0.0411025184
 C    0.6387429345   -0.5433084983   -1.2190188716
 C    1.2630746560   -1.8784721159   -0.7558158806
 C    1.5245924349   -1.7441976089    0.7453565456
 C    1.6336391602   -3.0146055706    1.5569069893
 C    2.2637931945   -0.5043735746    1.2004503500
 O    2.9487616389    0.3511243997    0.3245694750
 C    0.7604185421   -0.5105861014    1.2175169700
 H    0.9296041616    2.0327011294   -0.0402616320
 H   -0.6498126822    1.9649562307   -0.8470962871
 H   -0.5604874117    2.0020329676    0.9178484907
 H   -1.0410586718   -0.3058737143    0.1247658799
 H   -0.0877064217   -0.6857383631   -2.0248724641
 H    1.4169061840    0.1258759980   -1.5898357189
 H    0.5608225539   -2.7084002228   -0.9048840099
 H    2.1673374994   -2.1323085645   -1.3226832920
 H    2.4702475491   -3.6373648919    1.2161731720
 H    1.7928053816   -2.8010936344    2.6188663668
 H    0.7212716214   -3.6175881024    1.4736623780
 H    2.7344442842   -0.5852314369    2.1820909035
 H    3.7533399136   -0.0960263043    0.0415648914
 H    0.2813565852   -0.4888855561    2.1925167884