17

 O   -0.0780135399    1.3276987589   -0.0185037636
 C   -0.0481300513   -0.0370092461   -0.0236581414
 C    0.8851222838   -0.9989561948   -0.8555257101
 N    1.9599702156   -0.9220546181    0.1893133056
 C    0.6836597540   -1.0193943195    0.9718308294
 C   -0.0644166863   -1.9501117726   -0.0496050391
 C   -1.2332673927   -0.9713500679   -0.1720158684
 N   -2.5039181005   -0.9090776721    0.5225183664
 C   -2.4675513807   -0.9565993131   -0.9691703388
 H    0.8291399224    1.6377136999    0.0995661829
 H    1.0795689329   -0.9934014670   -1.9283661160
 H    2.4762658056   -1.8044904747    0.2362972839
 H    0.6406081809   -1.0380550808    2.0609508125
 H   -0.0582613366   -3.0386419995   -0.0639014025
 H   -2.7559630983   -1.8237998315    0.8906247831
 H   -2.8002249975   -0.0428969298   -1.4536039456
 H   -2.7751594612   -1.8736155811   -1.4661300482