20

 C    0.1749128096    1.4154036339    0.0209568201
 C    0.0541056327   -0.0727745690   -0.0931687353
 C    0.7289822651   -1.0501588139   -1.0940428545
 C    0.0549728137   -1.8670982441    0.0288654542
 O    0.6280009052   -0.9089552128    1.0008446578
 C   -1.2341670209   -0.9845921357   -0.0514590295
 C   -2.0616848598   -0.9004398144    1.2292918854
 C   -2.1541196070   -1.0682604543   -1.2682909463
 H    1.2258171852    1.7109543558    0.0963913254
 H   -0.2574225762    1.8990368087   -0.8609637415
 H   -0.3518472497    1.7801902554    0.9081655238
 H    0.3630511866   -1.1198177900   -2.1186479052
 H    1.8183471800   -1.0471672526   -1.0422187379
 H    0.1511139603   -2.9284232849    0.2639104603
 H   -1.4216590825   -0.8443794482    2.1093544941
 H   -2.7134001662   -0.0189126227    1.2104344915
 H   -2.7126205482   -1.7773925813    1.3232569843
 H   -2.8016579562   -1.9491189477   -1.1908889317
 H   -2.8118444674   -0.1921227472   -1.3037865492
 H   -1.6309768843   -1.1270371150   -2.2236377059