18

 C   -0.0096008252    1.6100969130   -0.0054626718
 C    0.0028460671    0.0796889160    0.0759845593
 C    0.7067345023   -0.6135646302   -1.1555697177
 C    1.5716144186   -1.8237535588   -0.6456810762
 C    1.6564385679   -1.5130644599    0.8156848720
 C    0.8271356724   -0.5141287737    1.1648316124
 O    0.9073592611   -0.3257075684    2.5116364444
 C    1.8271295624   -1.2639179467    2.8951361936
 N    2.3048366016   -2.0014079468    1.9413576900
 H    1.0093330511    2.0043567702   -0.0780158750
 H   -0.5685638301    1.9448746477   -0.8852250602
 H   -0.4805580771    2.0489962206    0.8795208769
 H   -1.0373838143   -0.2683704801    0.1545977385
 H   -0.0217644301   -0.9186720626   -1.9104853563
 H    1.3672504542    0.1220398537   -1.6253873473
 H    1.0736320526   -2.7840509760   -0.8276935969
 H    2.5415272417   -1.8697190275   -1.1505280230
 H    2.0675442339   -1.2904376105    3.9464332872