17

 C    0.0770693650    1.5619881622   -0.0851440189
 C    0.0735340327    0.0474329951    0.0183082710
 O    0.7167741796   -0.4778205524   -1.1361854954
 C    0.6600046822   -1.8820368053   -1.2002130239
 C    1.2464297317   -2.5606810314    0.0303690346
 O    1.6418760407   -3.7034811259    0.0442702372
 N    1.2800020198   -1.7564441941    1.1575520025
 C    0.7607881168   -0.4644770684    1.2813858072
 N    0.7973049612    0.2416747905    2.3364597646
 H    1.1031568253    1.9312881013   -0.1541225319
 H   -0.4705533454    1.8680153017   -0.9795213430
 H   -0.3870544164    1.9983717852    0.7995404058
 H   -0.9682852080   -0.3215699540    0.0483825439
 H   -0.3759219083   -2.2430596897   -1.3243181955
 H    1.2352773558   -2.2037450069   -2.0703254799
 H    1.7013462871   -2.1858563085    1.9726734112
 H    1.2527701702   -0.2451934094    3.1113921104