14

 C   -0.0679437479    1.4426577200    0.1048781301
 N   -0.0279461843   -0.0083608616    0.0569753773
 C    0.5318260376   -0.5787665110   -0.9237151617
 N    1.1486980306    0.0215981087   -2.0232444646
 N    1.7411004209   -0.6098469072   -3.0628466652
 N    1.7794525597   -1.8642012981   -3.1123455629
 C    1.1918157809   -2.6568130845   -2.0603033878
 O    1.2261047677   -3.8577290482   -2.1030773627
 N    0.6010075921   -1.9576214370   -1.0247601600
 H    0.9358257428    1.8937647926    0.1380711625
 H   -0.6088249738    1.8812617372   -0.7479843908
 H   -0.5908531505    1.7522083303    1.0120101360
 H    1.1821871008    1.0251301500   -2.0973259183
 H    0.1809869335   -2.4899828711   -0.2742208220