17

 O    0.0101654907    1.4033658062    0.0600093212
 C   -0.0175670840   -0.0075224755   -0.0315865909
 C   -1.4170494795   -0.5326167190    0.0816802881
 O   -2.3289962321    0.0753800785   -0.8812972655
 C   -3.3794854982   -0.3509317180    0.0177872756
 C   -3.3035687635   -1.8997541436    0.1252565112
 C   -2.5757798243   -1.8669940466    1.4497029779
 C   -1.7812870725   -2.0393966368    0.1742973765
 C   -2.4325618690   -0.3266457525    1.2565928437
 H   -0.7049543229    1.7162350066   -0.5076760205
 H    0.4205003298   -0.3635470229   -0.9799237863
 H    0.5956054143   -0.4034932254    0.7849864020
 H   -4.3254994706    0.1711265265   -0.1132552379
 H   -3.9510415376   -2.6583097066   -0.2919734430
 H   -2.6608359311   -2.4954823784    2.3233142705
 H   -1.2542588706   -2.9033387251   -0.2072139969
 H   -2.3704649188    0.4648995024    1.9977538644