20

 C   -0.0706588269    1.4197592030   -0.3279140023
 N    0.0451670421    0.0928653544    0.2524789823
 C   -1.2163283785   -0.6402302914    0.3677699193
 C   -1.0922858973   -1.8212783073    1.3231849517
 C    0.0929610769   -2.7161870370    0.9541360253
 O    0.0937859284   -3.9101600965    1.2055880858
 C    1.2106535244   -2.0018077065    0.3698785173
 C    1.1840418933   -0.6622886788    0.0996414433
 C    2.4339185962    0.0374043130   -0.3648072220
 H    0.8419701756    1.9963557016   -0.1772345160
 H   -0.2914247716    1.3948578008   -1.4073486996
 H   -0.8863719293    1.9529364488    0.1680875874
 H   -1.9869055267    0.0575458837    0.7092988460
 H   -1.5202481181   -1.0022347353   -0.6301503028
 H   -0.9273876755   -1.4578429492    2.3465561202
 H   -2.0082934316   -2.4163746137    1.3284611741
 H    2.1299249289   -2.5543951540    0.2210075562
 H    3.2582993573   -0.6741547098   -0.4133945634
 H    2.3088243016    0.4880991101   -1.3555215416
 H    2.7195630206    0.8402854840    0.3244234988