16

 O   -0.3263266791    0.0092797285    0.4886229874
 C   -0.1167043787    1.1036816398    0.0635119515
 C   -1.1369643604    2.0881814265   -0.4569917340
 C   -1.0403403450    3.4605454473    0.1655314161
 C   -0.4898764556    3.7664369374    1.3408133349
 C    0.1531356456    2.8007922170    2.3158584109
 N    1.5793797349    2.5622792655    2.0455682731
 C    1.9450858727    2.0208085863    0.9727101163
 O    1.1880032663    1.5806316564   -0.0902060616
 H   -0.9652966334    2.1824509088   -1.5375194498
 H   -2.1306467241    1.6459262604   -0.3317036559
 H   -1.4616317972    4.2624237171   -0.4355084107
 H   -0.4689548710    4.8122367084    1.6358535036
 H    0.0883832031    3.2194403731    3.3231245179
 H   -0.3950250837    1.8518344576    2.3447377026
 H    2.9986132856    1.8828428100    0.7430102179