16

 N   -0.0457162928    1.5131524873   -1.3472479130
 C   -0.2512356393    0.7097830238   -0.1446901142
 C   -1.7331620987    0.7823370783    0.2513660131
 O   -1.9150334469    0.0570563870    1.4627121984
 C   -2.9913710205   -0.7861107864    1.5093481547
 N   -3.0221801791   -1.4081518781    2.7207727159
 O   -3.8004152396   -0.9209497881    0.6246241552
 C    0.1868563711   -0.6977249807   -0.2786000747
 N    0.5489459548   -1.7850100932   -0.4314693075
 H    0.9439040331    1.5760806208   -1.5632280177
 H   -0.4890456751    1.0657637264   -2.1448780114
 H    0.3371685945    1.1551397469    0.6654563281
 H   -1.9955546116    1.8322534384    0.4083553002
 H   -2.3757854829    0.3634986731   -0.5265459526
 H   -2.1892751518   -1.4089859833    3.2849897921
 H   -3.6454796753   -2.1934154221    2.7985075334