21

 C   -0.0588026574    1.5960298323   -0.1097412415
 C    0.0462218458    0.0600284345   -0.0110014491
 C    0.6804914332   -0.4883195535   -1.2083499221
 C    1.2008128502   -0.9331979547   -2.1963311890
 C    0.7898027740   -0.4234551251    1.2700152784
 O    2.1132063883    0.0901385188    1.3427446348
 C   -0.0009346775   -0.1444781597    2.5531124303
 C    0.6402695852   -0.7784256470    3.7819755706
 O   -0.1468185035   -0.4230704941    4.9096579782
 H    0.9356313089    2.0483670409   -0.1701722837
 H   -0.6006030163    1.8802649708   -1.0146379256
 H   -0.5895680437    2.0157333053    0.7495279572
 H   -0.9723207578   -0.3480525827    0.0484942834
 H    1.6627163901   -1.3310182731   -3.0655577344
 H    0.9253215844   -1.5064672998    1.1688471126
 H    2.0564899452    1.0340132856    1.5272025466
 H   -0.0829669297    0.9363728096    2.7255878139
 H   -1.0243965167   -0.5242284000    2.4510340923
 H    0.6826860746   -1.8725037969    3.6527299893
 H    1.6751019050   -0.4215290703    3.8797043600
 H    0.2714651876   -0.7901468209    5.6937650078