17

 O   -0.1014932690    1.4548384470    0.0502447821
 C    0.0043329359    0.0405741534    0.0781070260
 C   -1.3944409493   -0.5373530038   -0.1013824157
 C   -1.4155364177   -2.0589989508   -0.0784231609
 C   -1.2401221093   -2.7772258273    1.2816244053
 O   -2.4971394509   -3.4661665809    1.1343584762
 C   -2.7948072086   -2.7566667794   -0.0851819872
 H    0.7766370456    1.8260692408    0.1752179461
 H    0.6630708760   -0.3276077838   -0.7260352141
 H    0.4329381246   -0.3082652974    1.0324992771
 H   -2.0418730216   -0.1411744897    0.6908807267
 H   -1.8016921640   -0.1711439633   -1.0519783021
 H   -0.7464554039   -2.4601536729   -0.8461141680
 H   -0.3979607005   -3.4742652723    1.3686839815
 H   -1.2383180198   -2.1095760698    2.1554272151
 H   -3.6502821620   -2.0770552500    0.0334114092
 H   -2.9974744856   -3.4392148099   -0.9191180771