16

 O    0.0299202675   -0.0265079458   -0.1794132025
 C    0.0263214806    1.1643154054   -0.2323327608
 O    1.0180640329    1.9188769539    0.2895276335
 C    0.9334478039    3.3426109927    0.1703614977
 C    1.0499246016    3.9359840138    1.5719149507
 O    1.0986478038    5.3645218064    1.5114403636
 C    1.7940793429    5.8869419083    0.4687705506
 N    2.2825117985    5.3081347964   -0.5421783713
 C    2.0771039315    3.8716390843   -0.6941907002
 H   -0.7707673396    1.7721154210   -0.7030483387
 H   -0.0335487069    3.6250370819   -0.2658690350
 H    0.1901389954    3.6782573138    2.1937442298
 H    1.9588252590    3.5575081017    2.0548998053
 H    1.8923732052    6.9626339865    0.5976300715
 H    2.9993217174    3.3388771863   -0.4307764422
 H    1.8870196663    3.6587528633   -1.7517049120