16

 C    0.0613132899    1.4718134630   -0.1400853015
 N   -0.0085012090    0.0155058144    0.0277554135
 C   -1.1562186164   -0.5816585038    0.8267589061
 C   -0.2518809810   -1.8289693775    1.0085683964
 C    0.7072803631   -0.6204905672    1.1989967312
 C    2.1774799106   -0.5882548079    1.3890945221
 O    2.9191388076    0.1453746579    0.7821523664
 C   -0.4669379237    0.0192682024    2.0705404346
 O   -0.6397253465    0.7623790332    2.9779432185
 H    1.0613621481    1.7171235319   -0.5010140469
 H   -0.6701334947    1.7612068379   -0.8999442949
 H   -0.1343024099    2.0496204051    0.7753252615
 H   -2.1876640841   -0.5249246356    0.4839745312
 H   -0.4400667965   -2.4725855449    1.8681545657
 H   -0.0746101495   -2.3707722203    0.0786049938
 H    2.5531991120   -1.2836777886    2.1715846724