16

 N    0.0032927767    1.3460974595    0.0094295358
 C    1.1392211737    2.0851630703    0.0028426475
 C    2.3726391268    1.4725833391   -0.0124732009
 C    2.4644451650    0.0654670644   -0.0214706972
 C    1.3195735874   -0.7033469819   -0.0149763456
 C    1.0360703546   -2.0934353727   -0.0203575053
 C   -0.3444624971   -2.2330459112   -0.0078713798
 C   -0.9953559284   -0.9602810173    0.0056998096
 C    0.0134387668   -0.0213230009    0.0014441249
 H   -0.8864004707    1.8233568242    0.0206929045
 H    1.0062692068    3.1586808011    0.0103084063
 H    3.2628409909    2.0877886159   -0.0174350484
 H    3.4437725549   -0.4043921862   -0.0335625404
 H    1.7680369807   -2.8876177507   -0.0319959561
 H   -0.8728988566   -3.1788889478   -0.0082644175
 H   -2.0610766915   -0.7830844660    0.0169373025