19

 C   -0.2760643472    1.5311255291    0.0887332855
 C    0.0689552774    0.0560398549    0.0371725025
 C    1.1530675882   -0.4851139234   -0.9694862610
 C    1.8866407070    0.4574875332   -1.7989759930
 N    2.4654133202    1.2327290338   -2.4332573419
 C    1.8731563005   -1.0461743865    0.2730339390
 C    2.4556794929   -2.4248359194    0.3422002810
 C    2.1586014977    0.0448835625    1.2219661901
 N    0.7972612039   -0.5349042130    1.2154064352
 H    0.6070465329    2.1728484230    0.1354860516
 H   -0.8430824020    1.8179593615   -0.8024333553
 H   -0.8958418651    1.7307858979    0.9684596169
 H   -0.8461996701   -0.5273760812   -0.0894706475
 H    0.7447012229   -1.2752652604   -1.6037044148
 H    3.3813813236   -2.4834818203   -0.2415983716
 H    2.6881535775   -2.6890700152    1.3773853392
 H    1.7583840374   -3.1723070629   -0.0513827198
 H    2.7111009427   -0.2158066339    2.1191277649
 H    2.3282925195    1.0586602803    0.8709756890