14

 O   -0.1051103980    0.0566355552    0.3658561690
 C   -0.0797077178    1.2369039331    0.1734083207
 C   -1.3118151719    2.1122042751   -0.0951337081
 N   -0.7784707036    3.4553279824   -0.0718964808
 C    0.5693514822    3.5856595838    0.1318707145
 O    1.1740721421    4.6219664730    0.2435246516
 C    1.1625104535    2.1533967450    0.1498556007
 C    2.1236865312    1.9013697040    1.2020402881
 C    2.9032681474    1.6833910952    2.0881195268
 H   -1.7539655114    1.8392568831   -1.0627632260
 H   -2.0646405242    1.9297203516    0.6812004394
 H   -1.3521915056    4.2826527412   -0.1246744907
 H    1.6360658718    2.0070611532   -0.8337557322
 H    3.5993128142    1.4966259840    2.8681474069