21

 C    0.0111500882    1.3384667853   -0.2049941060
 O   -0.0224488574   -0.0677592510   -0.2138174663
 C   -1.2951148985   -0.5880643660    0.1006286015
 C   -1.2238997436   -2.1080192231    0.0419777462
 C   -2.5531454597   -2.7650531989    0.4211865392
 N   -2.4802977782   -4.2145996532    0.3578313821
 C   -3.4863386571   -4.9554822227   -0.2203106085
 N   -3.3371563424   -6.3303337907   -0.0471206450
 O   -4.4330966327   -4.4700160015   -0.8113083255
 H    1.0296793785    1.6440643794   -0.4568457317
 H   -0.6822987162    1.7696839282   -0.9447200929
 H   -0.2482614503    1.7487437962    0.7843874137
 H   -1.6081886485   -0.2540060086    1.1062472354
 H   -2.0521372525   -0.2116294762   -0.6095051782
 H   -0.9357496506   -2.4187991051   -0.9677095498
 H   -0.4270257596   -2.4432884021    0.7180198569
 H   -2.8617917228   -2.4362181931    1.4249334296
 H   -3.3487323989   -2.4746505993   -0.2690099778
 H   -1.8859753964   -4.6762206371    1.0279947243
 H   -2.3948634870   -6.6914855705   -0.0147208954
 H   -3.9455022444   -6.8526601299   -0.6598738417