21

 O   -0.3937475109    1.2789072388    0.0120994178
 C   -0.1240488798   -0.1178794582    0.0722705087
 C    0.6290367838   -0.5960065055   -1.1795373250
 C   -0.1351745377   -0.3011277010   -2.4806713970
 C    0.7124771916   -0.5485782458   -3.7040444470
 O    0.4250481493   -1.2815513686   -4.6148465094
 C    0.5998809332   -0.5205152428    1.3498015360
 C    1.6334445764    0.3725727924    1.9928621117
 C    0.2941734065    0.1579154332    2.6561054514
 H    0.4500675447    1.7381507880   -0.0674245269
 H   -1.1194787493   -0.5811680132    0.0796876541
 H    1.6149501866   -0.1085017825   -1.2017043586
 H    0.8211831015   -1.6720016426   -1.0941991914
 H   -1.0474019053   -0.9001152914   -2.5564329803
 H   -0.4226764441    0.7591895262   -2.4740360824
 H    1.6759913020    0.0169888440   -3.7101005137
 H    0.8051271823   -1.5868468117    1.3999053562
 H    2.5134423782   -0.0912097690    2.4238807759
 H    1.8235023244    1.3525767475    1.5661073052
 H   -0.4049188832    0.9857398728    2.6240637997
 H    0.2509495196   -0.4453539304    3.5557853752