21

 C    0.3121364826    1.2719236269    0.4540211999
 O    0.0362832818   -0.0894872842    0.1716167654
 C   -1.2949238181   -0.3561628308   -0.1089193436
 C   -1.3785517788   -1.8130247190   -0.5763983766
 O   -2.6616598682   -2.0909773213   -1.1007762140
 C   -3.6120372987   -2.6170113417   -0.1903829502
 C   -3.8337161679   -1.7763885690    1.0870874043
 C   -3.4545072263   -0.2981284764    0.9459244136
 O   -2.0527738374   -0.0983497893    1.0572975655
 H    1.3926593522    1.3531572318    0.5895584280
 H    0.0061206147    1.9190399020   -0.3817410413
 H   -0.1975479625    1.6050003706    1.3639679632
 H   -1.6709609580    0.2937595569   -0.9249665849
 H   -0.6560716594   -1.9544634773   -1.3863865617
 H   -1.1072273535   -2.4832628693    0.2506162424
 H   -4.5381736021   -2.6684149853   -0.7712954077
 H   -3.3423434084   -3.6480020248    0.0875022896
 H   -4.8881561952   -1.8569703903    1.3776344368
 H   -3.2477157494   -2.1751687909    1.9217653880
 H   -3.8350645699    0.1224680395    0.0030649707
 H   -3.8946537274    0.2709390417    1.7704947927