16

 O   -0.0498981507   -0.0399867562   -0.1368289664
 C    0.0190755691    1.1689778566   -0.1048054387
 N    1.1814321142    1.8807980607    0.0127862907
 C    2.4554886103    1.3119828710    0.1742719146
 C    3.4032339724    2.2275048991    0.3998452014
 C    2.7952177221    3.6038318770    0.3878795947
 O    2.9584477056    4.3442960650   -0.8514752739
 C    1.5990119654    4.0707830034   -1.2522920323
 C    1.2966204051    3.3343044282    0.0708554433
 H   -0.8629101267    1.8347926835   -0.1702239794
 H    2.5262177354    0.2356795430    0.1169538952
 H    4.4497832417    2.0194461520    0.5655448013
 H    3.0643067069    4.2295963163    1.2450675422
 H    1.0307104140    4.9938347285   -1.4172831866
 H    1.5398969291    3.4395022943   -2.1467588773
 H    0.5290049061    3.7753798275    0.7067936211