19

 O    0.1176327232    1.3231854438    0.3344346170
 C    0.0208893249   -0.0750585823    0.0766831471
 C   -1.4737363132   -0.3866975787    0.0625465123
 C   -1.8299548916   -1.8559707264    0.2877653159
 C   -1.2554070148   -2.8923138441   -0.6340879594
 C   -0.1736756328   -2.8870069690   -1.4255716797
 C    0.8678771514   -1.8609776287   -1.6682604844
 O    1.8743476992   -2.1972984622   -2.2668587293
 C    0.7173188115   -0.4033555195   -1.2480901260
 H    1.0452131071    1.5753709077    0.2808632693
 H    0.5003171643   -0.6408049565    0.8941795172
 H   -1.9372189339    0.2076780371    0.8560603334
 H   -1.9013924296   -0.0346950958   -0.8839521649
 H   -1.5513571080   -2.1470935365    1.3133017401
 H   -2.9221601848   -1.9580351102    0.2621697863
 H   -1.8067483574   -3.8322747086   -0.6075300238
 H    0.0646189621   -3.8017642073   -1.9626823263
 H    0.1720718557    0.1121684519   -2.0512137739
 H    1.7339751766    0.0045039352   -1.2513801409