15

 O   -0.4580179755    0.2184348455    0.2257680463
 C   -0.1425446162    1.3162524089   -0.0932471177
 O   -0.8639383546    2.2112629891   -0.8609494450
 C    0.2083790632    3.2024424156   -0.8117391050
 C    0.0114049495    4.2008771525    0.3435027789
 C    0.8771653451    3.2760210299    1.2789332953
 C    0.2970894797    2.7985652457    2.5149840808
 C   -0.2053344135    2.4031070851    3.5326848441
 C    1.0447117353    2.2591086502    0.0849385699
 H    0.4821974237    3.5408556515   -1.8089762204
 H    0.4649143177    5.1794764380    0.1765158377
 H   -1.0297963608    4.3250055737    0.6416009981
 H    1.8441109277    3.7462517521    1.4786080421
 H   -0.6465089827    2.0432059407    4.4291361059
 H    2.0384514715    1.8696910916   -0.1226793112