19

 C   -0.4917392748   -0.9514638819    3.4086016972
 C   -0.2811358803   -0.8528810393    1.9152674771
 C    0.8591750871   -0.1040518050    1.3581024288
 O    0.8833581398   -1.5303118177    1.4193896939
 C   -1.4939710709   -1.0837317432    1.0351412525
 O   -2.7780922264   -1.1099901823    1.6603941003
 C   -2.5077530448   -0.0663468779    0.7075255428
 C   -2.5088240716    1.3339717548    1.2666556715
 O   -3.8210424348    1.7467171770    1.6059870444
 H    0.4623588121   -0.8293568820    3.9266992123
 H   -1.1917011444   -0.1915191157    3.7644947438
 H   -0.9093696100   -1.9286596618    3.6686491036
 H    0.7908123438    0.3192312732    0.3562686750
 H    1.5476470305    0.4083378500    2.0297124528
 H   -1.3289169245   -1.8799834573    0.3080902449
 H   -3.0609425125   -0.1802487780   -0.2260523262
 H   -1.8274198193    1.4013605142    2.1263277979
 H   -2.1527208348    2.0362597423    0.5048636632
 H   -4.1681557141    1.0913971807    2.2219838642