21

 C    0.5741666995    1.3500966769    0.0382507560
 C   -0.0815464458   -0.0321522219   -0.0465210781
 O   -1.5028549211    0.1373793470   -0.1040080410
 C    0.4363878261   -0.8704000454   -1.2651418309
 C    1.3499737388   -1.9469988427   -0.7103009050
 C    2.5071834344   -1.5243896329    0.1810338953
 C    1.2185022310   -1.9613885059    0.8010069395
 O    1.2876391843   -3.1296260466    1.5613565291
 C    0.1980947298   -0.9086338281    1.2021152567
 H    1.6607637563    1.2869083330    0.1405722872
 H    0.3673677764    1.9289386057   -0.8708324522
 H    0.1777732900    1.9019079611    0.8956727324
 H   -1.6969723589    0.7489916505   -0.8225960138
 H   -0.4339558532   -1.3337434269   -1.7414426069
 H    0.9222168140   -0.2339116363   -2.0151385438
 H    1.4665361808   -2.8746945242   -1.2595437854
 H    3.3173415524   -2.2400563029    0.2660573194
 H    2.8208519521   -0.4869264923    0.2249932010
 H    0.4239256879   -3.5567961567    1.5266332682
 H    0.5094348105   -0.3140208452    2.0670809311
 H   -0.7393757254   -1.4090173362    1.4713697910