15

 N    0.0237470419    1.3131283728   -0.1891722274
 C   -0.0980219916   -0.0298650639   -0.0471437002
 N   -1.1757473791   -0.7278859272   -0.1249094605
 C   -0.8148715422   -2.1351722118    0.0091399725
 C   -0.0353081720   -2.6889422216   -1.1520014587
 C    0.6736338375   -2.2664357726    0.1519798570
 O    1.3172631847   -3.2076980165    0.9353046214
 C    1.1510649606   -0.8562052811    0.1889195158
 O    2.2646553402   -0.4492384760    0.4258918951
 H    0.8891754856    1.7185755366    0.1311673355
 H   -0.8064757674    1.8802133287   -0.1301061927
 H   -1.5043328605   -2.7633101194    0.5598704130
 H   -0.0312570850   -3.7645056212   -1.2999460666
 H    0.0488990407   -2.0835206846   -2.0489114677
 H    2.2630321666   -3.0186055121    0.8769070237