23

 C   -0.0660290837    1.5671297728    0.0021299835
 C    0.0317565369    0.0343197600    0.0238936320
 C    0.7770287460   -0.4943885086   -1.2142248942
 O    2.1530248774   -0.1477987211   -1.1916650226
 C    2.8276412619   -0.7291842925   -0.0874936440
 C    2.2422775465   -0.2488098080    1.2446242587
 C    0.7413962847   -0.5000860244    1.2689304891
 C    0.0149280147   -0.4990280996    2.5858551653
 C    0.2541069330   -1.8037827476    1.8596328856
 H    0.9204137803    2.0238808190   -0.1146370123
 H   -0.6844856458    1.9021477276   -0.8373342435
 H   -0.5140514980    1.9480890103    0.9248448036
 H   -0.9857613462   -0.3785352881    0.0013057996
 H    0.6673097127   -1.5905487332   -1.2736912382
 H    0.3700185467   -0.0611366013   -2.1335013681
 H    2.7641835946   -1.8295281534   -0.1463429341
 H    3.8793132457   -0.4445907160   -0.1867824979
 H    2.7347561826   -0.7661624725    2.0763644334
 H    2.4528678543    0.8212783117    1.3619098775
 H    0.5854257789   -0.3042438079    3.4884582318
 H   -0.9986314169   -0.1110356335    2.6108197871
 H   -0.5982221985   -2.2931600913    1.3993347178
 H    0.9869814520   -2.4898963521    2.2720514400