17

 C   -0.1660237948   -1.2829253263   -0.2292638142
 C   -0.0817845765   -0.0925969253   -0.0797544242
 C    0.0104264278    1.3438144986    0.0760252040
 C   -0.2053148851    1.9841402914    1.4997572040
 C    1.1390071290    2.7563324295    1.3573674104
 C    2.3936078717    2.0523952212    1.9336095961
 O    2.1803172874    0.6428595040    1.8305484601
 C    2.6245850407    1.3365724077    0.6618791994
 C    1.4157687665    2.0357499842   -0.0013487856
 H   -0.2321361956   -2.3359775746   -0.3459615041
 H   -0.6559204461    1.8252964132   -0.6475518774
 H   -1.0899473070    2.6208907266    1.5569465583
 H   -0.2227577198    1.2572711151    2.3109103373
 H    1.1280887863    3.8432147599    1.4266428967
 H    3.0782241513    2.3915620726    2.7031602341
 H    3.5312707876    0.9697418229    0.1944584458
 H    1.6571610165    2.5910451094   -0.9076941810