16

 N    0.4444828359    1.5605085649   -0.0719752317
 C    0.1082006414    0.1435304412    0.0367880128
 C    0.4497070422   -0.6203762199   -1.1851205353
 N    0.7445191591   -1.1661516066   -2.1616100968
 C    0.7845698323   -0.4666866147    1.2770827894
 C    1.1237402578   -1.9214523633    1.3042762670
 N    2.1929790156   -0.9235628684    1.1890369436
 C    0.4118004276    0.1890599551    2.5064357270
 C    0.0635206943    0.7031302634    3.5346014859
 H    1.4437057018    1.6784704066   -0.2108387894
 H   -0.0238895139    1.9770668996   -0.8700642221
 H   -0.9764999429    0.0710453536    0.1790703558
 H    1.0805612273   -2.4374355271    2.2577096211
 H    0.8724045578   -2.5219563691    0.4348798879
 H    2.5070757990   -0.8800958224    0.2200509800
 H   -0.2274227453    1.1696791972    4.4432553846