21

 C    0.0112305096    1.4834144522    0.0411734134
 C    0.0191281921   -0.0135225707   -0.0126479741
 C   -0.0752897184   -0.7642592834   -1.1153172454
 C    0.0564485814   -2.2486692693   -0.8999478581
 C    1.4656851751   -2.4662169965   -0.2432969510
 C    0.7733634719   -2.2212143536    1.0990555191
 C   -0.5822525865   -2.7008473004    0.4935954082
 C   -1.3234241389   -1.6167689562    1.2791391757
 C    0.0277736821   -0.8189190775    1.2682845501
 H    0.9298349822    1.8698144303    0.5018183430
 H   -0.0762834644    1.9205380455   -0.9577087834
 H   -0.8212719621    1.8586922886    0.6510916142
 H   -0.1491954989   -0.3501374584   -2.1161795837
 H   -0.1967188474   -2.8466762886   -1.7759281728
 H    1.7819290111   -3.5131088972   -0.3050597332
 H    2.2772795270   -1.8125937525   -0.5753735956
 H    1.1890463959   -2.6153304499    2.0281769395
 H   -0.9145777696   -3.7401931683    0.5153890723
 H   -2.1992503855   -1.1235184133    0.8476677786
 H   -1.5618545885   -1.9879806239    2.2815097274
 H    0.2788850618   -0.2295221069    2.1518804458