19

 C    0.0498891503    1.3865085108    0.2397875703
 C   -0.2073911722   -0.0431559647   -0.2213536582
 N    0.8960037654   -0.5127851071   -1.0695449856
 C    0.8874318965   -1.8253914666   -1.4976384094
 C    1.1548265959   -2.4607433777   -2.6692401554
 N    1.0998212626   -3.8377913137   -2.4576468216
 C    0.7926347474   -3.9757819903   -1.2123976648
 C    0.5631652726   -5.2178480789   -0.4321592230
 O    0.6505829495   -2.7801223937   -0.5494802044
 H    0.9928636513    1.4527413359    0.7896233621
 H    0.1041666064    2.0749540388   -0.6116974317
 H   -0.7596993089    1.7297855468    0.8899233931
 H   -0.2648216425   -0.7132682283    0.6403178146
 H   -1.1764413685   -0.1067038709   -0.7427285670
 H    1.0820398318    0.1154958472   -1.8406876037
 H    1.3830029472   -2.0367660572   -3.6334418095
 H    1.2509035497   -5.2905069711    0.4173928744
 H   -0.4566468027   -5.2567604264   -0.0332550386
 H    0.7184396982   -6.0750717228   -1.0879965116