19

 C   -0.0888253264    1.4781593917   -0.1101550945
 C   -0.0573308423   -0.0481936405    0.0408918652
 C    0.7901440037   -0.4969524354    1.2307970891
 N   -1.4147220673   -0.5866021611    0.1201732137
 C   -2.1430340169   -0.9512843737    1.2009800797
 C   -3.4094410177   -1.2846085569    0.7619307574
 C   -3.3426077064   -1.0725910068   -0.6289036934
 O   -4.3478273161   -1.2742566184   -1.5075870020
 N   -2.1500132956   -0.6482371245   -1.0235586252
 H    0.9208400902    1.8653029970   -0.2794174478
 H   -0.7178438568    1.7587757554   -0.9577110031
 H   -0.4918662238    1.9486095700    0.7929253477
 H    0.3627481588   -0.4781572656   -0.8744381992
 H    0.4413077003   -0.0498739420    2.1675027467
 H    0.7838057157   -1.5849085117    1.3395917328
 H    1.8233299015   -0.1729983331    1.0803556690
 H   -1.7213062492   -0.9592411819    2.1927016954
 H   -4.2441325169   -1.6362415046    1.3438251378
 H   -4.0043242349   -1.0519848980   -2.3818668695