23

 C    0.0472018194    1.6435544387   -0.0822131408
 C    0.1118281240    0.1234981483    0.0188090598
 C    1.1077364213   -0.7068330272   -0.8436949539
 C    2.5127902668   -0.1748113366   -0.4660424779
 C    2.2544426144   -0.7570315451    0.9261877594
 C    3.2919149437   -0.9849663529    1.9866462897
 C    1.2238342643   -1.7200088061    0.3654219523
 C    0.7453790754   -0.5727645839    1.2313609990
 C    0.1717487193   -0.6057280751    2.6187435571
 H    1.0180756050    2.1125899239    0.1011064198
 H   -0.2966224456    1.9579700643   -1.0745077535
 H   -0.6571153283    2.0508250883    0.6520769075
 H   -0.8938158625   -0.2949133113   -0.1199029859
 H    0.8670557606   -0.9602587549   -1.8747241498
 H    3.3000881877   -0.7424733635   -0.9732546140
 H    2.7154013926    0.8967741479   -0.5787680050
 H    3.6474017264   -0.0365542585    2.4080136136
 H    2.9092508454   -1.5892882354    2.8146801889
 H    4.1619880137   -1.5092062098    1.5744554767
 H    1.1071329436   -2.7910747090    0.4578879825
 H    0.2438221067    0.3736185101    3.1073979440
 H   -0.8881846844   -0.8851265059    2.5942593705
 H    0.6841949005   -1.3298303161    3.2594172199