12

 O   -0.0693601915   -0.0483452143    0.0047226765
 C    0.0111480611    1.1433201289    0.0092638217
 O   -1.1894529903    1.8858549767    0.0287621194
 C   -1.2190191867    3.2210093327    0.0355669045
 C   -0.1054810780    3.9878167059    0.0244905130
 C    1.1524285627    3.3287226498    0.0046760614
 C    1.2232631500    1.9631370212   -0.0028092147
 C    2.4740942546    1.2807435137   -0.0226079859
 N    3.5053704431    0.7552999579   -0.0387576423
 H   -2.2333482949    3.6031908457    0.0508436166
 H   -0.1832852963    5.0657338331    0.0306971557
 H    2.0690915362    3.9084771289   -0.0046674559