27

 C    2.5051581102   -2.1894711266   -0.8892982883
 C    1.2894668868   -2.7971014675   -1.5957595791
 C    0.0252909112   -2.7709138427   -0.7281804713
 C   -1.2541161960   -3.2931359192   -1.4123226027
 C   -1.1633972605   -4.7867910123   -1.7645626142
 C   -2.4630897488   -3.0306419321   -0.5279290043
 C   -3.1234248546   -1.6732519828   -0.4715836114
 C   -3.8706199843   -2.8497937480   -1.0560037935
 C   -4.2218213611   -2.8937714200   -2.5280365573
 H    3.3945209485   -2.2169395904   -1.5269277208
 H    2.3232264411   -1.1441028271   -0.6155931836
 H    2.7398027094   -2.7340222148    0.0322651909
 H    1.0983364744   -2.2500896301   -2.5291167318
 H    1.5237367882   -3.8269954652   -1.8901240033
 H    0.2023945340   -3.3516149074    0.1891183168
 H   -0.1558761134   -1.7388852987   -0.4003096856
 H   -1.3785427541   -2.7291318131   -2.3467925514
 H   -1.0099922663   -5.3889939029   -0.8605977454
 H   -2.0855050971   -5.1341584524   -2.2401347065
 H   -0.3363020055   -4.9981898335   -2.4484522121
 H   -2.4048814225   -3.5549755700    0.4251668077
 H   -3.4313521101   -1.2708878075    0.4876270223
 H   -2.7682786845   -0.9208249646   -1.1708310473
 H   -4.6468518130   -3.2656810819   -0.4177117848
 H   -5.1466245847   -2.3381578677   -2.7205789280
 H   -3.4406047236   -2.4474730363   -3.1499737183
 H   -4.3766697638   -3.9214110150   -2.8761169968