17

 C   -0.0409385137    1.5692175896    0.1608908409
 C    0.0868018446    0.0821248597    0.0573924406
 N   -0.8618325474   -0.8654341413    0.6871527169
 C    0.5886936377   -0.9362955221    1.0081088400
 C    1.3006095003   -1.6906013650   -0.1661437857
 O    0.3268115400   -2.0427025790   -1.1522775657
 C    0.8125952186   -0.6989804056   -1.1270683685
 C    1.3742928051   -0.1035749878   -2.3758516040
 H    0.8954030203    2.0707310000   -0.1076061409
 H   -0.8250666047    1.9515322481   -0.5034699381
 H   -0.2942386399    1.8678642204    1.1840601380
 H   -1.2983561865   -0.3598379140    1.4602237571
 H    0.9614135674   -0.8249623240    2.0181497953
 H    2.2166739389   -2.2681047810   -0.1221735547
 H    0.5729027737    0.1895324512   -3.0637357230
 H    1.9706212389    0.7877758248   -2.1552931348
 H    2.0109589469   -0.8314700540   -2.8857801333