17

 C   -0.0582391803    1.5630046527   -0.0086215331
 C    0.0819457677    0.0588897876    0.1017744207
 N    1.2680807817   -0.7213505787   -0.2710802708
 C    2.4697779331    0.0962517342    0.1178714644
 C    2.0287226098    0.0272037668    1.5901408820
 O    2.5743595568    0.2119213107    2.6412709867
 C    0.7693538059   -0.6942299478    1.1983632691
 C    0.1738431318   -1.8526513313    1.9403689737
 H    0.7597772084    2.1173805906    0.4540166774
 H   -0.1267383713    1.8624563051   -1.0601733443
 H   -0.9841481408    1.8746953372    0.4848224045
 H   -0.8115829073   -0.4638659707   -0.2396194832
 H    3.3857646677   -0.4794800604   -0.0415737565
 H    2.5627724243    1.0664615612   -0.3749516392
 H   -0.3865837341   -1.4975553906    2.8117882800
 H   -0.5115269985   -2.4126251141    1.2983648544
 H    0.9517146352   -2.5341034324    2.2976815443