18

 C    0.0562471317    1.4330275136   -0.0198564296
 O   -0.2107751827    0.0452420865   -0.1702874517
 C    0.6167861542   -0.6009388123   -1.0594459525
 C    0.3526575500   -2.1069510819   -1.0452185056
 C    0.5630020683   -2.5060390517   -2.5088442562
 O   -0.1695191468   -3.6271424643   -2.9174877109
 C    0.1444578639   -1.2399658182   -3.2314842988
 N   -0.3146341558   -1.2494091467   -4.4068192237
 O    0.3233848090   -0.1669614631   -2.4261456772
 H    1.0991822239    1.6046092133    0.2824737073
 H   -0.1412900958    1.9789679053   -0.9488339575
 H   -0.6088197204    1.7976099291    0.7647203566
 H    1.6693633777   -0.3335773470   -0.8804589094
 H    0.9958883071   -2.6335677362   -0.3396138720
 H   -0.6924613169   -2.2733476620   -0.7704760871
 H    1.6408137427   -2.6553981456   -2.6981312907
 H   -0.4976755589   -3.4114340150   -3.8033670446
 H   -0.5773322814   -0.3190562238   -4.7305964963