17

 N    0.0610796694   -1.1348575208    0.0782439902
 C    0.0262403546    0.0203945596    0.0403005005
 C   -0.0084835742    1.4697398114    0.0175641218
 C   -1.1145377094    2.1772993470    0.8391562848
 C   -1.2950129859    3.1283763181   -0.3580166630
 C   -0.2303024493    4.2359994364   -0.4753971051
 C    0.7143539777    3.1653627212   -1.0546951579
 C    1.3447937242    2.2225833982   -0.0135198765
 N   -0.4659300739    2.1998830735   -1.2630931018
 H   -1.9805353562    1.5265385579    0.9742091795
 H   -0.8270899180    2.5982754084    1.8059232220
 H   -2.3159615582    3.3622432081   -0.6619563697
 H   -0.5053012912    4.9776497600   -1.2291535054
 H    0.0763499719    4.7562558577    0.4366716797
 H    1.3198573636    3.4291701245   -1.9225553183
 H    1.7036202892    2.6448995006    0.9284876097
 H    2.1294122455    1.6021831183   -0.4507354506