21

 C   -0.3072849152    1.5431835692    0.0905114686
 C   -0.3574279351    0.0615494355   -0.2718425145
 C    0.7796154762   -0.3822939073   -1.1804304893
 O    1.5474498315    0.3952010906   -1.6970258636
 C    0.9200438555   -1.8913111298   -1.3796147563
 O    1.6119456626   -2.2372627937   -2.5835415928
 C    2.7610382308   -2.7161221857   -1.8564266854
 C    2.0306694483   -2.5695087770   -0.5029349261
 C    2.7216124590   -1.7936642900    0.6081295745
 H    0.6084156387    1.7807619365    0.6389572231
 H   -0.3132967144    2.1600828377   -0.8110595138
 H   -1.1632698987    1.8215515305    0.7112522116
 H   -0.3535482787   -0.5760385535    0.6238340461
 H   -1.2962889179   -0.1880061404   -0.7877922250
 H   -0.0674044466   -2.3687822218   -1.3249248935
 H    3.0446665596   -3.7310029935   -2.1572478832
 H    3.6217116151   -2.0462666902   -1.9778668079
 H    1.6771208921   -3.5334164435   -0.1282171066
 H    3.0608352059   -0.8142924334    0.2590643734
 H    2.0596861654   -1.6423473886    1.4677651998
 H    3.5973296159   -2.3461349918    0.9653855309