23

 C   -1.7908833470    1.5186176559   -1.3918961878
 C   -1.7374827469   -0.0116556995   -1.3731199946
 C   -1.5858345499   -0.5801189264    0.0450713420
 C   -1.6156673664   -2.0987875086    0.1289420473
 C   -0.4757297579   -2.8328332286   -0.5827422871
 C    0.8479944506   -2.4879855126   -0.0700722536
 C    1.9308928117   -2.1905531867    0.3593175972
 C   -2.1360426618   -2.7253855359    1.3978428518
 C   -2.9602593609   -2.7862985935    0.1323464475
 H   -1.8971545601    1.9023795817   -2.4113874798
 H   -2.6374499462    1.8928154315   -0.8051151349
 H   -0.8787017413    1.9515096687   -0.9665634521
 H   -2.6479693162   -0.4187899567   -1.8316260420
 H   -0.9019871713   -0.3479379613   -1.9993219925
 H   -0.6470288816   -0.2170131789    0.4832914169
 H   -2.3925127523   -0.1821707686    0.6742764284
 H   -0.6293624694   -3.9145969877   -0.4835595220
 H   -0.5110823040   -2.6233573689   -1.6596654211
 H    2.8905993913   -1.9367016088    0.7357298820
 H   -1.6682814897   -3.6396919417    1.7478473187
 H   -2.4671783081   -2.0661760636    2.1932774696
 H   -3.8480638151   -2.1655241962    0.0698750705
 H   -3.0570128875   -3.7432633039   -0.3702937245