18

 C   -0.0406976127    1.6812788179   -0.0622860138
 C    0.0473955813    0.1608355459   -0.0503699838
 C   -1.3526118332   -0.5101097302   -0.0316395366
 C   -2.1192704640   -0.1980971655    1.1708602295
 N   -2.7347764687    0.0610989793    2.1136551480
 C    0.8873457946   -0.4363065044   -1.1975862626
 O    1.4355119003   -1.6046519580   -0.6112016044
 C    1.7470119451   -1.2191894580    0.7047446367
 O    0.7712671947   -0.2702201075    1.1080541363
 H    0.9617508078    2.1151900124   -0.0304132926
 H   -0.5465631841    2.0345971675   -0.9671335378
 H   -0.5993874352    2.0399023405    0.8058117071
 H   -1.9310469012   -0.1929211587   -0.9070485576
 H   -1.2184369349   -1.5945974897   -0.0981468975
 H    0.3074941638   -0.7279887440   -2.0756947671
 H    1.6768220077    0.2679480685   -1.5011236952
 H    1.7086646340   -2.1035501381    1.3485175895
 H    2.7469772847   -0.7553374080    0.7562618619