22

 C   -0.1868738596    1.5253605499   -0.2463795388
 C   -0.0041419636    0.0104543337   -0.1260928829
 C    0.7158539449   -0.5842584087   -1.3282205761
 O    0.8428550155   -1.9808162761   -1.1419481206
 C    1.4933470078   -2.6406265378   -2.2095486298
 C    1.4851096612   -4.1303118465   -1.9016933279
 N    0.1278914105   -4.6168382099   -1.7369250079
 C   -0.3670131753   -5.6907945428   -2.4031318151
 O    0.2581427158   -6.3896805491   -3.1738562827
 H    0.7775128312    2.0390383535   -0.3256966081
 H   -0.7757372277    1.7877364427   -1.1321374709
 H   -0.7057818729    1.9283219032    0.6278298810
 H    0.5659832917   -0.2338651569    0.7774762644
 H   -0.9781860541   -0.4823314290   -0.0241883914
 H    0.1561920592   -0.3739083268   -2.2559138601
 H    1.7128821458   -0.1258795214   -1.4442099675
 H    0.9686223835   -2.4458071649   -3.1590077406
 H    2.5304871489   -2.2833371416   -2.3172387608
 H    1.9369311584   -4.6984954224   -2.7173232741
 H    2.0695096731   -4.3126376561   -0.9907677974
 H   -0.4815456816   -4.0751375974   -1.1447031905
 H   -1.4335493328   -5.8672131257   -2.1583039522