20

 C   -0.0323515126    1.6131589285    0.0946676235
 C    0.0514842043    0.1029101628    0.1118948280
 N    1.2118962630   -0.6943987197   -0.3074441416
 C    2.5022324058    0.0089992583   -0.3988483537
 C    2.8651779552    0.6208936848    0.9815778388
 C    1.8669899120   -0.0100525728    1.9823718983
 C    0.8043588926   -0.7094358719    1.1273133122
 C    0.2237357387   -1.9121038477    1.6617100593
 C   -0.2654700834   -2.8978648390    2.1472532951
 H    0.7940245250    2.1124291799    0.6009962573
 H   -0.0668193482    1.9795811587   -0.9377303877
 H   -0.9604105389    1.9289411611    0.5823517235
 H   -0.8691689305   -0.3616180270   -0.2385743331
 H    3.2454472264   -0.7357562434   -0.6996134401
 H    2.4618299226    0.7624584725   -1.1924246074
 H    3.8988777541    0.3931414670    1.2548401985
 H    2.7811525012    1.7100308729    0.9680448663
 H    2.3531598379   -0.7602137475    2.6107455042
 H    1.4254411368    0.7321672308    2.6541391659
 H   -0.6970830018   -3.7753977583    2.5604930726