19

 C   -0.1682704323    1.5684402205   -0.0214560057
 C   -0.0338102493    0.0531979676   -0.0149026045
 O   -1.2761434177   -0.5676333904   -0.2939939600
 C    1.2121440653   -0.5951188824   -0.6698186012
 C    2.1100022779   -0.2811028238    0.5781272893
 C    2.5818023084   -1.7473529939    0.6506446876
 O    3.0324836465   -2.2880034845    1.8658169925
 C    1.1000303061   -1.8637854320    0.2477807245
 C    0.6875773833   -0.6393912962    1.1519996783
 H    0.7699292085    2.0655010998    0.2384535852
 H   -0.4646569533    1.9248569289   -1.0164969485
 H   -0.9386648371    1.8830672647    0.6896197074
 H   -1.6477138796   -0.1584381740   -1.0824614351
 H    1.5382039626   -0.5834712859   -1.7117400699
 H    2.6713426725    0.6357815438    0.7610653675
 H    3.3134668179   -2.0526029174   -0.1040947734
 H    2.3927871931   -2.0662203532    2.5512887204
 H    0.4950217076   -2.7468073366    0.0511506419
 H    0.3834383997   -0.6654824652    2.2005432737