21

 O    0.1417840571    1.3647029107   -0.1217183659
 C    0.0390746683   -0.0397302434    0.0120326910
 C    0.5302867883   -0.6152902416    1.3593750766
 C   -0.6801636318   -0.3439198287    2.3050925213
 C   -1.3826748358   -1.3678233825    1.3668812124
 C    0.0021980965   -2.0784162350    1.2827796281
 C   -1.4052045450   -0.6086801757    0.0445162616
 C   -2.5830304845    0.1827681747   -0.4467857887
 C   -2.1440693717   -1.0695713875   -1.1756876511
 H   -0.4002479941    1.7680991350    0.5647791570
 H    0.6194318039   -0.4397638891   -0.8253446312
 H    1.5556570128   -0.3765780664    1.6415247091
 H   -0.5138664847   -0.7319613167    3.3125121918
 H   -1.0942680294    0.6684919221    2.3665108878
 H   -2.2936200934   -1.8935037165    1.6568576476
 H    0.2232219221   -2.6615357444    0.3837857860
 H    0.2409187480   -2.6566898958    2.1783616682
 H   -3.5056900618    0.1448943620    0.1240320722
 H   -2.3808368374    1.1379726602   -0.9200836317
 H   -1.6639247080   -0.9511619926   -2.1421945528
 H   -2.7717729595   -1.9520815487   -1.0956900994