21

 C    0.0685183439    1.4493182734   -0.2630705803
 C   -0.0136001149   -0.0242713952    0.0918889619
 C   -1.1112765327   -0.7391515759   -0.6780139759
 O    1.2452644555   -0.7223157942    0.1550718905
 C    0.5209787713   -0.5417178905    1.3790106966
 C    1.1743161011    0.3632678839    2.4069076658
 C   -0.0523102885   -1.8232069092    2.0012457609
 C    0.9604747433   -2.6471512055    2.6543482649
 C    1.7963991466   -3.3233779145    3.1913039691
 H    0.8669923353    1.9680167981    0.2654695649
 H    0.2510298728    1.5574676360   -1.3377705183
 H   -0.8796280741    1.9497496499   -0.0370779402
 H   -1.0308448431   -0.4936355243   -1.7424633986
 H   -1.0437639329   -1.8232622539   -0.5887530892
 H   -2.1024261380   -0.4170074549   -0.3399160595
 H    1.7252278378    1.1777301028    1.9385296577
 H    0.4243288056    0.7880877688    3.0836521053
 H    1.8790758972   -0.2170489153    3.0093799441
 H   -0.8167954642   -1.5375234844    2.7368185211
 H   -0.5600159858   -2.4218252861    1.2428025405
 H    2.5340326136   -3.9271349089    3.6588619385