15

 O   -0.0297336579    0.1351428555    0.3450117238
 C    0.0284097828    1.3051683896    0.0758819842
 C    1.3163805264    2.0827073528   -0.1099409028
 C    1.3399216371    2.8219722251   -1.4419092731
 O    2.4804373090    3.7035695563   -1.4222704987
 C    2.6591433792    4.4383628689   -2.5200909237
 O    1.9612471730    4.4296843194   -3.5028239379
 C    3.8910005219    5.3465637885   -2.4227970275
 O    4.6157311847    5.4089631357   -1.4711815722
 H   -0.8982036343    1.9138142129   -0.0451760437
 H    1.3728122374    2.8271326503    0.6963313894
 H    2.1653606209    1.4027467103   -0.0119650395
 H    1.4335862477    2.1377471781   -2.2905197096
 H    0.4341726374    3.4188444714   -1.5958111289
 H    4.0249691446    5.9421149752   -3.3475603999