21

 C    0.0882514417    1.5565642819    0.0616757145
 C    0.0040526654    0.0400432068   -0.0164851670
 C    0.7041851857   -0.5348128323   -1.2580295673
 C    0.9559147250   -2.0259710503   -1.1258873065
 O    2.0849787907   -2.4051000528   -0.3240463324
 C    0.7768218615   -2.7068325886    0.1694382688
 C    0.4265771828   -4.1729207712    0.2561690074
 C    0.3444286215   -1.8528925157    1.3510432653
 O    0.5904297683   -0.4774977111    1.1719116159
 H    1.1338832203    1.8710833199    0.1347925342
 H   -0.3505468430    2.0138174369   -0.8305004016
 H   -0.4439827815    1.9258018584    0.9421503448
 H   -1.0575279012   -0.2661426426   -0.0446102199
 H    0.0905777922   -0.3400193858   -2.1449611994
 H    1.6664871516   -0.0319119712   -1.4097998552
 H    0.8527545847   -2.6171340769   -2.0367601120
 H    0.7952109750   -4.7049806353   -0.6240915157
 H    0.8824795817   -4.6277509488    1.1429841314
 H   -0.6570301915   -4.3169747399    0.3240812469
 H   -0.7284959690   -2.0363998287    1.5408610132
 H    0.8993489880   -2.1522909828    2.2471933347