17

 O   -0.0918937754    1.4072360945    0.0104726607
 C    0.0239517607    0.0305565214    0.0020704563
 C    0.6873333022   -0.8796072830    1.1106422811
 C    1.3146048527   -1.7739715581   -0.0184160841
 C    0.0323249242   -2.6806385643   -0.0126420015
 C   -0.5997824942   -1.7813359533    1.1088952608
 C   -1.2517656934   -0.8697669240    0.0078261467
 C   -0.6182798508   -1.7693296228   -1.1137253643
 C    0.6687118650   -0.8675223242   -1.1271547302
 H    0.7931520308    1.7900054433    0.0053349612
 H    1.2052837674   -0.5193107105    1.9989617827
 H    2.3412911867   -2.1359299052   -0.0289114236
 H    0.0338138690   -3.7691323036   -0.0185319994
 H   -1.1082016136   -2.1481115299    1.9985690174
 H   -2.2698595373   -0.4856845400    0.0183732371
 H   -1.1414699117   -2.1265211037   -1.9987225785
 H    1.1718412378   -0.4976104767   -2.0200279023