23

 C   -0.0875895499    1.5482929105    0.0288735455
 C    0.0153836609    0.0331676397    0.0158178578
 C    1.1067007888   -0.6339479573   -0.8770003149
 C    1.1736058406   -1.7661764980    0.1987484292
 C    2.4832290757   -2.4962537589    0.4338119761
 C    0.7050997111   -0.6792716184    1.2199183435
 C   -0.0085390459   -2.6872542195   -0.0475617526
 C   -1.2071192165   -2.1475037433   -0.2654471778
 C   -1.3443422519   -0.6431608958   -0.2592172989
 H    0.8863444148    2.0092827650    0.2252003778
 H   -0.4512943353    1.9299931537   -0.9329884611
 H   -0.7835864454    1.8924220077    0.8036764405
 H    0.8420802839   -0.9201744221   -1.8989056144
 H    2.0235685004   -0.0346612670   -0.8856336059
 H    3.3028696361   -1.7909277412    0.6057960953
 H    2.4184925601   -3.1549536367    1.3081135117
 H    2.7510150808   -3.1178034621   -0.4290000274
 H    1.5491422550   -0.0882017414    1.5915292138
 H    0.0840716579   -1.0057237601    2.0589616903
 H    0.1505310856   -3.7623220408   -0.0403316260
 H   -2.0900381332   -2.7534256099   -0.4476410915
 H   -2.0769114873   -0.3300874875    0.4997741723
 H   -1.7472691464   -0.2928916367   -1.2213510134