25

 C   -0.0151111600    1.5757146021    0.1946946523
 C   -0.0097705947    0.0540635083    0.0256604066
 C   -1.4132830079   -0.5609957306    0.0501447148
 C   -1.4177255776   -2.0829133317   -0.1271464753
 C   -2.8216806328   -2.6950108086   -0.0958503112
 C   -2.8241535453   -4.2184556091   -0.2811839695
 C   -4.2137537541   -4.8043420874   -0.2355019564
 C   -4.5028519959   -6.1154431148    0.3570086631
 O   -4.8205623151   -4.9114163058    1.0574249567
 H    0.9999073886    1.9849932384    0.1764188166
 H   -0.5840731785    2.0609949589   -0.6063149417
 H   -0.4740424930    1.8667756453    1.1462815902
 H    0.4832307270   -0.2082780536   -0.9199804541
 H    0.5979763978   -0.4010203942    0.8190934999
 H   -1.9053570156   -0.3040874908    0.9986404924
 H   -2.0242081160   -0.1013317179   -0.7396303577
 H   -0.9292226391   -2.3396224569   -1.0779051466
 H   -0.8041772411   -2.5423936307    0.6604603550
 H   -3.3088645259   -2.4560497919    0.8577186569
 H   -3.4383405249   -2.2331784357   -0.8795684701
 H   -2.3622512584   -4.4777407237   -1.2439689158
 H   -2.2166837612   -4.6898558270    0.5009970579
 H   -4.8976720211   -4.4409894375   -1.0062905290
 H   -5.3569583479   -6.6954947534    0.0093883753
 H   -3.6882518172   -6.7016118014    0.7814360898