14

 N   -0.0280815468    1.3701727333    0.0100518115
 C    1.2702780308    1.8333591296    0.0001124814
 C    2.1502371031    0.7829749771   -0.0143177439
 C    1.3579232882   -0.4069588595   -0.0133637725
 C   -0.0047578453   -0.0040692260    0.0020928356
 C   -0.9826166296   -0.9887801775    0.0060044134
 N   -0.6296419536   -2.2712776595   -0.0046418241
 C    0.6892160361   -2.5520952632   -0.0189831883
 N    1.7092139526   -1.7035484199   -0.0240715885
 H   -0.8500453078    1.9483994629    0.0212982791
 H    1.4636395708    2.8952835187    0.0042279419
 H    3.2263682584    0.8438256581   -0.0243859398
 H   -2.0471448874   -0.7595407936    0.0175934949
 H    0.9402506304   -3.6098337005   -0.0273823462