20

 C   -1.6301210639    0.3614191126    2.0617969912
 C   -0.8269079179   -0.6828779439    1.3178736271
 C   -0.1020694081   -0.3526572619    0.0585845268
 N    0.6417674160   -0.6993657810    1.2710217851
 C    1.4307712026    0.3340882246    1.9347797404
 C    1.8372373427   -0.2013623832    3.3215472878
 O    2.5154710369   -1.4333537973    3.2072959276
 C    2.6907793802    0.5989535686    1.1125313956
 O    3.3592045080    1.5907494988    1.2382088408
 H   -1.2728218230    1.3776296620    1.8797122290
 H   -2.6732476519    0.3173812719    1.7322170008
 H   -1.6176298324    0.1809278654    3.1420059836
 H   -1.2391199428   -1.6873813489    1.4002314039
 H   -0.0386746946   -1.0643074359   -0.7599756434
 H   -0.1068076600    0.6928543619   -0.2478246226
 H    0.9183215154    1.2989020284    2.0595873756
 H    2.5155314785    0.5103831903    3.8013343552
 H    0.9339017201   -0.2875747976    3.9474813144
 H    1.9956836836   -1.9547183741    2.5803555492
 H    2.9558091605   -0.2041167705    0.3916667219