25

 C    0.5171769661    1.5813681783    0.1462725268
 C    0.2271664388    0.0817234613    0.0103249520
 C    0.5279465526   -0.4867078711   -1.3877553777
 C   -0.2865211388    0.2140439505   -2.4667794662
 O    1.9590600890   -0.3711821310   -1.6565288788
 C    2.1692416047   -1.7681327566   -1.3863224571
 C    0.6524618271   -2.0648837483   -1.4427489689
 C    0.0554237047   -2.8920373768   -0.3056562100
 C    0.2542758554   -2.6813111438   -2.7877609577
 H    1.5273446683    1.8026590585   -0.2102253826
 H   -0.1882236859    2.1949568903   -0.4214411846
 H    0.4500993828    1.8909430012    1.1936275190
 H    0.8422032331   -0.4516465918    0.7420903445
 H   -0.8183231682   -0.1297664741    0.2692689915
 H   -0.0477127687    1.2807125369   -2.4838377507
 H   -0.0737753349   -0.1846038786   -3.4589140198
 H   -1.3599577939    0.1117625520   -2.2721930976
 H    2.7933095647   -2.2449805765   -2.1516063106
 H    2.6294170428   -1.9337470423   -0.4013420191
 H    0.3476406853   -2.5315075685    0.6826765878
 H   -1.0396213960   -2.8979230725   -0.3523103643
 H    0.3872021224   -3.9335291487   -0.3858236621
 H    0.5471630619   -3.7370770059   -2.8120375773
 H   -0.8279433718   -2.6350876754   -2.9506130157
 H    0.7469971184   -2.1851752973   -3.6278644706