17

 C   -0.1917940041    1.6716806893    0.0602884727
 C    0.0314342498    0.1654759183   -0.0155563753
 C   -1.2875622366   -0.5976165225   -0.2385375979
 O   -1.1158039296   -2.0029678454   -0.1508625392
 O    0.9721771106   -0.1354889057   -1.0483820032
 C    1.8373618620   -1.1348030331   -0.5733212501
 O    1.8060562681   -1.0802594044    0.8557720944
 C    0.7139760640   -0.3837892979    1.2411018709
 O    0.3615904844   -0.2661626909    2.3797337510
 H    0.7668621933    2.1941759714    0.0913395045
 H   -0.7463920813    2.0194564249   -0.8161099239
 H   -0.7577474296    1.9178996262    0.9620714863
 H   -2.0427372012   -0.2331119523    0.4698182353
 H   -1.6324802957   -0.3821855319   -1.2545371559
 H   -1.1588762502   -2.2528068154    0.7781707624
 H    1.5152373612   -2.1355867136   -0.8843327347
 H    2.8571859949   -0.9252606471   -0.9088583273