15

 C   -0.0196731113    1.5181725251   -0.0396393267
 C   -0.0223243370    0.0195848036    0.0813174495
 N   -1.2709895061   -0.6608845986   -0.1862763668
 C   -1.2870209367   -1.6827303773    0.5700102200
 O   -0.2388469964   -1.8807079142    1.4172341834
 C    0.6550315024   -0.8269692382    1.1383404582
 C    1.2429889763   -0.7917691921   -0.2663830973
 C    1.2073812249   -1.9393097900   -1.1227827914
 N    1.1790622558   -2.8704973469   -1.8084083102
 H    0.9496802578    1.9366626576    0.2451593919
 H   -0.2352544914    1.8138067500   -1.0703546625
 H   -0.7882068070    1.9517407876    0.6068812119
 H   -2.0621104784   -2.4359856746    0.6203572483
 H    1.2324793368   -0.5089371654    1.9964409055
 H    2.1458278603   -0.1945704065   -0.3465623538