22

 C    0.9534459827    1.1266407535   -0.8050384775
 C    0.6571861413   -0.2571808461   -0.2774256596
 N    1.7889263861   -1.0521642581    0.2222368605
 C    0.7256134143   -0.6721216579    1.1601455749
 C    1.1520867003    0.2799737626    2.2613923268
 C   -0.2918271591   -1.6838380873    1.6346817283
 C   -0.5563453564   -3.0049786906    0.9437516288
 C    0.1031910783   -2.9708037711    2.3025830912
 O    1.4748257600   -3.2256686361    2.3957286467
 H    1.7328282963    1.6206304192   -0.2215673003
 H    1.3025349368    1.0718482029   -1.8423478880
 H    0.0547202180    1.7533821233   -0.7876980264
 H   -0.0946858344   -0.7955810030   -0.8554653315
 H    1.7217824447   -2.0301731614   -0.0413040358
 H    1.8884366692    1.0001768749    1.9018017180
 H    0.2931584637    0.8295846727    2.6638657764
 H    1.6084500584   -0.2853365042    3.0804034293
 H   -1.1715490967   -1.2092630264    2.0643362322
 H   -1.5805900850   -3.3505695696    0.8542100824
 H    0.0816834751   -3.2791345200    0.1086239182
 H   -0.4814023550   -3.2985534332    3.1623449156
 H    1.6079377613   -4.1768528440    2.3258808999