16

 O    0.0360392880    1.4340284307    0.3750925039
 C    0.0760090455    0.0657112991    0.1295441848
 C   -1.2421295009   -0.7879100932    0.0163215304
 C   -0.6021389803   -1.5937176200   -1.1739324553
 N   -1.3544985995   -1.9609625595   -2.3332376321
 C   -1.6593487581   -3.2600123188   -2.6213303369
 O   -1.4284084303   -4.1983899959   -1.8914602026
 C    0.3073504161   -0.3710607197   -1.3171574422
 O    0.6281509641    0.2777158487   -2.2773027729
 H    0.0800985267    1.8799822758   -0.4808442783
 H    0.7670293699   -0.4160949460    0.8309428528
 H   -1.5272055620   -1.3683566413    0.8927137484
 H   -2.0747604069   -0.1682735553   -0.3235664107
 H   -0.0884293097   -2.4811819933   -0.7963998615
 H   -1.4814519071   -1.2612988367   -3.0496766234
 H   -2.1562206254   -3.3593146946   -3.6051384247