16

 C    0.0802277042    1.6446238511   -0.4955213958
 C   -0.0744671880    0.2344124161    0.0658185740
 N   -1.4714241643   -0.1631632469    0.1698601987
 C   -1.9769640010   -0.8187712724    1.2555947798
 N   -1.2560995894   -1.1716383539    2.2531364971
 C   -3.4085832956   -1.0689739469    1.1731585468
 N   -4.5436430916   -1.2865562283    1.1408255065
 C    0.6929389458   -0.8113945445   -0.7496308460
 O    1.5436176460   -0.5485891400   -1.5571121655
 H    1.1393476656    1.8766894175   -0.6194157461
 H   -0.3877055924    1.7287310274   -1.4822078535
 H   -0.3753168146    2.3778815714    0.1735477098
 H    0.3274091729    0.1764059483    1.0859048040
 H   -2.0939927371    0.0569430476   -0.5900666529
 H   -1.8138891681   -1.6189471090    2.9749175902
 H    0.3884999176   -1.8586460574   -0.5323303771