20

 C    0.0361711923    1.5046213521   -0.2188381936
 N    0.0272036717    0.0625816876    0.0052455711
 C   -1.0446372954   -0.5000026049    0.8921919403
 C   -0.1234194701   -1.7494646840    1.1384259126
 C   -0.3840190624   -2.2894683278    2.5323071389
 C    0.6003541032   -1.9262093990    3.6197579169
 C   -0.5566892111   -1.0024385442    3.3127283230
 C   -0.3607084076    0.0309590672    2.2157955541
 C    0.7479161267   -0.4599009880    1.2199987701
 H    1.0044534891    1.7872982041   -0.6459528052
 H   -0.7331472388    1.7469506932   -0.9599637548
 H   -0.1397184647    2.1335993579    0.6678587512
 H   -2.1015919383   -0.4811522156    0.6136864415
 H    0.0527265837   -2.4253943899    0.3032311942
 H   -1.0413464562   -3.1406938330    2.6644335860
 H    0.5334064026   -2.4936438545    4.5426383931
 H    1.6116524995   -1.6332689584    3.3581546951
 H   -1.3448473843   -0.8696925839    4.0449319058
 H   -0.4231247510    1.0841957959    2.4818207789
 H    1.8332174312   -0.3840802449    1.3166111210