13

 O    0.0671897662    1.4005470248    0.1528812975
 C    0.0242240181    0.0314893824    0.0581138194
 C   -0.2447311716   -0.7546260518   -1.1610729580
 C   -1.1998206150   -0.9650716597    0.0293370060
 C   -0.5092390368   -1.7576922460    1.0875623525
 O   -0.8434649744   -2.6695684899    1.7912879939
 C    0.7292255509   -0.8192514861    1.1144617548
 H   -0.1875511296    1.7871187413   -0.6908851401
 H   -0.7224682320   -0.2118695202   -1.9742777527
 H    0.4168145998   -1.5499648882   -1.4977112790
 H   -2.2667830887   -0.8206663260   -0.0895652888
 H    1.7107156989   -1.2315567468    0.8617896514
 H    0.7823587642   -0.3132008036    2.0827516730