20

 C   -0.0084081754    1.5944146752    0.0339689692
 C    0.0970596410    0.0735683373    0.0304946257
 C    1.1351798183   -0.6493236155   -0.8258470648
 C    2.4228312108   -0.7820507946    0.0056945544
 C    2.1636607323   -0.1454416326    1.3669448441
 C    0.7155384298   -0.7072361551    1.2423034407
 C   -0.1080348589   -1.0114228681    2.4660413933
 C    1.2839880854   -1.7553415756    0.1873259493
 H    0.9647861188    2.0762688902    0.1627220297
 H   -0.4265348598    1.9521797324   -0.9137621506
 H   -0.6690616494    1.9454817955    0.8354112494
 H   -0.8891386268   -0.3621708860   -0.1744604279
 H    1.1640519062   -0.7386671658   -1.9051125860
 H    3.3747864591   -0.9662235990   -0.4760487887
 H    2.7135848811   -0.6700515000    2.1547245596
 H    2.2926384404    0.9350725230    1.4965463474
 H   -0.3627492578   -0.0901335439    3.0043428294
 H   -1.0468009362   -1.5116925677    2.2029003386
 H    0.4343140886   -1.6605557341    3.1623813509
 H    1.2230481926   -2.8306776957    0.1008912865