22

 C    0.4907616117    1.2476207408    0.0302000963
 C    0.3257660632   -0.2689440078   -0.1338593256
 C   -1.1202041250   -0.6791781739   -0.3357223074
 C   -1.5781456954   -2.0795921404   -0.0131538509
 N   -2.0710914735   -0.9221885411    0.7373687063
 C   -1.6709644854   -0.8121237177    2.1337723038
 C   -2.5250680993   -2.8620215246   -0.8768546774
 C   -3.7829557756   -2.1660983072   -1.3558468881
 O   -2.2612857192   -4.0084964563   -1.1701149538
 H    1.5465267212    1.5192499623    0.1222295037
 H    0.0820191921    1.7827583031   -0.8336770845
 H   -0.0294336161    1.6126979401    0.9212985445
 H    0.8934067006   -0.6059898355   -1.0101259471
 H    0.7592126403   -0.7914012349    0.7244601001
 H   -1.5849751393   -0.1930901329   -1.1946181819
 H   -0.8277190885   -2.7127290831    0.4608281122
 H   -0.6496035516   -1.1588214557    2.3482968876
 H   -1.7565805830    0.2317827688    2.4516072435
 H   -2.3608486795   -1.4080184434    2.7389092080
 H   -3.5300738727   -1.3857991849   -2.0835077083
 H   -4.4391485705   -2.8949063646   -1.8323242442
 H   -4.2834407446   -1.6664159511   -0.5225737770