15

 N    0.0297065749    1.2931593118    0.0707834798
 C   -0.0226139100    0.0276142682    0.0218426339
 N   -1.2191410763   -0.6686890543   -0.0630723373
 C   -1.4526516622   -2.1153758992   -0.0452172676
 C   -1.6561410187   -2.7205285459    1.3595812342
 O   -3.0504724830   -2.3289391209    1.3701572991
 C   -2.9726804644   -1.8223504900    0.0216934501
 C   -2.5917440657   -0.3176053392   -0.0146675473
 O   -3.1612538667    0.7280301333    0.0171624882
 H    0.9989524400    1.6026408706    0.1200018667
 H    0.8360899276   -0.6569011644    0.0283959381
 H   -0.9489706288   -2.6868700857   -0.8230610703
 H   -1.5568936992   -3.8117352292    1.3915126796
 H   -1.0818450745   -2.2674386910    2.1741820663
 H   -3.7480296531   -2.2010026241   -0.6442870436