21

 C   -0.4598422775    1.5281778842   -0.0064739512
 C   -0.0343960673    0.0572481166   -0.0030743007
 O    0.5557257836   -0.3640703483   -1.2424664032
 C    1.6173244290    0.4162518473   -1.7575609790
 C    2.9099170057    0.3731138451   -0.9442099075
 O    2.7652058485    0.9587885515    0.3465041113
 C    2.2666571529    0.0516005716    1.2845857703
 C    1.2836712746    0.5665806803    2.2836920622
 C    0.8259534002   -0.3808365045    1.1854676523
 H    0.3880224533    2.2144386224    0.0468890723
 H   -1.0288209396    1.7435946318   -0.9158716567
 H   -1.1065947047    1.7231431700    0.8536744902
 H   -0.9520088001   -0.5399690684    0.0345586236
 H    1.8220012053    0.0090918875   -2.7554322940
 H    1.3162505521    1.4652390771   -1.8878323061
 H    3.2676394503   -0.6625428253   -0.8554450623
 H    3.6756293408    0.9566891117   -1.4695210914
 H    2.9981593832   -0.6909894014    1.6061531721
 H    1.3319810956    0.1961159001    3.3016149800
 H    1.0110704264    1.6114086521    2.1969791162
 H    0.6380939275   -1.4048070314    1.4953642718