19

 C   -0.0965219337    1.4793813804    0.0452109680
 N   -0.0424290288    0.0299616950   -0.0185809482
 C   -0.0029875157   -0.7268631313    1.2241014580
 C   -1.4116880490   -1.1229333504    1.7256980211
 C   -1.3640945813   -1.8024812621    3.0124192606
 C   -1.2822716161   -2.3535201203    4.0777285137
 C   -0.1082319871   -0.6829504163   -1.1933668286
 N   -0.0665417353    0.0752695464   -2.3616767221
 O   -0.2369835798   -1.8969941855   -1.2176892815
 H    0.9003590721    1.9450222258    0.0241894165
 H   -0.6884909338    1.8771656160   -0.7824071620
 H   -0.5846215659    1.7865976119    0.9744531215
 H    0.5788363557   -1.6348105245    1.0595542415
 H    0.5078310583   -0.1249068988    1.9813239497
 H   -2.0408653100   -0.2266723152    1.8021499956
 H   -1.8642849347   -1.7697768180    0.9668310140
 H   -1.2285452465   -2.8493305136    5.0149319284
 H    0.5232213606    0.8936134849   -2.3766309101
 H    0.0456399511   -0.5171263444   -3.1710703860