21

 C   -0.0641328704    1.4264062690    0.0345824760
 O   -0.0239286072    0.0176864131    0.1802544412
 C   -1.2954921218   -0.6118075496    0.0935284878
 C   -1.1431202166   -2.0201354965   -0.5520996144
 C    0.0506786419   -2.1761764222   -1.4998932114
 C   -1.1226423492   -2.9413948850    0.6487863663
 C   -1.5002493452   -2.3338390195    1.7702127403
 C   -1.8409299218   -0.8796376987    1.5426987708
 O   -1.2988842614    0.0017016902    2.5085051648
 H    0.9672256549    1.7829570338    0.1011908669
 H   -0.4747500815    1.7136009353   -0.9446356257
 H   -0.6621625570    1.8991519665    0.8232798033
 H   -1.9737558619    0.0243357392   -0.4875950368
 H   -2.0582959448   -2.2178189214   -1.1303488120
 H    0.9921577960   -1.9848823459   -0.9816698868
 H    0.0768104880   -3.1921482581   -1.9078351140
 H   -0.0174358661   -1.4792375020   -2.3411055498
 H   -0.8538146376   -3.9892484209    0.5591270842
 H   -1.5880251253   -2.7876612321    2.7508068932
 H   -2.9258981531   -0.7198430589    1.5800982664
 H   -0.3464611498   -0.0019794767    2.3463297997