19

 C   -0.2366411820    1.6003531832   -0.2355536383
 C   -0.0317284715    0.1150395671   -0.0262854456
 O    0.9498285642   -0.5114495073   -0.9694714036
 C    1.8392081411   -0.7084556147    0.1524657950
 C    2.5220325009   -1.7688588969    1.0974543781
 C    2.0374070330   -0.6324722736    2.1333500253
 O    2.8789101346    0.4596044508    1.8371642870
 C    2.8144238932    0.4728598236    0.3982930536
 C    0.7643543514   -0.5579151332    1.1707954413
 H    0.6497615502    2.2012229410   -0.0326324964
 H   -0.5496416295    1.7859404507   -1.2681279147
 H   -1.0371737751    1.9446231633    0.4281605602
 H   -0.9906074005   -0.3978902872   -0.1485577738
 H    1.9896301466   -2.7136550047    1.1883486392
 H    3.6048882651   -1.9150498125    1.0434924720
 H    1.9761267388   -0.7988195854    3.2079508692
 H    3.8052816353    0.2883863592   -0.0329369391
 H    2.4528589847    1.4396833818    0.0460082288
 H    0.2643012695   -1.5186489452    1.3096551819