14

 N    0.1745591883    1.4219633115    0.0484361855
 C   -0.0161205850    0.0202859223    0.0106386127
 C   -1.1213193510   -0.8011574733   -0.0163066615
 C   -0.6459622062   -2.1482706752   -0.0494296146
 O   -1.3494004302   -3.3380338023   -0.0206028132
 C    0.7265510259   -2.1012831767   -0.0361128730
 O    1.6565063879   -3.0894601665   -0.0409371362
 N    1.1068139819   -0.7921299919    0.0057369134
 H   -0.2066352146    1.8791209968   -0.7734725559
 H   -0.2704443814    1.8408337340    0.8582549193
 H   -2.1524118101   -0.4814305122   -0.0093478899
 H   -1.9157937820   -3.3808085397   -0.7980937603
 H    1.1649057940   -3.9196755027   -0.0338504794
 H    2.0518818524   -0.4502722441    0.0365688031