16

 C   -0.1832967945    1.4878019000    0.0683251879
 N    0.0143279864    0.0533226579   -0.1025145286
 C    0.6411741597   -0.6356006048   -1.0866932532
 C    0.7283109890   -2.0032303474   -1.0798861767
 C    1.3983409943   -2.6681372307   -2.1395901934
 N    1.9637084677   -2.1141088550   -3.1597213018
 O    1.8793173296   -0.7054266080   -3.1758912053
 C    1.2656616566    0.0642187605   -2.2234012510
 N    1.2538678273    1.3325431267   -2.3466400211
 H    0.7645948909    2.0239081689    0.1367634400
 H   -0.7507096803    1.9216518306   -0.7565908096
 H   -0.7408887486    1.6224309034    0.9986278609
 H   -0.3755800492   -0.5260880594    0.6226904305
 H    0.2923348107   -2.5854409029   -0.2757656810
 H    1.4734875258   -3.7522608140   -2.1444451222
 H    1.7413845847    1.6019736943   -3.2027751054