16

 O   -0.0426194825    1.4431289385   -0.3158524478
 C    0.0202418804    0.0418935322   -0.0468256787
 C   -1.4209401897   -0.4543984293    0.0081907672
 C   -2.0921038948   -0.2494521822   -1.3386821909
 O   -3.2758730402   -0.0822992226   -1.4874679270
 C   -1.1442506205   -0.2307287775   -2.5366316231
 O    0.1105560774   -0.8857934080   -2.3167599459
 C    0.7808657850   -0.6649612349   -1.1526565128
 N    1.9788498330   -1.0351523943   -0.9782660279
 H    0.8627333338    1.7722417607   -0.3511964183
 H    0.5461727360   -0.1584592295    0.8918726626
 H   -1.4305321180   -1.5264129097    0.2425747952
 H   -1.9956923016    0.0641004585    0.7785817330
 H   -1.6133344430   -0.7398049290   -3.3800332263
 H   -0.9776514291    0.8194062660   -2.8070240696
 H    2.3461009739   -1.4679421489   -1.8292645999