25

 C   -0.3092306011    1.5032492966   -0.6213585538
 C   -0.1225992332    0.0358336740   -0.2707870548
 O    0.6360355868   -0.5739487123   -1.2933533848
 C    0.9292051364   -1.9504205329   -1.0842142751
 C   -0.2488579979   -2.8593649327   -1.4942584024
 C   -0.0724941725   -3.1151201341   -3.0203835634
 C    1.2822882111   -2.4694747919   -3.4004686949
 C    2.0456582682   -2.3446468065   -2.0685680964
 C    3.2528696554   -1.4107302713   -2.0909793458
 H    0.6596636499    2.0023388752   -0.7132083652
 H   -0.8372352296    1.6052731553   -1.5738865196
 H   -0.8908491293    2.0108598232    0.1541093691
 H    0.3971313705   -0.0681535576    0.6971004674
 H   -1.1035662985   -0.4541050045   -0.1593406875
 H    1.2273506799   -2.1012362725   -0.0351566579
 H   -0.1985516543   -3.7987856656   -0.9336321562
 H   -1.2101032174   -2.3997752104   -1.2503704073
 H   -0.0646017434   -4.1896849721   -3.2270144325
 H   -0.8954351642   -2.6925059819   -3.6023566559
 H    1.8334342150   -3.0483359548   -4.1473467579
 H    1.1243088289   -1.4677531258   -3.8135659758
 H    2.3762915257   -3.3493201646   -1.7676051422
 H    2.9448585572   -0.3905991639   -2.3322706684
 H    3.7577436600   -1.3880870712   -1.1188032936
 H    3.9848807065   -1.7371357177   -2.8371521652