19

 C   -0.6737174011    1.5163785811    0.3361727290
 C   -0.0115240956    0.1425119631    0.2250897099
 C    0.7648738584   -0.2331111182    1.4812819148
 O   -0.9713249197   -0.9052880117    0.0295181363
 C   -1.5375056986   -1.0067238271   -1.2623703637
 C   -1.7865523463   -2.5126337845   -1.4752125076
 O   -1.5944352810   -3.0864766038   -2.5097431938
 C   -2.8132042286   -0.2999136367   -1.4092922303
 C   -3.8939412383    0.2129919624   -1.5309931370
 H    0.0867462293    2.2862068506    0.5022568205
 H   -1.2253009127    1.7735998299   -0.5712451279
 H   -1.3746713992    1.5322402088    1.1765085429
 H    0.6753103583    0.1427433248   -0.6371075804
 H    0.0957260956   -0.2621464523    2.3468532428
 H    1.2253216223   -1.2179377794    1.3689873005
 H    1.5511981826    0.5015313108    1.6772249365
 H   -0.8324460435   -0.6784299502   -2.0393555470
 H   -2.1526274484   -3.0167004504   -0.5565078182
 H   -4.8388677532    0.6860986830   -1.6408676173