16

 O    0.1321361827    0.0733282119    0.3830721915
 C   -0.0034559337    1.2546999044    0.1720208737
 C   -1.2635236954    2.0168252348   -0.2780815452
 C   -0.8203068426    3.4558162260   -0.2912532349
 C    0.4724900206    3.5115315243    0.0496463564
 C    1.3928074927    4.6974570706    0.1324627871
 C    2.1960109418    4.7195625338    1.3539183958
 C    2.8643702499    4.7021551326    2.3521868779
 N    0.9796840258    2.2243384883    0.2954288303
 H   -1.5807124505    1.6437788039   -1.2594400363
 H   -2.0850860211    1.8058637994    0.4159290047
 H   -1.4390784544    4.3015565157   -0.5505247460
 H    2.0691878472    4.6949766747   -0.7347881963
 H    0.7930223626    5.6102492250    0.0533979062
 H    3.4493538364    4.7050451400    3.2387437953
 H    1.8800236580    2.0374951545    0.7074912998