21

 C   -0.0025605374    1.5909991817    0.0148018630
 C    0.0584173005    0.0815924717   -0.0503542034
 C    0.5970589871   -0.7217849155   -1.2310722979
 C    1.8598972708   -0.0850364307   -1.7445933432
 C    2.6773158381   -0.4737361827   -2.9305339760
 C    2.1265523782    0.9422574266   -2.7925868165
 O    2.4462762524   -0.0120757776   -0.4343842870
 C    1.3147122189   -0.7260155703    0.1095998581
 C    1.6084538125   -1.7701884301    1.1360629675
 H    0.9428069140    2.0327172286   -0.3060987716
 H   -0.8024492378    1.9851665201   -0.6210915483
 H   -0.1964313785    1.9242171685    1.0402207506
 H   -0.7976238994   -0.4250018317    0.3942174669
 H    0.0363891014   -1.4997548398   -1.7335339474
 H    3.7412674954   -0.6125187858   -2.7725705616
 H    2.2346307178   -1.1341637897   -3.6695373761
 H    1.3131219132    1.2531268064   -3.4395412419
 H    2.8365681400    1.7247344714   -2.5467880665
 H    2.0233471891   -1.3124599655    2.0415588627
 H    0.6932879528   -2.3001543842    1.4154913795
 H    2.3352877410   -2.4972355211    0.7606147791