19

 C   -0.6792372545    1.1258225146   -0.0359519228
 C   -0.4053159770   -0.3229441865    0.2852155832
 N    0.9066964314   -0.8538573972   -0.1223022095
 C    0.5826419404   -0.7746558494    1.2943883306
 C    1.4138863715   -0.0889594911    2.4080375546
 C    0.9120789346    1.2054043260    3.0281157156
 N    1.1349196043   -1.3064893277    3.2027775917
 C    0.4522738627   -1.9784725044    2.2158770497
 O   -0.0110190321   -3.0861847116    2.1233871381
 H    0.2312250730    1.7231078444    0.0534389802
 H   -1.0432996932    1.2215131404   -1.0642998431
 H   -1.4409873394    1.5413567637    0.6315732214
 H   -1.2580593493   -0.9917191942    0.1694620212
 H    0.8295093490   -1.8227127778   -0.4285758684
 H    2.4701077729   -0.0074299254    2.1265724236
 H   -0.1580565270    1.1450260090    3.2461559515
 H    1.4410291358    1.4140792083    3.9642287421
 H    1.0862332431    2.0502287669    2.3554857546
 H    1.5040450840   -1.6229173478    4.0865703557