17

 C   -0.1951493159    1.5246381804   -0.0153527114
 N    0.0767438048    0.0928185243   -0.0341951592
 C    0.7016991879   -0.4881468589   -1.2163963558
 C    2.2176594447   -0.3137990683   -1.1800138668
 O    2.7549868834    0.7146712406   -0.3740953697
 C    2.3469998240    0.4434520250    0.9744360160
 C    1.1550321107   -0.4990847795    0.8235914241
 C    1.5790686609   -1.3935344427   -0.3695810823
 H    0.6696636793    2.1579681436   -0.2593393707
 H   -0.9855719287    1.7321459320   -0.7449732813
 H   -0.5792665711    1.8085717431    0.9705162376
 H    0.1336366581   -0.6975704502   -2.1182719579
 H    2.8103310848   -0.5312371038   -2.0610719285
 H    3.1626362897   -0.0316451033    1.5420438880
 H    2.0956164287    1.3947710771    1.4540033997
 H    0.8006484317   -0.9536964171    1.7512798536
 H    1.7625168869   -2.4578804123   -0.3860033355