19

 C    0.0395705951    1.5276934658    0.0050418174
 C   -0.0255573766   -0.0009845599    0.0646252449
 N    0.6381952604   -0.6417499562   -1.0887942321
 C    1.7975705598   -1.2416293001   -0.6224113724
 C    1.9070254116   -1.2897671674    0.7271046689
 C    2.9936291287   -1.9759930347    1.4986090866
 C    0.7482801455   -0.5725118897    1.2541633545
 N    0.2921899594   -0.3557250468    2.4324662116
 O    1.1035102882   -0.9361220394    3.4333558041
 H    1.0787872448    1.8674763162   -0.0503439873
 H   -0.5041304153    1.9127574031   -0.8648572273
 H   -0.4104448789    1.9450510833    0.9095303042
 H   -1.0728249228   -0.3175547996    0.1084129368
 H    0.7189606630   -0.0767823453   -1.9235631165
 H    2.4939886140   -1.6615712177   -1.3394292776
 H    3.7381454588   -2.3960098173    0.8143955243
 H    3.5020398642   -1.2859488847    2.1783010784
 H    2.6017044780   -2.7882665035    2.1181377392
 H    0.6213892420   -0.7051456063    4.2333530522