17

 C   -0.1026055657    1.4769227562   -0.3203414483
 C    0.0065848271   -0.0103283885   -0.0914790298
 C    1.2896509846   -0.7304627468   -0.3110951699
 N    0.7840529452   -0.5513907921    1.0476349949
 C    1.4610355052    0.3133386366    1.9104762487
 C    1.0100794408    0.8384063278    3.0816792048
 O    2.0229107310    1.5903044552    3.6219689184
 C    3.0361789509    1.4658314736    2.7453951832
 N    2.7752498125    0.7315851591    1.7126399848
 H    0.8659958218    1.9719961208   -0.2144253300
 H   -0.4791419922    1.6728846943   -1.3295849642
 H   -0.7979110622    1.9357079076    0.3915513393
 H   -0.9169306574   -0.5638781023   -0.2509038878
 H    1.2945789590   -1.7574875107   -0.6659640074
 H    2.1541911683   -0.1383890745   -0.5972432136
 H    0.0919420666    0.7817582659    3.6374840563
 H    3.9546272645    1.9786282478    2.9847300505