16

 O    0.0124425356    0.0165293046    0.0070976930
 C    0.0069155530    1.2220129149    0.0118067437
 C   -1.2574368942    2.1024261734    0.0316839707
 N   -0.7209874730    3.4488229859    0.0295924807
 C    0.6478164562    3.5458195720    0.0122579392
 O    1.2947263527    4.5716414988    0.0075655164
 C    1.1703369419    2.1415592045   -0.0000220972
 C    2.4684998671    1.7919064965    0.7216759597
 C    2.4490597388    1.7975228450   -0.7581895078
 H   -1.8754687456    1.8825764211   -0.8479454441
 H   -1.8521366201    1.8760330232    0.9256252179
 H   -1.2893295499    4.2804454956    0.0403601015
 H    2.9424898885    2.6218849225    1.2333201489
 H    2.4695597334    0.8368944365    1.2350577114
 H    2.4365489093    0.8464324430   -1.2786524840
 H    2.9095456963    2.6314004426   -1.2757911297