21

 C    0.0013058641    1.5017649954    0.0161699648
 C   -0.0132741102   -0.0150000256   -0.0337096969
 C   -1.3959792526   -0.7224323354   -0.0669031694
 C   -0.8415687895   -2.1437199231    0.1003401294
 C   -0.0295887544   -2.0698634187    1.4092431982
 C    1.2737902674   -2.0577316430    0.6559816700
 C    0.6843918345   -0.7509762814    1.1615097677
 C    0.5460813146   -2.1307698615   -0.7016334798
 C    0.6580489219   -0.7032501598   -1.2539822620
 H    1.0260815257    1.8896245437    0.0254932160
 H   -0.5076266960    1.9329086218   -0.8530038654
 H   -0.5038286266    1.8750488884    0.9140508619
 H   -2.0431396005   -0.4348656694    0.7689638077
 H   -1.9315048237   -0.5492481661   -1.0071880905
 H   -1.5069273041   -2.9909125221   -0.0560431901
 H   -0.2786849833   -2.4675740201    2.3856152517
 H    2.2495984823   -2.4440668627    0.9244361166
 H    1.1496740218   -0.2092280980    1.9753072855
 H    0.7545299380   -2.9698048755   -1.3630418182
 H    0.1083501674   -0.5302199844   -2.1860793727
 H    1.7012633733   -0.3998983725   -1.3949299347