20

 C   -0.1370011846    1.6147705612   -0.1818326487
 C   -0.0379839064    0.1022848625    0.0334486588
 C    0.6374644821   -0.6753641580   -1.1818113595
 O    1.5266053047   -1.7040526820   -0.6741988672
 C    1.8925763064   -1.1723979230    0.5583213035
 C    2.3810442202   -1.5570235103    1.9747375136
 N    1.9671347177   -0.0625028733    2.1134417383
 C    2.7042203303    0.1284578171    0.7849721359
 C    0.7278228172   -0.5071738799    1.2311517688
 H    0.8314099211    2.0840188643   -0.3735289870
 H   -0.7805768162    1.8341375083   -1.0410200161
 H   -0.5757129551    2.1017028258    0.6939265116
 H   -1.0631483096   -0.2681231548    0.1350287062
 H   -0.0953561796   -1.1694199558   -1.8235412173
 H    1.2169306844    0.0295611280   -1.7931771605
 H    1.7667442137   -2.2410819678    2.5636932958
 H    3.4493867396   -1.7097768546    2.1428868310
 H    3.7899732855    0.0434865995    0.8737552015
 H    2.4272655843    1.0379712773    0.2562597030
 H    0.0756447142   -1.1358344544    1.8404570482