15

 C   -0.0308475321    1.5056688086    0.0173231775
 C   -0.0136748985    0.0021413986   -0.0140064508
 C    0.2354998905   -0.7227659803   -1.1763455716
 N    0.2565322541   -2.0570652886   -1.2194981894
 C    0.0129124428   -2.6966832248   -0.0747459089
 N   -0.0319466836   -4.0757474027   -0.1097189891
 C   -0.2372605859   -1.9737914218    1.1100112311
 N   -0.2470126694   -0.6526432486    1.1378848175
 H    0.1822846686    1.9259584439   -0.9691431177
 H   -1.0072153511    1.8766063151    0.3463437824
 H    0.7124215943    1.8891728762    0.7240444095
 H    0.4333515455   -0.2086830927   -2.1145351114
 H    0.4018529175   -4.4797002210   -0.9266494333
 H    0.1689221801   -4.5611729045    0.7503816678
 H   -0.4312306827   -2.4957793473    2.0457657764