12

 O    0.0386014508    1.3747622826   -0.1630970381
 C   -0.0375137488   -0.0053001050    0.0737447522
 C   -1.4974365634   -0.4543678804    0.0137218355
 O   -2.4201002510    0.3130706088    0.0267346655
 C   -1.6742180718   -1.9707080101   -0.0644008371
 O   -3.0132301411   -2.3003397511    0.1902577425
 H    0.9528597480    1.6481197907   -0.0455496468
 H    0.5432227393   -0.5979501840   -0.6552801280
 H    0.3407128688   -0.2866308623    1.0730984077
 H   -1.3454517389   -2.2774307839   -1.0737293864
 H   -0.9736935817   -2.4437665400    0.6465468181
 H   -3.1175284303   -3.2473910854    0.0613166148