18

 O   -0.0635408533    1.4262363696   -0.0222590619
 C    0.0083657285    0.0090268427    0.0353302125
 C   -1.4143160680   -0.5337694749    0.0166899206
 C   -2.1657847458   -0.1365742178   -1.2620626810
 O   -3.4513541617   -0.7423862270   -1.2982821459
 C   -3.3580073847   -2.1353095918   -1.1917962325
 O   -2.7699140093   -2.5532993667    0.0128183520
 C   -1.4426566431   -2.0635870196    0.1321497959
 H    0.8320969777    1.7750471584   -0.0456021654
 H    0.5726315729   -0.3947601987   -0.8223158295
 H    0.5214739665   -0.3285183851    0.9506364824
 H   -1.9589759509   -0.1165197687    0.8715598711
 H   -2.3175852603    0.9420180290   -1.3133667154
 H   -1.5799450637   -0.4455460507   -2.1468711199
 H   -4.3758399872   -2.5298643457   -1.2036172647
 H   -2.7792060229   -2.5388685209   -2.0467849858
 H   -0.8062238094   -2.5114934047   -0.6525572880
 H   -1.0706759154   -2.4034014972    1.1030452855