13

 O    0.1311908257    1.3782415742   -0.0108134218
 C    0.0353695561   -0.0140152992   -0.0020946796
 C   -1.3778494442   -0.5045641614    0.0772546783
 N   -2.3428840912    0.3479165821    0.1284206723
 C   -3.6198620215   -0.1722903831    0.2002037418
 N   -3.9705031917   -1.4101382764    0.2227978873
 O   -2.9327899902   -2.3390235369    0.1679360741
 C   -1.6126870455   -1.9655523729    0.0937820517
 O   -0.7552073725   -2.8029170570    0.0483100448
 H   -0.7715502306    1.7245600549    0.0384849150
 H    0.4932524888   -0.4546845530   -0.9031991789
 H    0.5899877750   -0.4504386816    0.8450878819
 H   -4.4408883282    0.5348065604    0.2435803931