13

 O    0.0344032508   -0.0289842401    0.1311645442
 C   -0.0095332946    1.1437330041   -0.0616654019
 O    1.0807572273    1.9371156453    0.2121866101
 C    0.9785055278    3.2942130286    0.1240226643
 N   -0.2270268898    3.8470251701    0.2036596500
 C   -0.2553462631    5.1807331955    0.1326892028
 C    0.8976464068    5.9425486992    0.0062433545
 C    2.0954620790    5.2360687751   -0.0551210722
 N    2.1501139548    3.9055726541   -0.0043791460
 H   -0.8561395920    1.7098266002   -0.4690472437
 H   -1.2377188980    5.6426020882    0.1902402591
 H    0.8673005164    7.0234057603   -0.0389209580
 H    3.0483466947    5.7506167194   -0.1522653934