21

 O    0.0239818134    1.3259155722    0.4384673038
 C   -0.0103914345    0.0065471496   -0.0933563549
 C   -1.4260746223   -0.5063082817    0.0019832650
 C   -1.8418726656   -1.1509947336    1.2989943564
 C   -1.6176996957   -2.0085635530    0.0739682943
 C   -2.8064750525   -2.6329531936   -0.6565399559
 O   -3.4129002635   -1.7825935699   -1.6149389267
 C   -3.7208031496   -0.5104462888   -1.0758754047
 C   -2.4444147117    0.2889773740   -0.8036082079
 H    0.8893373944    1.7016457969    0.2522412148
 H    0.3120922935    0.0006311432   -1.1476476004
 H    0.6656409204   -0.6631666244    0.4628373789
 H   -1.1127904293   -1.1922898236    2.1012117327
 H   -2.8649501193   -1.0205793317    1.6393035180
 H   -0.7166171199   -2.6150779180    0.0696665699
 H   -2.4801014966   -3.5155482520   -1.2137547222
 H   -3.5652454689   -2.9636587303    0.0733036459
 H   -4.3398245914    0.0008584656   -1.8186716041
 H   -4.3268608482   -0.6184893135   -0.1598734866
 H   -2.6810609177    1.2319403847   -0.2992522034
 H   -1.9957744851    0.5468222580   -1.7712007827