19

 C   -0.0034703257    1.6276393778    0.0055016398
 C    0.0264979482    0.0954718862    0.0287593000
 C    0.7698375825   -0.5323002309   -1.1776906030
 C    1.5046609124   -1.7925648387   -0.6338078199
 N    2.8453828199   -1.9191653381   -1.2236497663
 C    1.5669588864   -1.5043339642    0.8591495083
 C    0.7705517286   -0.4978982494    1.2035685128
 C    0.6969076295   -3.0178086255   -0.8649738724
 N    0.1019297296   -3.9909519910   -1.0607387949
 H    1.0117252442    2.0387782286    0.0032394584
 H   -0.5198693946    1.9954534116   -0.8870407999
 H   -0.5276865847    2.0256707606    0.8804415992
 H   -1.0128683767   -0.2635500265    0.0527284198
 H    0.1138520287   -0.7565335834   -2.0215654385
 H    1.5538639848    0.1501290073   -1.5201470283
 H    3.3102434005   -2.7410905051   -0.8452529834
 H    2.7617827146   -2.0839781508   -2.2243128066
 H    2.1719603280   -2.1095966461    1.5240327127
 H    0.6335055238   -0.1356410126    2.2172337822