18

 C   -0.7932758240    1.3385020265    0.0480656612
 C   -0.0300388142    0.0164527065   -0.0216824476
 C    0.7393928746   -0.1623967264   -1.3250222490
 C    1.7722192776   -1.0002867245   -1.4241715482
 C    2.1801057740   -1.8001004478   -0.2427290054
 C    3.1604825635   -1.2776733330    0.7774698218
 N    1.7327237625   -1.3005815141    1.0486256207
 C    1.0033172759   -0.1032130383    1.1028811037
 O    1.1970009372    0.7429525472    1.9421791990
 H   -0.1092234633    2.1872355103   -0.0357352428
 H   -1.5265831664    1.3990525332   -0.7621177117
 H   -1.3173264620    1.4328967473    1.0013662715
 H   -0.7377654372   -0.8189468357    0.0797510312
 H    0.4235601180    0.4392296261   -2.1734998133
 H    2.3080095488   -1.1416665272   -2.3580443011
 H    2.1250648478   -2.8837481355   -0.3541010426
 H    3.7662017094   -1.9764935920    1.3477801828
 H    3.6106549378   -0.3049093226    0.6002016696