16

 O   -0.2069146927    1.4390186805    0.1925030149
 C   -0.0769277590    0.0592154262   -0.1096727369
 C   -1.4401685648   -0.5785767123    0.0877943255
 C   -1.3896824089   -2.1126888374    0.1383747599
 C   -1.2887681418   -2.1318264439    1.6023125423
 C   -1.8823329070   -0.6679862234    1.5837528529
 C   -3.2019477868   -1.4116347228    1.4495269202
 O   -4.3346790908   -1.2458079584    1.7690144366
 N   -2.5661596772   -2.6289887594    0.9323516309
 H    0.6427581351    1.8645262495    0.0448026037
 H    0.2499498547   -0.0963192983   -1.1506253671
 H    0.6619789402   -0.4299222002    0.5455316570
 H   -2.1661619676   -0.1176161123   -0.5910380760
 H   -0.9950469005   -2.8029210299   -0.5969035623
 H   -0.7739005013   -2.7301940081    2.3384773398
 H   -1.7237275316    0.1557642705    2.2722021786