18

 C    0.5146249001    1.4573432459   -0.1724629662
 C   -0.0794024011    0.0638193348    0.0772789778
 N    0.1560858886   -0.8522380926   -1.0600585328
 C    1.4114670220   -1.5824329090   -0.7826920362
 C    1.4809273486   -1.7047244653    0.7311783303
 C    1.6949334483   -2.9408517543    1.5046581165
 O    2.7126929731   -1.9524049591    1.4023484995
 C    0.5951232472   -0.6008850504    1.2846726472
 O    0.4627092925   -0.3215167838    2.4479319067
 H    1.5910074155    1.4024522974   -0.3640241410
 H    0.0383049485    1.9115579297   -1.0447004966
 H    0.3571403927    2.0954319744    0.7014005293
 H   -1.1527095351    0.1618081536    0.2651241792
 H   -0.6037516257   -1.5229751126   -1.1001134263
 H    1.4187453038   -2.5418747740   -1.3037714850
 H    2.2705590556   -1.0039006367   -1.1438312299
 H    1.2364730405   -3.0318656655    2.4879898279
 H    1.8801787049   -3.8703807026    0.9670651397