18

 O   -0.0860827796    1.0244927849    1.4052670463
 C    0.0073203596    0.0157229813    0.4420994602
 C   -0.6248499327   -1.2904897100    0.8257916931
 C   -1.2477661771   -0.4478635079   -0.2642736803
 C   -2.5558074586    0.2911492355   -0.1038996136
 C   -3.7295985680   -0.4129888137    0.5084898075
 N   -3.0677428485    0.6706516411    1.2309207999
 C   -2.7777380876    1.2774010340   -1.1378092850
 C   -2.9245297973    2.0787369161   -2.0221789894
 H   -0.3333817259    1.8439499862    0.9621324626
 H    0.9446473242   -0.0038046076   -0.1126633798
 H   -0.1453718659   -2.2199532255    0.5411293445
 H   -1.0980721167   -1.3138186453    1.8023829456
 H   -1.1020319218   -0.8109317034   -1.2776725883
 H   -4.7323831054   -0.1865884246    0.1594033010
 H   -3.5651070405   -1.4408500461    0.8221126960
 H   -2.4374195180    0.3241628060    1.9488439007
 H   -3.0731104701    2.7925824490   -2.7941345209