20

 C    0.2259980382    1.5683488309    0.1544338889
 C    0.0374286943    0.0520771913    0.0596877951
 C    0.8915166234   -0.5655645064   -1.0498084957
 C    0.7560578726   -2.0581232489   -1.2143730917
 N    0.0032208033   -2.6948532863   -0.3997455847
 O   -0.0359157422   -4.0731830525   -0.6782793337
 C    1.5308554798   -2.7290901764   -2.2985046869
 C    1.3803717559   -2.3423783673   -3.7144341378
 O    2.5184509826   -1.9342763792   -2.9654545984
 H    1.2697416856    1.8286226355    0.3635362647
 H   -0.0557714632    2.0653781371   -0.7808388398
 H   -0.3885923024    1.9934004674    0.9538665328
 H    0.2905462584   -0.4192722809    1.0151112863
 H   -1.0166860601   -0.1867326496   -0.1182948637
 H    0.6564035103   -0.0874933531   -2.0117095809
 H    1.9534680984   -0.3392892108   -0.8863451213
 H   -0.5829029324   -4.4072176400    0.0399013550
 H    1.8335217862   -3.7503528261   -2.0847439246
 H    1.5633743969   -3.0868172085   -4.4876438249
 H    0.6854972745   -1.5484834961   -3.9835752587