15

 O    0.3080189172    0.2584869321   -0.8748555692
 C   -0.0019075944    1.2254616465   -0.2435435051
 C   -1.3789402982    1.7662755703   -0.0082675061
 C   -1.5980126215    3.0989406304   -0.7601240559
 O   -2.7248338314    3.5428151135   -0.8143375515
 C   -0.5102003829    3.8314990984   -1.4719520185
 C    0.8262748268    3.7122369518   -1.4589751671
 C    1.6816113647    2.7829772372   -0.6537458455
 O    0.9199703419    2.0861171062    0.3212093751
 H   -2.1505798175    1.0652135174   -0.3293990758
 H   -1.5150231325    1.9805605781    1.0567630781
 H   -0.9413726587    4.6064818258   -2.1001547227
 H    1.3927433829    4.3774019333   -2.1097484249
 H    2.2044265027    2.0773807312   -1.3162746389
 H    2.4452583010    3.3486686979   -0.1096390520