18

 C   -0.4958586311    0.6611089716    0.2393260750
 N    0.8514277317    0.5438414129   -0.3118941287
 C    1.0636969137   -0.5392721628   -1.2357305550
 C    1.0321327689   -2.0126206796   -0.6349825284
 N   -0.0248324676   -2.3075180249   -1.6193118277
 C   -0.8449507062   -3.1162523392   -2.3653433579
 C   -1.3452026864   -2.2552812112   -3.3278222745
 N   -0.8327132044   -0.9719116089   -3.2140445596
 C   -0.0444554012   -1.0743246160   -2.1686851225
 H   -1.2845543896    0.7382876752   -0.5243966538
 H   -0.7218727039   -0.2083225054    0.8659021874
 H   -0.5390288067    1.5443337760    0.8819938165
 H    1.1252017488    1.4171925699   -0.7449861207
 H    2.0022156615   -0.3519113131   -1.7653885254
 H    1.9472833447   -2.5929129568   -0.7783846761
 H    0.7037315816   -2.0804249469    0.4045991226
 H   -1.0257064419   -4.1574540106   -2.1603439733
 H   -2.0612730018   -2.4964245302   -4.0999892978