16

 C    0.1090039832    1.4526088022    0.0679220007
 N   -0.1882378581    0.0459320946   -0.1412394240
 C    0.4988556678   -0.6913552643   -1.0722609581
 C    0.6888452672   -2.0683110332   -1.2276230789
 C    0.2191605474   -3.0968525895   -0.3265297061
 O    0.3705738880   -4.2936357831   -0.4414354530
 N    1.4165431219   -2.3080994391   -2.3887470989
 C    1.6588947276   -1.1467194034   -2.9062527721
 N    1.1259700234   -0.1165023204   -2.1435473356
 H    1.1694057057    1.6470130015    0.2879735958
 H   -0.1784064529    2.0419814631   -0.8109052738
 H   -0.4898218337    1.8160233478    0.9047455469
 H   -0.4199406183   -0.4713910463    0.6916758988
 H   -0.3362486142   -2.6857938616    0.5567381403
 H    2.2083467091   -0.9451366169   -3.8138121654
 H    1.1709595558    0.8668273987   -2.3508163167