19

 C   -0.0731179906    1.5637276700    0.0184165297
 C    0.0250989750    0.0421471891    0.0126884576
 C    0.7763694494   -0.5525436465   -1.2086512585
 C    1.4781569208   -1.8409271732   -0.6940968058
 C    1.6359667964   -1.5451774334    0.7670008757
 C    2.2492831100   -1.9350788859    1.9294620537
 N    1.8252561524   -1.1428374861    2.9761960131
 C    0.9638114144   -0.2911195961    2.4558781099
 N    0.8240347082   -0.4911100959    1.1166372354
 H    0.9230412246    2.0157859928   -0.0081955683
 H   -0.6328963310    1.9050972005   -0.8576604347
 H   -0.5941453608    1.9283093387    0.9088032327
 H   -0.9862175230   -0.3836308720    0.0721128769
 H    0.1037312972   -0.7358260111   -2.0497466054
 H    1.5320845172    0.1684075062   -1.5383844890
 H    0.8472470431   -2.7241755214   -0.8571882549
 H    2.4250951688   -2.0264587122   -1.2078051121
 H    2.9697678292   -2.7241571336    2.0814471750
 H    0.4368621485    0.4815636500    2.9946168891