20

 C    1.5405679205    0.6380286987   -0.3041670938
 C    0.1380847168    0.1964624241    0.0505199764
 C   -0.1159252416   -1.1198378287    0.7118975098
 N   -0.3537074740    0.1292155239    1.4266039247
 C    0.4067462938    0.5698904888    2.5513487058
 C    0.3712787224   -0.1742484341    3.8439827083
 C    1.7232746959    0.0225805161    3.1623450622
 C    2.4873108456   -1.0914102734    2.6893745177
 C    3.1898855797   -2.0013674520    2.3283900341
 H    2.2940840726    0.1650108983    0.3282664452
 H    1.7577456858    0.3711079347   -1.3441999137
 H    1.6459480527    1.7255296221   -0.2172783842
 H   -0.6249221253    0.5629252314   -0.6361129875
 H   -1.0101780122   -1.6941710199    0.4797623022
 H    0.7541663305   -1.7120262087    0.9752377887
 H    0.3538572935    1.6524852310    2.6366866163
 H    0.1759104271    0.3536966724    4.7707591863
 H   -0.0271405476   -1.1822826196    3.8039426471
 H    2.3420029710    0.8098822815    3.5868748666
 H    3.7947931828   -2.8103489167    2.0015066181