22

 C   -0.1587299610    1.5405187386    0.0221020115
 C   -0.0145084542    0.0409798500    0.0069906278
 C   -0.0481083070   -0.6517062693   -1.1348400659
 C    0.0866746871   -2.1505532800   -1.2675280911
 C    1.4024030331   -2.7366526054   -0.7181867270
 C    1.4935754047   -2.7794142542    0.8128951730
 C    1.4750218156   -1.4203585012    1.5265200611
 C    0.1680430379   -0.6195737295    1.3626548526
 H    0.7193414904    2.0188915383    0.4765998179
 H   -0.2855802181    1.9493313173   -0.9840270568
 H   -1.0223317308    1.8482047719    0.6268849378
 H   -0.1832972445   -0.0990216261   -2.0627516821
 H   -0.7543171586   -2.6512686393   -0.7631820426
 H   -0.0013069683   -2.4180756464   -2.3257212801
 H    1.5111774294   -3.7611408168   -1.0957571529
 H    2.2462568591   -2.1642306503   -1.1243661779
 H    0.6633800023   -3.3893359623    1.1984031376
 H    2.4120374022   -3.3091288430    1.0950947738
 H    1.6396741367   -1.5962324035    2.5968705696
 H    2.3176898756   -0.8077189846    1.1805249030
 H    0.1301947129    0.1518991246    2.1394104572
 H   -0.6811379145   -1.2893679887    1.5652510934