15

 C    0.0700673957    1.5493522821   -0.2925829280
 C    0.0387253655    0.0783618499   -0.0510996553
 N   -0.3240860724   -0.8404113397   -0.9178558344
 C   -0.1824144179   -2.0569085901   -0.2829796876
 C    0.2655228162   -1.8533714358    0.9907455130
 N    0.4033221531   -0.4929896059    1.1423464508
 O    0.5930908815   -2.6809594359    2.0258981855
 C   -0.3603614838   -3.5777424631    2.4381820738
 O   -0.1323697145   -4.3905446700    3.2740764120
 H    1.0809445606    1.9590964796   -0.1850142313
 H   -0.2721367128    1.7377971903   -1.3107706044
 H   -0.5836961901    2.0922963298    0.3995838065
 H   -0.3932203484   -2.9923975492   -0.7766583461
 H    0.7353872110   -0.0320082777    1.9737145502
 H   -1.3126016739   -3.4346581942    1.8988629254