17

 C    0.4422723229    0.6318941808    0.7145534277
 C   -0.1724879084    0.0772208096   -0.5552588987
 O    0.3151477592    0.2552592079   -1.6471082904
 C   -1.4395456250   -0.7695625063   -0.3850398238
 C   -1.0648822706   -2.1911404952   -0.0620608295
 C   -0.2891280175   -3.0499680171   -0.8212776984
 N   -0.2148173656   -4.2106239089   -0.1289090915
 N   -0.8847102052   -4.1811280574    1.0374420330
 C   -1.3990475243   -2.9552895271    1.0803147705
 H    1.4165737207    1.0726939823    0.5009293563
 H   -0.2183709285    1.3985284119    1.1372814507
 H    0.5395461658   -0.1568268911    1.4677761502
 H   -2.0637380115   -0.3675842756    0.4196035513
 H   -2.0021863943   -0.7102967889   -1.3213679928
 H    0.2004013070   -2.9130200143   -1.7725083815
 H    0.2702175163   -5.0523233347   -0.3902023430
 H   -2.0013572710   -2.6552181560    1.9262830701