16

 O   -0.0038614835    0.0006352548    0.0034076887
 C   -0.0312595819    1.1986339681    0.0105319451
 C   -1.2638966114    2.0996763027    0.0325553379
 C   -0.7141418495    3.5235606013    0.0327624221
 C   -1.3716996703    4.6531508788   -0.7108856234
 C   -1.3509252875    4.6449333381    0.8063120892
 N    0.7210583775    3.3837437633    0.0123498216
 C    1.2172543142    2.1118825600   -0.0014373741
 O    2.3753314912    1.7680691893   -0.0191275086
 H   -1.8857586817    1.8878234202   -0.8422635971
 H   -1.8612200064    1.8781485621    0.9219627766
 H   -0.7321288472    5.3656054604   -1.2218427380
 H   -2.3101647917    4.4529846377   -1.2172597758
 H   -2.2751993424    4.4391628668    1.3360045832
 H   -0.6974979767    5.3519106865    1.3072495946
 H    1.3426800476    4.1785186599    0.0084203979