17

 C   -0.0668388328   -1.2910492966    0.0207920009
 C   -0.0676171745   -0.0883921958    0.0202700822
 C   -0.0533848216    1.3722366647    0.0197215270
 C   -0.4772046648    2.0088419724    1.4141370401
 N    0.7830845648    2.2772444018    2.1526693561
 C    1.6657867462    2.2323099997    1.2436983666
 C    3.1450296968    2.0237334058    0.9848532142
 C    2.6427233369    1.3330261982   -0.3321224045
 N    1.3051695736    1.9471702554   -0.0729866810
 H   -0.0802637637   -2.3532352530    0.0231095471
 H   -0.6909272494    1.7425111771   -0.7883973157
 H   -1.0218813150    2.9444315182    1.2392187564
 H   -1.1209074469    1.3375186548    1.9853793088
 H    3.7119324373    2.9406857200    0.8152966816
 H    3.6627983902    1.3938071591    1.7079513284
 H    3.0963094485    1.6477890857   -1.2738626626
 H    2.6332718743    0.2412303221   -0.2584917155