19

 O    0.0700095465    1.4737420356    0.0648353199
 C    0.0697935227    0.0521367690    0.0481832512
 C   -1.3454549590   -0.5846452622   -0.0159104068
 C   -1.2242975974   -1.8192357477   -0.9443263283
 C   -2.4518495678   -2.0210848611   -1.8647306852
 C   -2.3494069721   -3.2058146093   -2.7080776448
 C   -2.2375234522   -4.1902182834   -3.3892619027
 C    0.0689803867   -1.5563490212   -1.6832753387
 C    0.7671761157   -0.5582301153   -1.1459101047
 H   -0.2756581737    1.7695442413   -0.7849907232
 H    0.5832583780   -0.2206899019    0.9790107859
 H   -1.7479406853   -0.8264874773    0.9705721149
 H   -2.0213515911    0.1528007899   -0.4670872000
 H   -1.1178181474   -2.7343557388   -0.3458002562
 H   -3.3554037628   -2.0905341136   -1.2454673636
 H   -2.5773920186   -1.1299198413   -2.4937857399
 H   -2.1528403672   -5.0569989402   -3.9965535472
 H    0.3725333615   -2.1620640821   -2.5301086168
 H    1.7395717135   -0.2072565606   -1.4739871838