19

 C   -0.0803738171    1.6700777248   -0.1035165957
 C    0.0272526611    0.1484997778   -0.0947910004
 C    0.7475191331   -0.5620278045   -1.2504366167
 C    2.2266631350   -0.3260273798   -1.2663896639
 O    2.8238462350    0.8962063924   -0.9695236334
 C    1.6933805841   -1.2908758459   -0.2551537639
 C    1.0008397569   -0.6044106925    0.9253812597
 C    1.7936524204    0.2087179965    1.9080256355
 O    2.9388860735    0.5785317458    1.7696924897
 H    0.8990573189    2.1374368832   -0.2095703996
 H   -0.6971900728    1.9889358608   -0.9510751712
 H   -0.5623047362    2.0392533727    0.8089211528
 H   -0.9689695167   -0.2830853377    0.0348988167
 H    0.2313561652   -0.9691599180   -2.1126238071
 H    2.7094479266   -0.8398863126   -2.0993674468
 H    3.2328617354    0.8136291875   -0.0937257482
 H    2.0016197250   -2.3298291047   -0.2362537409
 H    0.4001871185   -1.3085186016    1.5107294171
 H    1.2398331741    0.4807257057    2.8335945563