14

 N    0.1452432943   -1.1014633583    0.0542613707
 C    0.0530677519    0.0507833448    0.0003667262
 C   -0.1145853392    1.4707856099   -0.0539597054
 C    0.2593208888    2.2848875672   -1.2415132888
 N    1.0695725820    2.4229578195   -0.0277214198
 C    0.3236800967    3.2207845916    1.0327662414
 C   -1.0675869123    3.6909144746    0.7149863428
 C   -0.8300692174    2.2513552004    1.0748467706
 H    0.7953981154    1.7610447731   -2.0271033764
 H   -0.3796616182    3.0859507864   -1.5926831775
 H    0.9298900016    3.6344339608    1.8267822425
 H   -1.5050206698    4.2648266932    1.5266474236
 H   -1.4007997915    4.0182639861   -0.2627302859
 H   -1.2863867523    1.7504405206    1.9165777659