21

 C    0.1555718825    0.9300366662   -0.7744468588
 O   -0.0263533637   -0.3361205849   -0.1768012113
 C   -1.3317741799   -0.5378108737    0.3288395255
 C   -2.3280975380   -0.9949545445   -0.7794933363
 C   -1.9089133419   -2.4682955542   -0.4898646991
 O   -0.8588565603   -2.9469855179   -1.2953343341
 C   -1.4235130478   -1.9682926093    0.9140091931
 O   -0.2433756673   -2.4729527125    1.4497807215
 C   -0.3475594520   -3.8297428377    1.8380427798
 H    1.1949121138    0.9827064234   -1.1062986086
 H   -0.5027439100    1.0818291822   -1.6420636366
 H   -0.0310917913    1.7396122260   -0.0529746788
 H   -1.6223714165    0.2988227128    0.9785093432
 H   -3.3705086939   -0.7875859465   -0.5221731294
 H   -2.1255829720   -0.6407018655   -1.7920279526
 H   -2.6975254949   -3.2238255845   -0.5159656142
 H   -0.1034611750   -2.3632353597   -1.1407573516
 H   -2.2551109238   -2.0184950828    1.6367823227
 H   -1.1368609796   -3.9737810202    2.5927255989
 H   -0.5543689303   -4.4782804954    0.9774955963
 H    0.6129355020   -4.1114787313    2.2756238004