17

 C    0.1049354014    1.5074302815   -0.1072485912
 C    0.0295992656    0.0207072082    0.0347141624
 N    0.0355819550   -0.7518309814   -1.0561706398
 N   -0.0485492635   -2.0448280563   -0.5917028786
 C   -0.0988754039   -2.0506195719    0.7479744685
 C   -0.0505379504   -0.7674445150    1.2081009586
 C   -0.1576218955   -0.8208889670    2.7075436006
 C   -0.0980593538   -2.3737557599    2.9406662390
 O   -0.2013592945   -3.0508624356    1.6402810459
 H    0.9844842103    1.9144574047    0.4043390731
 H    0.1641331598    1.7758076352   -1.1640361826
 H   -0.7752899174    1.9961381676    0.3258181261
 H   -0.0521574895   -2.8094878713   -1.2426640421
 H    0.6593216721   -0.3240019598    3.2413608515
 H   -1.0948753782   -0.3987919640    3.0902693846
 H    0.8545115753   -2.6787544499    3.3832575559
 H   -0.9140276430   -2.7498809352    3.5605249581