17

 N   -0.0979279216   -1.1896372041   -0.2640391784
 C   -0.0590187520   -0.0421638477   -0.1282299003
 C   -0.0268301748    1.4116856121    0.0398908856
 C   -0.6721674386    1.9082089590    1.3793299917
 C    0.5375975264    2.3313335292    2.2176514219
 C    1.5418530613    1.1593228766    2.3412562303
 N    2.3423164880    1.6508360497    1.1644000768
 C    1.5475064090    2.9316966376    1.2068121354
 C    1.3925783911    2.0004012080    0.0742773229
 H   -0.5572450807    1.8387239242   -0.8180703164
 H   -1.3239111505    2.7622500076    1.1714169014
 H   -1.2710825674    1.1316534281    1.8622127754
 H    0.2946778819    2.8868856449    3.1224820301
 H    2.1770972753    1.2271415928    3.2267498566
 H    1.1594010412    0.1376100581    2.2494901305
 H    2.0002101854    3.9156785548    1.1848263196
 H    1.8990039558    2.1671928891   -0.8695558533