21

 C    0.2634500399    1.5689781434   -0.0006997295
 C    0.1127528349    0.0665723580    0.0841269660
 O    0.9645436085   -0.6645724191   -0.8401243817
 C    1.3823401565   -1.5872559923    0.1919374567
 C    2.8740408760   -1.5307760901    0.4746609130
 C    3.0006254423   -0.2003089551    1.2307416839
 O    1.7773756188   -0.0418805961    1.9543799609
 C    0.7166100430   -0.7155843632    1.2870884212
 C   -0.2242718400   -1.2953871667    2.3205257471
 H    1.2674557796    1.8910381049    0.2818892136
 H    0.0576949299    1.9068797267   -1.0213037001
 H   -0.4527726252    2.0562304765    0.6693687293
 H   -0.9374071468   -0.2161008538   -0.0837860896
 H    0.9849959801   -2.5944259308    0.0267913089
 H    3.1590625345   -2.3753282245    1.1114578304
 H    3.4720928212   -1.5630597864   -0.4392487450
 H    3.8185794695   -0.1811563552    1.9561116621
 H    3.1437725688    0.6282583618    0.5249565545
 H   -0.6414955637   -0.4976072678    2.9435709218
 H   -1.0519679319   -1.8276048619    1.8434106701
 H    0.3078873042   -1.9894735884    2.9777262361