21

 O    0.1625035219    1.2812039651    0.4148247932
 C    0.0198502235   -0.0468516157   -0.0268780094
 C   -1.4468652728   -0.5172319313   -0.1762325994
 C   -2.0886695448   -0.1719433490   -1.5344159276
 C   -2.2452130301    1.2716935021   -1.9323376433
 O   -1.7506390948    2.2337075684   -1.3912665841
 C   -1.5528832444   -2.0187552898    0.0418523991
 C   -1.6340307252   -2.5845212561    1.4348288193
 C   -2.8393486877   -2.6396120509    0.5262255470
 H   -0.3990222551    1.8342415790   -0.1488963816
 H    0.5559545671   -0.2275820026   -0.9775221943
 H    0.5040361181   -0.6729757592    0.7300474317
 H   -2.0142743290   -0.0126483657    0.6168488912
 H   -1.5242522120   -0.6446491393   -2.3560577864
 H   -3.0892010585   -0.6226845608   -1.6053099356
 H   -2.8861098019    1.4199113691   -2.8294928192
 H   -0.9855566643   -2.6104505682   -0.6747311696
 H   -1.1087962167   -3.5081958791    1.6506146137
 H   -1.6583786828   -1.8843168496    2.2634125608
 H   -3.6683727999   -1.9758379614    0.7521918630
 H   -3.1398275106   -3.6003765350    0.1228430615