18

 O   -0.0545469398    1.4117206571    0.0298105084
 C    0.0071759704    0.0025201631   -0.0382505626
 C   -1.3690958721   -0.6029184508   -0.3690100103
 C   -1.6541679379   -0.0035730527   -1.7677482545
 C   -0.2399990257   -0.0035959782   -2.4350851307
 C    0.6405770830   -0.5894125591   -1.3168172197
 O    0.3549994744   -1.9848768772   -1.1746445555
 C   -0.9498909915   -2.0673277251   -0.5566617415
 H    0.8388159920    1.7450071195    0.1583191012
 H    0.4520749334   -0.4303127832    0.8679733380
 H   -2.1539977241   -0.4511845521    0.3726874965
 H   -2.3822376054   -0.6046074806   -2.3195299672
 H   -2.0492739430    1.0097746526   -1.6801993615
 H   -0.1844083543   -0.6323325163   -3.3264163568
 H    0.0774191311    1.0070831393   -2.7038108208
 H    1.7186852963   -0.4739700717   -1.4468793553
 H   -0.8644796774   -2.6105220348    0.3936880312
 H   -1.6350095595   -2.6218385298   -1.2098742690