23

 C    0.0966552636    1.6594706774   -0.3565501279
 O   -0.2319432847    0.2955939960   -0.2364121145
 C    0.5539143489   -0.5628065743   -1.0359744552
 C    1.9996858034   -0.7909952091   -0.5397218959
 C    2.4282182295   -2.0872811731   -1.2458691977
 C    3.0443519026   -3.2086783976   -0.3656196299
 C    1.6391475658   -3.8643738083   -0.2404863824
 C    1.1030507915   -2.9190563758   -1.3606860121
 C   -0.0693262393   -1.9721327656   -1.0463911979
 H    1.1086173449    1.8822001546    0.0129806959
 H    0.0300963417    2.0034327052   -1.4013685098
 H   -0.6240024748    2.2208787749    0.2437337625
 H    0.5895926232   -0.1670195943   -2.0667536474
 H    2.6688805442    0.0495457198   -0.7432110600
 H    1.9629480664   -0.9286371596    0.5484945826
 H    2.9554148521   -1.8747369964   -2.1797576368
 H    3.7475053368   -3.8342976567   -0.9220412010
 H    3.5306295679   -2.8919923892    0.5614323667
 H    1.5868418089   -4.9368592976   -0.4432399218
 H    1.1605027014   -3.6801149671    0.7258182206
 H    0.9818911502   -3.4358398876   -2.3151422315
 H   -0.4854052369   -2.1630716766   -0.0508654227
 H   -0.8941307373   -2.0440445590   -1.7600596539