21

 C    0.1350697889    1.0753259601   -0.6204948450
 O   -0.2039899939    0.2217223204    0.4541259604
 C   -1.3945196184   -0.4680599226    0.2462766146
 C   -1.3753926562   -1.7415047906   -0.5682523094
 C   -1.5481041012   -1.7866347933    0.9408769944
 C   -0.4428640797   -2.3315523446    1.8211648053
 C   -0.4493024631   -3.8706793663    1.8883461438
 C    0.7197013110   -4.4019261812    2.6832428084
 O    0.6386441155   -5.1371481883    3.6332886974
 H    1.0760015680    1.5645799217   -0.3586021819
 H    0.2657255985    0.5158251557   -1.5578305590
 H   -0.6340288226    1.8456575668   -0.7820523282
 H   -2.2722350909    0.1757366607    0.1647953592
 H   -2.2177080352   -1.9774146055   -1.2092696590
 H   -0.4083932550   -2.0455677164   -0.9573433842
 H   -2.5524192300   -2.0083408400    1.2935241770
 H    0.5231024840   -1.9763813734    1.4478538784
 H   -0.5484580661   -1.9238247183    2.8341543930
 H   -1.3752042703   -4.2552693621    2.3262482024
 H   -0.3647241833   -4.2685534364    0.8665061060
 H    1.7140843099   -4.0468926063    2.3196513465