25

 C    0.1520897036    1.5279498052   -0.0321842069
 C    0.0349228990    0.0006400909    0.0727756805
 C    0.6517418726   -0.4972788914    1.3878971629
 C   -1.4192318854   -0.4923366971   -0.0389428534
 C   -2.1653132157   -0.1516270963   -1.3421092983
 C   -1.4707508843   -0.7139432601   -2.6008416957
 C   -3.5856382590   -0.7297330593   -1.3019217654
 C   -4.6841331107    0.1240209243   -1.9095707669
 O   -3.8140707678   -1.8194236725   -0.8279141019
 H    1.1919751238    1.8492551464    0.0881926702
 H   -0.1973036055    1.9054152729   -0.9983153557
 H   -0.4383965235    2.0197586987    0.7507324220
 H    0.6149056843   -0.4408399356   -0.7487721643
 H    0.1196201200   -0.0810990546    2.2518091128
 H    0.6035489657   -1.5885460135    1.4631399783
 H    1.7023230020   -0.1994972596    1.4707841167
 H   -1.4483170883   -1.5801698736    0.0845073791
 H   -1.9898812941   -0.0812668633    0.8058632726
 H   -2.2479501975    0.9359907028   -1.4550438483
 H   -2.0571632312   -0.5170753813   -3.5045332941
 H   -0.4863372291   -0.2611075008   -2.7445612277
 H   -1.3436292750   -1.7974043967   -2.5119479549
 H   -4.3975044664    0.4834098482   -2.9039096478
 H   -5.6144561020   -0.4422706898   -1.9684800970
 H   -4.8390926554    1.0137055261   -1.2869315769