22

 C   -0.0304044800    1.3878703848    0.1302955634
 O   -0.0115187499   -0.0169663392    0.1699299656
 C   -1.2701242313   -0.5910653812   -0.1271821564
 C   -1.1458134352   -2.0959583744   -0.0001741805
 C   -0.9382019676   -2.7098928587    1.4307901591
 C   -2.2189247084   -3.5203642566    1.2198651903
 N   -3.3023273165   -2.5240427729    1.0018879545
 C   -2.4346405840   -2.9352763307   -0.1340966513
 C   -3.0029436141   -3.5113857207   -1.3942257738
 H    0.9743753401    1.7386994262    0.3799926588
 H   -0.2993403632    1.7670981215   -0.8693407552
 H   -0.7446360700    1.8095611363    0.8557450799
 H   -2.0416677436   -0.2206255928    0.5640092495
 H   -1.5826002458   -0.3149490314   -1.1507891472
 H   -0.3747973265   -2.4580598895   -0.6870436717
 H   -0.0354606638   -3.3199368708    1.4975676965
 H   -0.9655939851   -2.0041639168    2.2644266672
 H   -2.4556710264   -4.5106892808    1.5917381655
 H   -4.1723563773   -3.0490050157    0.9076341384
 H   -3.4729426586   -2.7379202458   -2.0135727772
 H   -2.2218737705   -3.9890239027   -1.9957998280
 H   -3.7643708720   -4.2675965482   -1.1721054974