18

 O   -0.0406343129    1.3107366897   -0.4487094303
 C    0.0702838787   -0.0561398069   -0.0933596218
 C   -1.3046267569   -0.6272520849    0.1996648419
 O   -2.1740475593   -0.4851439334   -0.9623993536
 C   -2.5647340166   -1.8741449436   -0.8937420127
 C   -1.7378195482   -2.7865523207   -1.8285466715
 C   -0.7490905272   -3.0734427420   -0.6532909588
 C   -1.5789417004   -2.1451298920    0.2785864465
 H   -0.6936266186    1.3471001461   -1.1584208932
 H    0.5627431932   -0.6322867312   -0.8904692061
 H    0.7023451136   -0.1073703314    0.8005053724
 H   -1.7392338356   -0.0806766692    1.0480775082
 H   -3.6505777499   -1.9941256973   -0.8568314471
 H   -2.2744728753   -3.6719624257   -2.1795097127
 H   -1.3271057871   -2.2568917170   -2.6908435696
 H   -0.7784137665   -4.1140123771   -0.3225278008
 H    0.2967804087   -2.8040589931   -0.8128116415
 H   -1.8690922097   -2.5362143105    1.2526725509