16

 C    0.0115504240    1.4390905700    0.1011797610
 C    1.4702122463    1.9340463450   -0.1355973742
 C    2.2322713042    0.6442761168   -0.0169250795
 C    3.4931789798    0.1165706528    0.1017648715
 N    3.3595118668   -1.2520266022    0.0673982814
 C    2.0237853587   -1.6141962321   -0.0726336369
 C    1.3223623672   -0.4366056119   -0.1295445859
 N    0.0041168994    0.0182011849   -0.3340706998
 H   -0.2299635211    1.5286524891    1.1715132724
 H   -0.7270202893    2.0165368637   -0.4622503959
 H    1.5689848284    2.3709253725   -1.1380891263
 H    1.7499288158    2.7084527518    0.5845159061
 H    4.4633737597    0.5742174680    0.2111002637
 H    4.1132331854   -1.9028599290    0.1933014363
 H    1.7283774964   -2.6491248260   -0.1103445249
 H   -0.7140924016   -0.5290653934    0.1227520109