17

 C   -0.0722406094    1.5680907627    0.0962925986
 C    0.0386039869    0.0592575339   -0.0679586454
 C   -1.0600579073   -0.6486054649    0.5711371267
 N   -1.9627650467   -1.1745736726    1.0653479145
 C    0.5899484654   -0.6584691562   -1.2557119703
 C    1.7818880349    0.0577602152   -1.9030070866
 O    1.6148517044    1.3057782706   -2.5314014317
 C    2.4107229346    0.1096470728   -0.4939619676
 N    1.2966636298   -0.7240372006    0.0897098472
 H    0.5972753469    2.1033277928   -0.5729377181
 H   -1.0949642942    1.8771150766   -0.1366733747
 H    0.1330952658    1.8489892530    1.1340880009
 H    0.0804279009   -1.5240056976   -1.6682652357
 H    2.3239614986   -0.6420838333   -2.5513206614
 H    1.2021278218    1.1703109178   -3.3907824278
 H    3.3522384259   -0.4328718628   -0.4035887619
 H    2.5216882419    1.1021445227   -0.0535620765