16

 C    0.0485436890    1.4732918178    0.1086945581
 C   -0.0340179886   -0.0255396830   -0.1564629751
 N   -1.4010168065   -0.5019310806    0.0472723031
 C   -1.6977787121   -1.8341416473    0.0318342286
 C   -2.8788950763   -2.5253414204   -0.0856170038
 C   -2.4684459595   -3.8714637588    0.0511193923
 N   -1.1779864487   -4.0119337557    0.2283243379
 O   -0.6783335725   -2.6848489102    0.2115175078
 H    1.0729638547    1.8268640984   -0.0349232988
 H   -0.5940466272    2.0353201456   -0.5792099648
 H   -0.2602517169    1.7068166980    1.1315794307
 H    0.3229897942   -0.2534661992   -1.1722918150
 H    0.6138097342   -0.5707975303    0.5345693366
 H   -2.1234507905    0.0836739863   -0.3440012994
 H   -3.8691445086   -2.1316616287   -0.2364111976
 H   -3.0829686847   -4.7615095519    0.0253589994