14

 O    0.9146331429   -0.1191333293    0.5231306465
 C    0.5227051563    0.7752225830   -0.1783998488
 C    0.5921434298    2.2483810493    0.2112278256
 N    0.6514723692    3.0800322361   -0.9672015135
 C    1.5949447680    3.9150951339   -1.0436728659
 N    1.7980867758    4.7804222163   -2.1156317929
 C    1.0568572916    4.9193159945   -3.2816762802
 O    0.0774433947    4.2967672483   -3.5872152464
 H    0.0584213168    0.5961287470   -1.1717608644
 H   -0.3470987420    2.4613001476    0.7461682287
 H    1.4182406363    2.3889411898    0.9266413356
 H    2.3604575725    4.0512218444   -0.2656668060
 H    2.5953594843    5.3927719858   -2.0340589607
 H    1.5042342237    5.7100895832   -3.9180353976