18

 O   -0.0653942785    1.4572535074    0.0145378852
 C    0.0305285973    0.0434974740    0.0186271298
 C   -1.3943168692   -0.5170062823   -0.0039706538
 C   -1.4141268742   -2.0244343456    0.0108767125
 C   -1.4378208701   -2.7603318223   -1.1784348114
 N   -1.4253666296   -4.0924689762   -1.2483557356
 C   -1.3893654837   -4.7641947302   -0.0946550810
 C   -1.3685455401   -4.1434277901    1.1510085610
 C   -1.3807648235   -2.7544072651    1.2001887363
 H    0.8248333641    1.8206993663    0.0076213958
 H    0.5836740159   -0.3290804447   -0.8580548408
 H    0.5557268020   -0.3244073812    0.9149216584
 H   -1.9331701171   -0.1166351499    0.8614840442
 H   -1.8973393141   -0.1364108058   -0.8991565410
 H   -1.4754826377   -2.2340285057   -2.1313990703
 H   -1.3808438184   -5.8490121339   -0.1702523634
 H   -1.3478902603   -4.7364404930    2.0588502199
 H   -1.3714361427   -2.2364863916    2.1552862742