23

 C    0.0391178579    1.5320353172    0.1499136922
 C   -0.1081028492    0.0077059542    0.1201521978
 C   -1.5432332867   -0.4880581421   -0.1390432405
 C   -2.0573599762   -0.1430761162   -1.5441426405
 C   -1.6195591348   -1.9947986000    0.0713709150
 O   -1.2179417854   -2.4350400542    1.4084422155
 C   -2.4094647126   -3.2156422573    1.5207540180
 C   -3.6229864113   -2.3445621887    1.5286165394
 C   -2.9651828605   -2.7139782048    0.2109076635
 H    1.0660273732    1.8191650237    0.3968532642
 H   -0.2047305792    1.9896668292   -0.8141330092
 H   -0.6189897297    1.9773046893    0.9047747097
 H    0.5587157419   -0.4118334301   -0.6462951093
 H    0.2240217000   -0.4067152276    1.0779623259
 H   -2.2023201471   -0.0125432247    0.5995852769
 H   -3.0762039359   -0.5144543245   -1.6950819718
 H   -2.0736759120    0.9370425715   -1.7111912325
 H   -1.4191016450   -0.5890367009   -2.3166979484
 H   -0.9836541823   -2.5058003976   -0.6663622238
 H   -2.3296670570   -4.2051957001    1.9551901245
 H   -4.5643079807   -2.8550949707    1.7085043825
 H   -3.5606969309   -1.3395183626    1.9348444086
 H   -3.4850777662   -3.2395166530   -0.5781337476