20

 C    0.2428988489    0.7243323484    1.7259261818
 C   -0.3598921634   -0.6880661452    1.7620569837
 C   -0.8922468371   -1.0480598953    3.1575774992
 C   -1.4713765296   -0.7965703843    0.7395062152
 O   -1.1122834956   -0.8501649114   -0.6523747667
 C   -1.7740322339   -1.9755796780   -0.0860151751
 C   -0.9705708754   -3.2690433404   -0.0534293523
 C   -1.5260744862   -4.2286346425    0.8991578196
 N   -1.9804377464   -4.9671226670    1.6629933042
 H    1.0743070487    0.8098111977    2.4322583643
 H    0.6143492065    0.9656061873    0.7259210129
 H   -0.5063706285    1.4761253182    2.0001280281
 H    0.4318100069   -1.3968399082    1.4935938139
 H   -1.6994285102   -0.3689858048    3.4558396493
 H   -1.2834516301   -2.0695068379    3.1902723512
 H   -0.0979085181   -0.9644362540    3.9053539773
 H   -2.3127513983   -0.1265013769    0.9362173247
 H   -2.8041851934   -2.1126806646   -0.4179089757
 H   -0.9700370571   -3.7198744938   -1.0526804225
 H    0.0720334625   -3.0648083473    0.2026098869