21

 C   -0.1491311797    1.5165580453    0.0174541953
 C    0.0695997061    0.0044525200    0.0338159009
 C    1.0519696654   -0.5481792079   -1.0630708671
 C    2.0223511390   -1.3038032997   -0.1435160716
 O    3.0972834495   -2.0184955922   -0.6819494975
 C    1.0753854769   -2.0260652122    0.8486045708
 C    0.7779425274   -0.5623076061    1.2914844302
 C    2.2729877437   -0.2623366621    0.9919480669
 O    3.1642223175   -0.7259452500    1.9790328572
 H    0.7884316724    2.0703777986    0.1279925030
 H   -0.6116928874    1.8347248307   -0.9231341572
 H   -0.8125747053    1.8219522900    0.8338906327
 H   -0.9055498079   -0.4835293161   -0.0717950154
 H    0.5652941567   -1.2079819559   -1.7869042943
 H    1.5505201475    0.2579327627   -1.6155339378
 H    3.4756772769   -1.5045569102   -1.4041081172
 H    0.2551131270   -2.6164114981    0.4310299422
 H    1.6220104749   -2.5892315631    1.6024189559
 H    0.3422257599   -0.3337309882    2.2632979424
 H    2.5330109798    0.7613311055    0.6885445329
 H    3.8503102597   -1.2230794312    1.5153465279