16

 C   -0.0108798271    1.4996640618    0.0956990362
 O    1.3051042928    1.9599569950   -0.2446116113
 C    2.0155844824    0.8848415980   -0.8261958677
 C    3.3796962013    0.4977569686   -0.2364388796
 O    3.4881852229   -0.9001265296   -0.5375825132
 C    2.1823179110   -1.5109009156   -0.5308045524
 C    1.2401408485   -0.3542042722   -0.4670856541
 C    0.0817277376   -0.0113311711    0.0783568629
 H   -0.2771956314    1.8879733760    1.0877083907
 H   -0.7508459513    1.8952771211   -0.6200788376
 H    2.1116918220    1.0278368014   -1.9157247862
 H    4.2409935906    0.9922753621   -0.6913142619
 H    3.3789452633    0.6881505485    0.8473386362
 H    2.0876356674   -2.1116805190   -1.4441978416
 H    2.0744070153   -2.1838621990    0.3304055054
 H   -0.6709739353   -0.6562085160    0.5138640540