21

 C    0.0575930863    1.5438573495   -0.0791456005
 O    1.4708741273    1.5550305501    0.2007734160
 C    1.4729701163    0.1364909423    0.4661589686
 C    0.0041208470    0.0018171784   -0.0081887412
 C   -0.9875982821   -0.6382490086    0.9633470220
 C   -0.8259459620   -2.1663343474    0.9593824198
 C   -0.8791760067   -2.6981427203   -0.4742120737
 O    0.0809466318   -2.0632412500   -1.3042669875
 C   -0.1230881263   -0.6641886098   -1.3791785740
 H   -0.5223382277    2.0574097201    0.7007058289
 H   -0.1757204370    1.9986423349   -1.0511132082
 H    2.2275401904   -0.3972000209   -0.1226482882
 H    1.6322156795   -0.0779878353    1.5322280039
 H   -0.8529454904   -0.2323070280    1.9723171604
 H   -2.0096457758   -0.3781487097    0.6522941628
 H    0.1397796781   -2.4391213015    1.4023265562
 H   -1.6059510476   -2.6434673875    1.5630959358
 H   -0.6548067361   -3.7678611324   -0.5119141223
 H   -1.8910357125   -2.5490462173   -0.8910243095
 H   -1.1194829112   -0.4441632995   -1.8038679133
 H    0.6315296989   -0.2772077575   -2.0712165862