18

 O   -1.5568704237    1.5362040083   -0.5415355735
 C   -0.6337879908    0.5238191604   -0.2007906834
 C   -1.2825887662   -0.8345361257    0.0939775902
 N   -1.9515381495   -1.5048488689   -1.0201886806
 C   -3.3337512201   -1.2156073774   -1.2926211984
 C   -3.6202284127   -0.1598209348   -2.3613866152
 O   -2.7471587483    0.4741094373   -2.9240071038
 C   -5.0186764321    0.0015796580   -2.7041510597
 C   -6.1928542541    0.1151954734   -2.9447442830
 H   -1.8077172206    1.3941827679   -1.4630185095
 H    0.1322371628    0.3978812614   -0.9841085991
 H   -0.1100291889    0.8578820629    0.7040595395
 H   -0.4988147763   -1.5037337912    0.4781962058
 H   -2.0150301665   -0.7118460843    0.9001270814
 H   -1.3971913590   -1.4632826794   -1.8676120936
 H   -3.8672629821   -2.1204019505   -1.6317078885
 H   -3.8484143384   -0.9089650726   -0.3739131910
 H   -7.2251543835    0.2314038052   -3.1719065177