13

 C    0.0379571415    1.4189061608   -0.0080309309
 O    1.3301523735    1.9066423499   -0.0240559694
 C    2.0617719945    1.6485159992    1.1892196481
 C    1.8335670897    0.2088338938    1.5119390640
 C    0.8568207474   -0.5130971343    0.8721415568
 O    0.8713826507   -1.7661765476    1.2231751157
 N    2.0333630457   -1.8284013446    2.2376506576
 N    2.4895000621   -0.6734489602    2.3122272713
 O   -0.0205597640   -0.0425634049   -0.0006425827
 H   -0.5249624529    1.7574987025    0.8737771271
 H   -0.4495885632    1.7168705695   -0.9346801758
 H    3.1068045281    1.8715017395    0.9611537449
 H    1.7282377168    2.3329465364    1.9828708931