20

 C    0.0450032587    1.2934451443   -0.2731928629
 O   -0.0070541993   -0.0343680449    0.2196191651
 C   -1.2712149317   -0.5843037144    0.1937732131
 C   -1.8948113333   -1.0953340056   -1.0806465512
 C   -1.6278681936   -2.0573285697    0.0633611933
 C   -0.7569563656   -3.2714147302   -0.0766273063
 C   -2.7386649449   -1.8757625973    1.1118308303
 C   -2.3409142801   -0.3688341087    1.2707654940
 H    1.0892017776    1.6113179102   -0.2277191165
 H   -0.3060357165    1.3492894995   -1.3131794831
 H   -0.5611825080    1.9783903645    0.3365861096
 H   -2.9108528210   -0.8307344820   -1.3693847147
 H   -1.1967642695   -1.1842936094   -1.9078670512
 H    0.1083032566   -3.0618311211   -0.7132393928
 H   -0.3812335214   -3.6043624823    0.8977119440
 H   -1.3066802522   -4.1082162048   -0.5244151057
 H   -3.7577401195   -2.0744339610    0.7636361319
 H   -2.5622221040   -2.4504676930    2.0247027981
 H   -1.9014893368   -0.1640910086    2.2499452124
 H   -3.1137139755    0.3784229845    1.0620886125