16

 C   -0.1111890214    1.5802200292   -0.0381755142
 C   -0.0459222935    0.0701688304    0.0521519438
 C    1.2436960029   -0.6769246834   -0.1750862175
 C    0.6680630003   -0.6602995218    1.2164148877
 C    1.3382301330    0.1200366401    2.2868006424
 O    1.2970584415   -0.1738906251    3.4548490461
 C   -1.2759722334   -0.6444716886   -0.3987779560
 O   -2.2642236593   -0.0962102010   -0.8143794817
 H    0.8499280194    2.0471006741    0.1859679824
 H   -0.4064286570    1.8713026905   -1.0497486806
 H   -0.8615170224    1.9818962434    0.6483032349
 H    1.2226527135   -1.6196553707   -0.7114963599
 H    2.1235489342   -0.0703249337   -0.3639719237
 H    0.1923800260   -1.5662469466    1.5792490650
 H    1.9128301175    1.0054835914    1.9355223776
 H   -1.2138052413   -1.7556057283   -0.3276259661