19

 C    0.1597221569    1.4360385395    0.0241598046
 O    1.3156906344    0.5983704997   -0.0180452890
 C    0.0287731028   -0.0267953163    0.0241926399
 C   -0.2786221618   -0.7788602440    1.2754643211
 O   -1.5723929722   -1.4060358898    1.3231959229
 C   -0.4257000140   -2.2387206057    1.2977022140
 C   -0.0928830744   -3.2662503427    0.2111025902
 C    0.6662825845   -4.0755889640    1.3067617467
 C   -0.0264616646   -3.2145548369    2.4065181516
 H    0.0150566415    1.9871887904    0.9525733631
 H   -0.0493440462    1.9937118225   -0.8873382466
 H   -0.2760874850   -0.5195247258   -0.8988041000
 H    0.0230732927   -0.2732457907    2.1946558327
 H   -0.9942055651   -3.7785051463   -0.1381595143
 H    0.4791131224   -2.9259306246   -0.6551329525
 H    0.4789904384   -5.1497842406    1.3374138850
 H    1.7445199623   -3.9071902783    1.2687433940
 H    0.5917703172   -2.8299985752    3.2209718968
 H   -0.9052977198   -3.7089340613    2.8311039198