16

 C   -0.4066336288    1.3641407905    0.2131959640
 C   -0.0286177321   -0.0941174722    0.1977321840
 O    1.3201366240   -0.4354542132   -0.1422971382
 C    0.8588070893   -0.7566350852    1.1720184017
 C    1.5292809537   -0.0174222990    2.2825761527
 O    0.9877758184   -0.1988458737    3.5914107023
 C    2.2970254059   -0.7119503404    3.3432227591
 C    2.4397143544   -2.1521676575    3.3531069017
 N    2.5738039386   -3.2999649300    3.3667008760
 H    0.3538075766    1.9842446232    0.6917356372
 H   -0.5394202846    1.7253259044   -0.8115175675
 H   -1.3544088646    1.5023375032    0.7436917373
 H   -0.7661893645   -0.7455825225   -0.2749132993
 H    0.7078556907   -1.8191967864    1.3630500826
 H    1.8443394676    0.9988094879    2.0526831629
 H    3.1066845057   -0.1789830593    3.8381966436