19

 C    0.2526984890    1.1673111529    0.2868054591
 O   -0.3816698265    0.1348668389   -0.4445114149
 C    0.4522010231   -0.4796341539   -1.3778937215
 C    1.4002690162   -1.5638564119   -0.9070065160
 C    0.1298908667   -1.9132197336   -1.6607830616
 N   -0.9809973955   -2.4794430913   -0.9595710046
 C   -1.6088197266   -3.5997056975   -1.4547298366
 N   -2.7950536849   -3.9107006913   -0.7950860400
 O   -1.1897375149   -4.2486479801   -2.3954372685
 H    1.1167811631    0.7898446813    0.8505640745
 H    0.5946256679    1.9747955019   -0.3765991050
 H   -0.4864545982    1.5696378858    0.9832048140
 H    0.7600792327    0.1679116525   -2.1995470403
 H    2.3558601602   -1.6809482230   -1.4064709957
 H    1.4011114496   -1.7769070768    0.1566367989
 H    0.2167857081   -2.2863620096   -2.6737441391
 H   -1.5100684020   -1.8277881052   -0.3990899503
 H   -2.8543426082   -3.6761535240    0.1848859209
 H   -3.1124160297   -4.8443157352   -1.0083207735