8

 C    0.0719818282   -5.1385039879   -0.0278587036
 C    0.0543328572   -3.9294066999   -0.0166248333
 C    0.0358450624   -2.5765681010   -0.0079170201
 C    0.0197902488   -1.3592065444   -0.0008214843
 C    0.0021556424   -0.0063351420    0.0034918757
 C   -0.0137242873    1.2028359610    0.0060316784
 H    0.0886138290   -6.1997587615   -0.0419759731
 H   -0.0273483707    2.2642226759    0.0054155103