19

 C   -0.2358632611    1.4881102559   -0.0620427910
 C    0.0522003644    0.0196761447   -0.0389126125
 C    0.5143650010   -0.9312843541   -1.1476253074
 C    0.0574237667   -1.7711210162    0.0775728423
 C    0.4733566982   -3.1976453293    0.3518776258
 C    1.9178671735   -2.8783379766    0.7897770944
 C    2.1348464280   -1.5840787591    1.0887360788
 C    0.8152814819   -0.8542779061    1.0321489169
 O   -1.1387504378   -0.9040195644    0.1803469291
 H    0.6886830774    2.0463186145   -0.2401776216
 H   -0.9462407354    1.7284683345   -0.8589259637
 H   -0.6592660193    1.8134878254    0.8927594882
 H   -0.1512322443   -0.9874627152   -2.0101892720
 H    1.5724253382   -0.9390555407   -1.4152280237
 H   -0.0936248628   -3.6649243665    1.1678049941
 H    0.4276293514   -3.8628530197   -0.5161170423
 H    2.6698384274   -3.6586249495    0.8491952576
 H    3.0814062072   -1.1873168885    1.4387520668
 H    0.3468698954   -0.7492316092    2.0171644102