24

 C   -0.1316451696    1.6668762710    0.2177416010
 C   -0.1193415429    0.1432440759    0.1343416488
 C    0.5105722584   -0.5721628125    1.3410613090
 C    0.0386753311   -2.0243883535    1.1741656327
 C   -1.4165342573   -1.9051749419    0.6528603002
 C   -1.5330783381   -0.4780535757    0.0419188041
 N    1.2219840083    2.2125681233    0.2743645095
 C    1.8468587850    2.5181463325   -1.0086095236
 C    1.3724342100    3.6090463545   -0.1130182070
 H   -0.7024530021    2.0832264882   -0.6345535853
 H   -0.6542957880    1.9775540680    1.1324022835
 H    0.4489686468   -0.1435385912   -0.7622727362
 H    1.5965349982   -0.4628904866    1.3812853959
 H    0.1068831444   -0.1449048215    2.2695852581
 H    0.6650937727   -2.5280713112    0.4282814725
 H    0.1106772923   -2.6093712976    2.0955677247
 H   -1.6468820514   -2.6846371671   -0.0788570365
 H   -2.1318235776   -2.0280640300    1.4718434599
 H   -2.2386334364    0.1265485940    0.6245122509
 H   -1.9088751141   -0.4897307010   -0.9853941987
 H    2.9055102569    2.2889585722   -1.0908894400
 H    1.2688297903    2.3350881481   -1.9138251823
 H    0.4802449993    4.1514422026   -0.4238848437
 H    2.0775376038    4.1916688293    0.4732737126