19

 O   -0.2691460328    0.0237960822    0.5049087186
 C   -0.0173502920    1.1647688400    0.1595011927
 C   -1.1381400786    2.1761568595   -0.0432252315
 C   -1.6132866440    2.2583019487   -1.5065757531
 C   -0.4596581370    2.5643758531   -2.4862761588
 C    0.3278139437    3.7812177630   -2.0993770332
 C    1.3550100374    3.8067137212   -1.2344666341
 C    1.9545050069    2.6725841931   -0.5392782858
 C    1.4048830749    1.5601682178   -0.0100405481
 H   -1.9684999154    1.8530930169    0.5899236120
 H   -0.8109198417    3.1667541609    0.2869396270
 H   -2.0806968371    1.3108306854   -1.7961974229
 H   -2.3864454572    3.0318528838   -1.5793727564
 H    0.2086139437    1.6947361271   -2.5138869878
 H   -0.8687907522    2.6901335661   -3.4941384568
 H    0.0395214889    4.7207830087   -2.5662196486
 H    1.8749371792    4.7521094280   -1.0909822543
 H    3.0382710259    2.7484337719   -0.4440890388
 H    2.0746886273    0.8033455725    0.3908747099