19

 C   -0.0721125941    1.5084529666    0.4855324786
 C   -0.0426310496   -0.0140433320    0.3567379540
 O   -0.1939904404   -0.6507706045    1.6166672137
 C   -1.0931918428   -0.5171863552   -0.6650740937
 C   -1.1510085098   -2.0287384247   -0.6869293491
 O   -0.5004378451   -2.7199876966   -1.4355531110
 C   -2.1002420253   -2.7064567903    0.3360418802
 C   -2.2085254076   -4.2048366661    0.2450456397
 O   -2.6982810742   -2.0324889569    1.1469869993
 H    0.6785339967    1.8319876275    1.2114182550
 H    0.1364229738    1.9946032608   -0.4733612039
 H   -1.0538558770    1.8485801737    0.8345733399
 H    0.9460232487   -0.3272266387   -0.0003974180
 H   -1.1342957590   -0.6600400081    1.8383895654
 H   -2.0748548286   -0.1150963335   -0.3948016854
 H   -0.8237053613   -0.1711083859   -1.6661719733
 H   -1.2188090522   -4.6526422849    0.3797001987
 H   -2.9015354478   -4.5738737379    1.0009463074
 H   -2.5392989443   -4.4983888034   -0.7563270176