18

 C    0.0815196599    1.4319071337    0.1245189486
 C    1.3304505018    0.6458909840   -0.0622678558
 N   -0.0057482694   -0.0238605398   -0.0214384677
 C   -0.3571143938   -0.4952698060   -1.4055599107
 C    0.5607412651    0.2688007408   -2.3678095999
 C    1.8367278849   -0.2992947030   -3.0637222194
 C    2.6119176561    1.0035913238   -2.6794659160
 C    1.7888226047    0.5006785364   -1.4680155297
 O    2.2634088613   -0.8914613408   -1.7938320654
 H   -0.1609298630    1.8036441343    1.1157871229
 H   -0.2521632560    2.0734251742   -0.6878868953
 H    2.0052001205    0.4369987904    0.7609874068
 H   -0.1767192714   -1.5704523026   -1.4258477107
 H   -1.4190263322   -0.3081628162   -1.5836003572
 H    0.1182170959    1.1482195962   -2.8414158878
 H    1.9342480769   -0.9043248470   -3.9655965189
 H    3.6920471283    0.8805834159   -2.6033133636
 H    2.3133055106    1.9486290855   -3.1404121801