14

 O   -0.0860398711    0.0533068543    0.6554841490
 C   -0.0564049249    1.1501644780    0.1616039343
 C   -1.2844696814    1.9266094463   -0.2937241102
 O   -1.3393400746    3.2059719753    0.3732356357
 C   -0.2303509064    3.9891561613    0.4087769989
 O   -0.3068040497    5.1383326925    0.7373265194
 C    1.0636037546    3.3235301990    0.0238417818
 C    1.8285079938    2.5107497434    1.0341669848
 N    1.1226107925    1.8732351730   -0.0647522647
 H   -1.2766566155    2.0745700342   -1.3802613129
 H   -2.1886314774    1.3937086757   -0.0042472893
 H    1.6306041905    3.8731747939   -0.7223462682
 H    2.9121093560    2.4925821068    0.9786313614
 H    1.4096004035    2.3993389463    2.0302698698