17

 C   -0.1194590453    1.6152142469   -0.0116940853
 C   -0.0561611123    0.0773090379   -0.0353046785
 C   -1.3987270409   -0.5049638890    0.0507739026
 N   -2.4523849014   -0.9720353308    0.1346437488
 C    0.6662882533   -0.4637046331   -1.3116868158
 O    0.0796511811    0.0366997211   -2.4736118102
 C    2.1525909536   -0.0590548727   -1.2969525885
 N    2.9385249905   -0.6556441336   -0.3676535391
 O    2.5551869755    0.7814807380   -2.0827999446
 H    0.8898090207    2.0351012504   -0.0141949705
 H   -0.6496066357    1.9774453832   -0.8938758565
 H   -0.6413202700    1.9645298407    0.8815503958
 H    0.4982800024   -0.2764294784    0.8433386078
 H    0.5935631033   -1.5610386573   -1.3047020077
 H    0.7457735246    0.6378812430   -2.8510692153
 H    2.6246071857   -1.4571093776    0.1527192454
 H    3.9258300747   -0.4532277787   -0.3782154584