17

 O   -0.2906559205    1.4931810167   -0.2145879263
 C    0.0546266413    0.1286743464    0.0049376175
 C   -1.1846582939   -0.8159942438    0.1519377887
 C   -1.3545835023   -1.5434267554   -1.2055568990
 N   -0.0283665052   -1.3829773166   -1.7787077503
 N    0.5081536375   -1.9318612374   -2.8721571589
 C    1.7197410539   -1.3636205864   -2.9404112721
 C    1.9467992274   -0.4462894023   -1.8906337420
 C    0.7771474292   -0.4913364421   -1.1527555854
 H   -0.5006224271    1.5999208980   -1.1486041798
 H    0.6422170108    0.1354547061    0.9265450355
 H   -0.9884475058   -1.5502937793    0.9381205372
 H   -2.0648973036   -0.2387032782    0.4385609907
 H   -1.6053424950   -2.6013541327   -1.1005273301
 H   -2.1080217283   -1.0791015389   -1.8517291174
 H    2.3903307594   -1.6397046003   -3.7413946115
 H    2.8287254918    0.1429270165   -1.7007434867