17

 O    0.0786656138    1.4134142243    0.1089183417
 C    0.0197712191    0.0114216771    0.0344248187
 C   -1.3820408746   -0.5778374668   -0.0869314904
 O   -1.9070900959   -0.5106320196   -1.4327275766
 C   -1.3333799343   -1.7532651225   -0.9657310642
 C    0.1014285386   -1.9610441715   -1.4402739658
 O    0.2374967783   -2.4239052592   -2.7600643980
 C    0.7442724976   -0.5672428616   -1.2102158082
 O    0.5225188870    0.2720553502   -2.3451650345
 H    0.1979001849    1.7245346996   -0.7989031590
 H    0.4758182538   -0.3893010315    0.9499170320
 H   -2.1198111440   -0.4416890607    0.6981719567
 H   -2.0311682548   -2.5829332522   -0.9027141915
 H    0.5715434430   -2.7011804648   -0.7785518268
 H    0.3369430654   -1.6353608064   -3.3109376193
 H    1.8262783289   -0.6189454345   -1.0811409672
 H   -0.4452894369    0.3048762102   -2.4428075476