18

 C    0.0973615156    1.5034690707   -0.0266164036
 C   -0.0809349459   -0.0092270907    0.0830435559
 C   -1.5395247304   -0.4446597891    0.0443144865
 O   -2.4615298797    0.3289644351    0.0649034128
 C   -1.7553878820   -1.9584855420   -0.0247161230
 O   -3.1245164894   -2.2507139716    0.0639542440
 C   -3.3833985533   -3.6295019981   -0.0200357841
 C   -4.8275457570   -3.8588049814    0.0839686462
 N   -5.9571239366   -4.0824301000    0.1626586329
 H    1.1551520718    1.7720348234    0.0362803926
 H   -0.2982772786    1.8757834295   -0.9751243598
 H   -0.4415302106    2.0154285007    0.7737467551
 H    0.4631424884   -0.5357247853   -0.7131020243
 H    0.3500295337   -0.3871981109    1.0213453050
 H   -1.3238861117   -2.3268314531   -0.9729338090
 H   -1.1832943533   -2.4419603749    0.7867388972
 H   -3.0296703061   -4.0526672709   -0.9748939847
 H   -2.8820319449   -4.1886617514    0.7874057803