15

 C   -0.1064876383    1.5115468216   -0.1475457907
 C    1.4537009247    1.7525613003    0.0358758370
 C    2.0527424483    2.2611602194    1.3270278848
 C    2.0929552379    1.2776635278    2.2670759975
 C    1.4527491683    0.0913848464    1.7006156200
 C    1.3317881977    0.2937801524    0.3522159774
 N    0.0003728165   -0.0439123824   -0.0283524369
 C   -0.4531487488   -0.6988673616    1.1396373514
 N    0.3807669929   -0.6916281003    2.1485103612
 H   -0.6959888417    1.9101025236    0.6737708089
 H   -0.4994916979    1.7919006352   -1.1228277395
 H    1.9378910552    2.1130584487   -0.8716374709
 H    2.5190976096    3.2359734545    1.4209738164
 H    2.4760221149    1.3828249094    3.2743303654
 H   -1.3933849293   -1.2367816849    1.1450519080