23

 C    0.1361165734    1.5382450457    0.1996924837
 C    0.0285948329    0.0122611725    0.1761813550
 O    0.4708462099   -0.5537018025    1.4061229182
 C   -1.3836751404   -0.4613919592   -0.2057226604
 C   -1.5009133820   -1.9704079078   -0.2903494375
 C   -1.9321985960   -2.8013917462    0.8897054127
 C   -2.8233560577   -2.7089269560   -0.3240215522
 C   -4.1514647804   -2.0031764574   -0.2530652370
 O   -5.1116234066   -2.9272499964    0.2467563110
 H    1.1473973519    1.8415235530    0.4832673142
 H   -0.0965003141    1.9705518469   -0.7791035410
 H   -0.5649535232    1.9658571249    0.9278637701
 H    0.7366199836   -0.3800498069   -0.5656142412
 H   -0.1326271589   -0.2594795344    2.0973594725
 H   -2.0961220891   -0.0590106308    0.5275959630
 H   -1.6479959249   -0.0046724424   -1.1695410192
 H   -0.7282262507   -2.4176061606   -0.9121889274
 H   -1.4175776993   -3.7325702775    1.0970004495
 H   -2.2591147146   -2.2715266193    1.7796473282
 H   -2.8527940241   -3.5870187380   -0.9635758856
 H   -4.0814169595   -1.1192407424    0.3993275440
 H   -4.4394049303   -1.6446886461   -1.2551568810
 H   -5.9758616297   -2.5067424490    0.2083994907