20

 C    0.0635970588    1.5652835945   -0.0395194584
 C    0.0238726104    0.0403334107    0.1161852647
 C   -1.3805152818   -0.5543335147    0.0006128931
 O   -2.2311693559   -0.0610765533    1.0286605619
 C   -2.0982126040   -0.5276854669   -1.4031522942
 C   -2.2760237589   -2.0488407401   -1.3151385497
 C   -0.9346614000   -2.7142368010   -1.2148249889
 C   -1.5250916589   -2.0813663527    0.0150050744
 H    1.0906455028    1.9382270122    0.0113320134
 H   -0.3558855264    1.8830093543   -1.0008508444
 H   -0.4968537042    2.0678641582    0.7569141226
 H    0.6700465326   -0.4165551235   -0.6412822564
 H    0.4319891395   -0.2427118247    1.0941397267
 H   -2.3321410622    0.8879478233    0.9006282921
 H   -3.0380234531    0.0243908369   -1.3373908484
 H   -1.5215719986   -0.1626593228   -2.2607524193
 H   -3.1664115795   -2.5929874624   -1.6043378506
 H   -0.9484841511   -3.7996800644   -1.2152689017
 H   -0.0659182061   -2.2881250943   -1.7114987163
 H   -1.7400939534   -2.6432239494    0.9157116694