19

 C   -0.0859380885    1.5323057918    0.0077765086
 C    0.0344465595    0.0102427977    0.0244050378
 O   -1.2555291166   -0.5921661521   -0.0219810347
 C    0.9966373758   -0.5663534483   -1.0886861519
 C    2.0141953010   -1.3282648205   -0.2107506188
 C    1.0756112083   -2.0070034692    0.8426779519
 C    0.7495512453   -0.5383161523    1.2787518028
 C    2.2267002597   -0.2918509218    0.9083387323
 O    3.1490618051    0.3007846118    1.3832449303
 H    0.8914755362    2.0123272809    0.1155486650
 H   -0.5227973713    1.8745997234   -0.9384615858
 H   -0.7313944930    1.8708701969    0.8235879350
 H   -1.7064388173   -0.2659453677   -0.8085790750
 H    0.4448429661   -1.2413297278   -1.7487675480
 H    1.4630537143    0.2159374414   -1.6943167004
 H    2.8379894811   -1.8473827645   -0.6964037552
 H    0.2316893417   -2.5746003351    0.4508866023
 H    1.6176246153   -2.5700875286    1.6037184495
 H    0.3288104175   -0.2781697160    2.2474117945