21

 C    0.0136030959    1.5099889338    0.0017667307
 C    0.0161938042    0.0096306541    0.0077074827
 C   -0.9258752267   -0.8307911970    0.8259436843
 C    0.5609022508   -0.9680457060    1.0393119300
 C    1.3068886627   -1.7484633188   -0.0808860885
 C    2.7238999846   -2.1872341452    0.0826211041
 O    2.7500772515   -3.3494847664    0.9066260604
 C    0.3985838639   -2.2699692608   -1.1602875348
 C    0.7288264696   -0.7999380431   -1.1204411666
 H    1.0116874606    1.9111610160   -0.2125704228
 H   -0.6701974431    1.9057270630   -0.7601615927
 H   -0.3045616987    1.9070464876    0.9712071994
 H   -1.4273462392   -0.2785416800    1.6164802013
 H   -1.5385894207   -1.6234507731    0.4105491585
 H    1.0239738382   -0.7579157196    1.9958503689
 H    3.1594158645   -2.3895345997   -0.9098618746
 H    3.3136064450   -1.3748164112    0.5391886836
 H    3.6683545026   -3.5421314966    1.1195053661
 H    0.9176519156   -2.8153481508   -1.9438266904
 H   -0.5935305103   -2.6570226433   -0.9592927273
 H    1.2517675988   -0.3090577029   -1.9330710923