16

 C    0.0085876978    1.4351157171    0.0182319476
 N   -0.0496281605   -0.0111984207   -0.0018677405
 C   -0.0401830263   -0.7664018493   -1.1653974904
 C    0.0228192948   -2.0763236674   -0.7488336299
 N    0.0398124513   -3.4045276141   -1.1329760926
 C    0.0866505900   -4.1386436656    0.0417027925
 N    0.0921432503   -3.4243471950    1.1340039165
 C    0.0534705054   -2.1133848082    0.6745679064
 C    0.0110379065   -0.8049652789    1.1210186394
 H    1.0388327005    1.8046188237   -0.0507017972
 H   -0.5644973554    1.8393923605   -0.8202083611
 H   -0.4338071099    1.8045187760    0.9461427954
 H   -0.0752963820   -0.2912053176   -2.1307484731
 H    0.0405681197   -3.7816860881   -2.0635185117
 H    0.1163165429   -5.2194343644    0.0095768461
 H    0.0178807449   -0.3683217280    2.1055923626