17

 O   -0.0269787048    0.0588542786    0.0049269244
 C   -0.0722401705    1.2545791800    0.0299098345
 C   -1.2662806590    2.1894309421    0.0347140236
 C   -0.7887549783    3.2562343569   -1.0088565659
 C    0.2834698043    3.5644075643    0.0724042857
 C   -0.8130714774    3.2249101501    1.1206803626
 C    1.1343278709    2.2663068689    0.0526631925
 C    2.0263603943    2.0804074198    1.1803059400
 C    2.7516457518    1.9319759298    2.1276804356
 H   -2.2499143439    1.7259492106    0.0155640875
 H   -0.4580977913    2.9089589085   -1.9920507449
 H   -1.5169553048    4.0621933349   -1.1175725210
 H    0.8337845422    4.5033520631    0.0942561727
 H   -1.5450693033    4.0266462961    1.2359933175
 H   -0.4968168700    2.8507931785    2.0968326626
 H    1.6910064174    2.1647516850   -0.8873166301
 H    3.3994934624    1.7928948028    2.9573836128