21

 C   -0.0706429024    1.5824072568    0.0164272410
 C   -0.0466428869    0.0405405971   -0.0058645979
 C   -1.4095278123   -0.4883953185    0.0457409465
 C   -2.5372688316   -0.9059710150    0.0679131543
 C    0.7200670909   -0.5103493586   -1.2382781499
 C    2.2153348743   -0.0885313819   -1.2823245398
 C    2.9825236643   -1.3077461313   -1.8551738970
 C    2.0206286984   -2.4488279861   -1.6258713057
 C    0.8034472625   -2.0203785559   -1.2994224675
 H    0.9456871506    1.9848615433    0.0438818466
 H   -0.5721475667    1.9705848312   -0.8756423161
 H   -0.6102033167    1.9491389823    0.8933288205
 H    0.4865399148   -0.3089590404    0.8900339425
 H   -3.5303471446   -1.2803662462    0.0994927046
 H    0.1892339861   -0.1400080567   -2.1288081127
 H    2.3829173957    0.8251674205   -1.8575065877
 H    2.5609980798    0.1055069923   -0.2599284097
 H    3.1929653488   -1.1884897107   -2.9275948883
 H    3.9536172578   -1.4579666228   -1.3697806435
 H    2.3024188549   -3.4876678936   -1.7601055713
 H   -0.0638017877   -2.6458149956   -1.1230924490