14

 C    0.0283930414    1.5021812364   -0.0765885115
 C    1.5293091070    1.9474185202    0.0508443166
 C    2.1333028430    0.7262983084    0.6611905075
 C    1.2967684478   -0.3444150602    0.6643193224
 C   -0.0394354843   -0.0637538159    0.0567247992
 N    1.9924302339   -1.3890613933    1.2028959988
 N    3.1472110697   -1.0618198100    1.5293930979
 O    3.3010292172    0.4270760693    1.1620224585
 H   -0.5415700460    1.9524594696    0.7401534906
 H   -0.4170429922    1.8509586212   -1.0102608942
 H    1.9856453738    2.1580399580   -0.9238546550
 H    1.6499550804    2.8466022833    0.6613150863
 H   -0.8862227308   -0.3774731481    0.6734818101
 H   -0.1562465211   -0.5483668290   -0.9198366671