16

 O   -0.5608523545    0.7122492663    0.7563528281
 C    0.0893787725    0.9801390471   -0.2192668680
 C    1.3564252520    1.8069637957   -0.2153912399
 C    1.2678683838    2.9946955049   -1.1803725387
 N    2.5690294278    3.6429944865   -1.3080685935
 C    2.5318390927    4.8039580050   -2.1906888695
 C    3.8432517557    5.4537744594   -2.2597845943
 N    4.8704415505    5.9801211374   -2.2970251182
 H   -0.2150532041    0.6159601645   -1.2290908630
 H    1.5564549431    2.1337197661    0.8095627593
 H    2.1846049634    1.1638800478   -0.5431642207
 H    0.9717936312    2.6372679417   -2.1760616882
 H    0.4728905545    3.6864549063   -0.8460908291
 H    2.9056563501    3.9273432481   -0.3931573858
 H    2.2577914009    4.4708628086   -3.1996670520
 H    1.7874651604    5.5686305348   -1.9017366367