17

 C   -0.0066145164    1.4990829553    0.1071145049
 C    0.0017542827    0.0106509072    0.0222392096
 C    0.0058155345   -0.7627984125   -1.0809472488
 C   -0.0513182480   -2.2401086713   -0.7114416105
 N   -0.0044526632   -2.2789867618    0.7641010651
 C    1.2267641617   -1.7448625119    1.3440553755
 C    0.0209118943   -0.8705113921    1.2230667603
 C    0.0592426279   -0.3010935852   -2.4194225620
 N    0.0955722529    0.0518284847   -3.5234800204
 H    0.8760784813    1.8635522920    0.6460799557
 H   -0.0269211160    1.9592372466   -0.8828467631
 H   -0.8821053283    1.8460564534    0.6695152645
 H   -0.9844425738   -2.7000136654   -1.0576769295
 H    0.7750122600   -2.8188060938   -1.1391833945
 H    1.4899852126   -2.1714256879    2.3078366305
 H    2.0661498439   -1.5254713280    0.6871213452
 H   -0.5650129360   -0.6031974393    2.0985205074