19

 C   -0.2914348317    1.5101187965   -0.0023277816
 C    0.0795787843    0.0273113215   -0.0155889617
 C    0.9311380440   -0.3861735712   -1.2334416455
 C    1.1778148099   -1.8850614113   -1.1837160808
 C    2.5261082118   -2.4503359944   -0.7882447367
 C    1.3921856302   -2.4426407198    0.1937833256
 O    1.4761283846   -1.5449593735    1.2804835372
 C    0.7988552339   -0.3600084794    1.2751082313
 O    0.8286652759    0.3193933337    2.2637317774
 H    0.6057543455    2.1365243678    0.0111388959
 H   -0.8732517794    1.7624067086   -0.8942120821
 H   -0.8773400122    1.7583372694    0.8840788348
 H   -0.8420726127   -0.5724225396   -0.0448039815
 H    0.4152766298   -0.1082691646   -2.1573024014
 H    1.8738343121    0.1730178689   -1.2240668838
 H    0.5701027507   -2.4867041102   -1.8520550853
 H    2.8375370041   -3.4013422552   -1.2052548719
 H    3.3297212876   -1.7444052554   -0.6063182389
 H    0.9315829116   -3.3790375017    0.4905190790