13

 O    0.0029405314   -0.0350653162    0.2067281061
 C    0.0063918559    1.1637716559    0.0809528238
 C   -1.2419815986    2.0568850831   -0.0329582807
 C   -0.7001749886    3.5095392347   -0.0213940846
 C    0.8140414256    3.3359929129   -0.0632435764
 C    1.1893705065    2.0579178626    0.0066462741
 C   -1.1910357759    4.3399852913   -1.1230645751
 N   -1.5721227314    4.9972677575   -1.9937522669
 H   -1.7622604359    1.8242074361   -0.9656063970
 H   -1.9342164492    1.8547485032    0.7867378372
 H   -0.9776086018    4.0199303071    0.9102991071
 H    1.4683502085    4.1971572120   -0.1284797961
 H    2.2029529534    1.6793752099    0.0232583987