16

 C    0.0089266152    1.5341299877    0.1463732305
 O    1.3798638158    1.9314953270    0.0156302926
 C    2.0933679300    0.9964297586   -0.8035332495
 C    1.3553821966   -0.3099528196   -0.6482428291
 N    1.0286777380   -0.6847661353    0.7259540710
 C    0.0114140373    0.0367383262   -0.0357724137
 C   -0.6695420622   -0.8340602063   -1.0869395570
 O   -0.3026390899   -0.3477609780   -2.3861997435
 C    0.6387807459   -1.1715621240   -1.6831558540
 H   -0.3259446297    1.8778557454    1.1287423169
 H   -0.6213439315    1.9894579006   -0.6313316155
 H    2.0804595282    1.2925129539   -1.8625694230
 H    3.1259449552    0.9873977898   -0.4443158325
 H    0.8080610909   -1.6746259932    0.8021943186
 H   -1.5824363729   -1.4137343598   -1.0188775936
 H    0.9727273332   -2.0728744231   -2.1833018781