19

 O   -0.0609723338    1.5096605538   -0.1679538593
 C    0.0544631471    0.0974422866   -0.1028144507
 C   -1.3514271112   -0.4730963159    0.0334506805
 C   -1.3808338009   -2.0102070643    0.1044513828
 C   -0.9050553976   -2.6389902296    1.3913435167
 C   -1.8114251378   -3.4474167158    1.9438763256
 C   -3.0792899361   -3.5315020538    1.1391157080
 C   -2.8213099500   -2.5542507181   -0.0178419471
 O   -3.6102432467   -2.2427491360   -0.8705144305
 H    0.8221314855    1.8817163707   -0.2471170720
 H    0.5296558398   -0.3086464254   -1.0115711563
 H    0.6767567972   -0.2095727382    0.7536696576
 H   -1.8212935257   -0.0476429578    0.9275239121
 H   -1.9492664550   -0.1560506561   -0.8272291162
 H   -0.8140076103   -2.3988519291   -0.7570152674
 H    0.0775778871   -2.4434638250    1.8057767129
 H   -1.6700958092   -3.9981552918    2.8667399158
 H   -3.2799379665   -4.5353155318    0.7410070389
 H   -3.9822826759   -3.2382266023    1.6889588586