14

 N    0.0193692770    1.3057469971    0.3900308948
 C   -0.0624476384   -0.0380015560    0.0786495675
 C   -1.1033500885   -0.9133658238   -0.0363603854
 C   -0.4836403748   -2.1814348330   -0.2803745209
 O   -1.1790622467   -3.3473678876   -0.4883157832
 C   -0.8408507177   -4.4304527940    0.2673320207
 O   -1.3273189497   -5.5021730410    0.0889023754
 C    0.8612870815   -2.0012586647   -0.3016672853
 O    1.1249126417   -0.6688029760   -0.0733111151
 H    0.8374427560    1.7553525510    0.0000988115
 H   -0.8228441895    1.8200891908    0.1756058311
 H   -2.1574225039   -0.7072350918    0.0401173399
 H   -0.0863405658   -4.1769740040    1.0331603813
 H    1.7085716288   -2.6359300271   -0.4876366924