23

 C   -1.0178701447    1.1193872489    0.0037005047
 C   -0.0682058339   -0.0630783502   -0.1221668931
 C    1.2044029583    0.0955293241   -0.9997225644
 C    2.0570733949   -0.6146055850    0.0902704191
 C    3.2409250252    0.1858974432    0.6639133806
 C    2.5826270005    1.0247498354    1.7372427162
 C    1.3115484115    0.6834453766    1.9519849290
 C    0.8498466180   -0.4663532694    1.0869724912
 C    0.3939806466   -1.6717640541    1.9048662155
 H   -0.4845685825    2.0207455784    0.3237784629
 H   -1.4975707418    1.3384755647   -0.9570374126
 H   -1.8135499533    0.9236014644    0.7319663807
 H   -0.6318438227   -0.9484855263   -0.4401794816
 H    1.1779423858   -0.3730562371   -1.9867497256
 H    1.4938833599    1.1439644996   -1.1264158229
 H    2.3117039300   -1.6447697955   -0.1684145773
 H    4.0249334390   -0.4562725794    1.0892115453
 H    3.7316742679    0.7973208144   -0.1051057641
 H    3.1138719486    1.8044911908    2.2738773656
 H    0.6638412647    1.1445375874    2.6916249013
 H   -0.5021622430   -1.4359699304    2.4919654638
 H    0.1499681474   -2.5193430429    1.2548365928
 H    1.1719080134   -1.9936422475    2.6059607631