17

 C    0.0326262466    1.3972989244   -0.0021662529
 C    1.4616336789    2.0576117821    0.0630224011
 N    2.3176084069    1.1496365422    0.8232001147
 C    2.5261892916    0.1124157136    0.1422931312
 N    2.5447253217   -1.2693788704    0.5922503946
 C    1.9039936470   -1.6088070272   -0.7183986232
 C    0.7081769406   -0.6856227279   -1.0182707525
 O   -0.0092978778   -0.0364270202   -0.0121613385
 C    2.1022333138   -0.2297943052   -1.2947394944
 H   -0.5231433250    1.6584299993    0.9003745718
 H   -0.5055067772    1.8053063588   -0.8691858420
 H    1.8347361827    2.2528143755   -0.9511703456
 H    1.3712191361    3.0209676756    0.5719972002
 H    3.4787213263   -1.6741241135    0.6375541558
 H    2.0060575934   -2.5914459038   -1.1609773706
 H    0.1068010290   -1.0037427216   -1.8710679441
 H    2.5023070854    0.1472761083   -2.2276249954