19

 C   -0.9761145005    0.9859209404   -0.0772774531
 C    0.0908355357   -0.0898275418    0.0308051345
 C    1.4086285550    0.0729585149   -0.7773708753
 C    2.1908957854   -0.5168412015    0.4341487360
 N    2.3326061036   -1.9619300211    0.3062666187
 C    3.4233742290    0.1683046589    0.8387816738
 N    4.3920590017    0.6808702449    1.2114686456
 C    0.9388763578   -0.1699709779    1.3316025726
 O    1.0158987791    1.0968407903    1.9298067123
 H   -0.5706298899    1.9674320431    0.1791020708
 H   -1.3713215087    1.0295735535   -1.0979210263
 H   -1.8147366286    0.7821679711    0.5966999634
 H   -0.3332198545   -1.0774956736   -0.1643272558
 H    1.5117945188   -0.4818299664   -1.7121753085
 H    1.6596842702    1.1221518546   -0.9430471386
 H    2.9813948641   -2.1867182635   -0.4428530864
 H    2.7192811772   -2.3574306058    1.1591667437
 H    0.6812069427   -0.9576121486    2.0526345383
 H    1.7600451918    1.1101086587    2.5428990843