20

 C   -0.0334746273    1.5441127739   -0.1153637290
 O    1.3256878976    1.9916401135   -0.0087567597
 C    2.1873293061    0.8430833506    0.0620342611
 C    1.3787099128   -0.2667089736   -0.6187031422
 C    0.0106794839    0.0133814779    0.0291524142
 C    0.0550084876   -0.4286667119    1.5068586177
 C    1.1350064615    0.3356913421    2.3013006979
 C    2.4617953899    0.4748353690    1.5297341677
 H   -0.6371336349    2.0299224724    0.6612903245
 H   -0.4364563828    1.8410989427   -1.0938889120
 H    3.1133224871    1.0977281145   -0.4621980201
 H    1.3479177467   -0.1177795968   -1.7028366415
 H    1.7603235257   -1.2703315126   -0.4140176629
 H   -0.8214529284   -0.4661432409   -0.4935646592
 H   -0.9226753152   -0.2766632635    1.9792915496
 H    0.2512820106   -1.5081152996    1.5407379358
 H    0.7653941639    1.3433795406    2.5199181926
 H    1.3032526941   -0.1460215307    3.2701788559
 H    3.0352181546   -0.4611428307    1.5545318703
 H    3.0848383065    1.2431455628    1.9995505392