15

 N    0.1560389439    1.2391267345   -0.1543980826
 C    0.0869262302    0.0038335773    0.0402570771
 O    1.0584217148   -0.9158368756    0.3746845512
 C    0.0776741916   -1.9999968306    0.4258329740
 C   -1.0441628065   -1.0145322359    0.0231384691
 C   -2.1667170416   -0.7842758601    0.9969693223
 C   -3.4546192800   -0.2304566086    0.5687843719
 O   -3.3125237772   -1.6256504515    0.8490870845
 H    1.1113741128    1.5832105648   -0.0423204081
 H    0.3199170762   -2.7836479012   -0.2946370581
 H    0.0072802989   -2.4154183049    1.4343566617
 H   -1.4492254571   -1.1907474073   -0.9758760584
 H   -1.8589817480   -0.6239764714    2.0315515703
 H   -4.0596656575    0.3315230044    1.2777059816
 H   -3.6058456006    0.0248442062   -0.4786895564