15

 N   -0.0102752626    1.2990266182    0.0918875542
 C   -0.0468394519   -0.0519140166    0.0116229607
 N   -1.1606554816   -0.6916170750    0.0216864237
 C   -1.1521398349   -2.0558872916   -0.0062460266
 N   -2.2074692883   -2.8216226450   -0.0510280174
 C   -1.7098156617   -4.1119845291   -0.0648640611
 N   -2.5876065190   -5.1863433210   -0.1744980063
 C   -0.3515217268   -4.0767295796   -0.0238655562
 O    0.0211811185   -2.7438050042    0.0156142172
 H    0.8390937381    1.7950145272   -0.1100373757
 H   -0.8814322769    1.8020155383    0.0271840632
 H    0.9348248303   -0.5309937962   -0.0337172327
 H   -3.5102477573   -4.9358297036    0.1556706186
 H   -2.2613162315   -6.0318014396    0.2723140334
 H    0.4401644657   -4.8037498620   -0.0176137452