16

 C    0.1651573206    1.3834073430   -0.0007912442
 O   -0.3289982714    0.0788210372   -0.3121922185
 C    0.3883697180   -0.6284495710   -1.1930436133
 C    0.6458553412   -1.9597227323   -1.2500603464
 C    1.3701476566   -2.1663092644   -2.4820147465
 N    1.7900964912   -3.4003606777   -3.0062323005
 C    1.4979044719   -0.9430346786   -3.0547793954
 O    2.1756143797   -0.5270222870   -4.1476087770
 O    0.8908347197    0.0248501673   -2.2722737038
 H    1.1839691583    1.3290641635    0.4005350671
 H    0.1584529583    2.0303865742   -0.8826690305
 H   -0.5084692471    1.7863901557    0.7565560417
 H    0.3479648376   -2.7010864459   -0.5270773382
 H    2.2041311517   -3.9939689322   -2.2972270453
 H    2.4622990938   -3.2691533436   -3.7530859301
 H    1.5552987699   -0.2981604284   -4.8519286091