20

 C   -0.0387035400    1.5444785155    0.0815151851
 C   -0.0245066879    0.0421841358   -0.0096720913
 C   -0.0175795563   -0.6160606409   -1.1734680317
 C    0.0186293718   -2.1157628972   -1.3141943245
 C    0.4374524239   -2.8088651727   -0.0122747865
 C   -0.2985189710   -2.1877274534    1.1780683682
 C    0.0243749242   -0.6937843581    1.3160379813
 O    1.2888959482   -0.4743718400    1.9606213742
 H    0.7946561310    1.8979157987    0.6987537617
 H    0.0311877994    2.0132877322   -0.9036934737
 H   -0.9577840291    1.9011211105    0.5648645283
 H   -0.0512433475   -0.0441251685   -2.0998190992
 H   -0.9752975824   -2.4742646259   -1.6245759505
 H    0.6942962236   -2.3934681012   -2.1328978479
 H    0.2472112998   -3.8852304527   -0.0706780157
 H    1.5209106954   -2.6946519597    0.1294549419
 H   -1.3813541686   -2.3047603688    1.0378239902
 H   -0.0342943766   -2.6861510674    2.1158163478
 H   -0.6974688943   -0.2380702556    2.0051136671
 H    1.9748346763   -0.6982937407    1.3223434451