19

 C    0.3682790792    1.5531739223    0.0067225953
 C    0.1164604511    0.0577856991   -0.0416182968
 C    0.6262070228   -0.7679309474   -1.2422022790
 O    1.9582348076   -0.4001895121   -1.7155722608
 C    2.5652760738   -1.3555372430   -0.9034472597
 N    3.7602139091   -1.7160624088   -0.8247066959
 C    1.2639092447   -1.7377175342   -0.2232088175
 N    0.9520135444   -0.7760785898    0.8646763168
 C    0.3548330577   -1.2856782740    2.0787471520
 H    1.4123315267    1.7699045386   -0.2300495052
 H   -0.2725047192    2.0783764821   -0.7096444281
 H    0.1507062562    1.9468723266    1.0046779604
 H   -0.9569699249   -0.1625386844    0.0923263998
 H   -0.0362604449   -1.0158911906   -2.0689475070
 H    4.3567455940   -1.1812740638   -1.4587816602
 H    1.0089837610   -2.7861846967   -0.0663616384
 H    1.0649357946   -1.9394343117    2.5946238461
 H    0.1248314859   -0.4513616327    2.7494619392
 H   -0.5800050098   -1.8540391294    1.9103540491