20

 O    0.4412761865    0.2918727114   -1.4743277576
 C    0.0460696541    0.2476616735   -0.1087560404
 C   -1.2851107097   -0.4745699458    0.0682628018
 C   -1.4099636687   -1.9768070750   -0.1804854737
 C   -1.0471860390   -2.8162742403    0.9938441052
 C   -0.1528785791   -2.2881725643    2.1069822007
 C   -0.9035016930   -1.0150467056    2.5777996774
 C   -1.9165418995   -0.7668090152    1.4607178737
 N   -2.3691269420   -2.1512535919    0.9839794245
 H    0.5872188979   -0.6147209667   -1.7633778168
 H    0.8342801595   -0.2011105859    0.5123584109
 H   -0.0533578569    1.2936975477    0.2031158838
 H   -2.0250664058    0.0353811195   -0.5571131690
 H   -1.6280654445   -2.4295419627   -1.1445724575
 H   -1.1008761486   -3.8899082000    0.8375893699
 H   -0.0681763832   -3.0267829230    2.9092340757
 H    0.8627927700   -2.0774548149    1.7594713057
 H   -1.4340004573   -1.2080687584    3.5154469507
 H   -0.2415605536   -0.1605616094    2.7453881602
 H   -2.7542724470   -0.1310328730    1.7467213048