17

 C   -0.3970834949    1.4436579135   -0.0124395401
 C    0.0808046367    0.0092857304   -0.0491304526
 O    1.3088104452   -0.1538856887   -0.7971664968
 C    2.0158250767   -0.6843923753    0.3317699627
 C    0.7499589048   -0.5978045064    1.2330184486
 C    0.8353167072    0.2059676175    2.4283852580
 C    0.9070972628    0.8892697784    3.4235514100
 C    1.0194183132    1.6766607095    4.6239429807
 O    0.3360173758    2.6423152368    4.8772520838
 H    0.3590046293    2.1027967716    0.4219454082
 H   -0.6124575325    1.7824937409   -1.0302713876
 H   -1.3125104171    1.5287896583    0.5818822878
 H   -0.7012178551   -0.6467731932   -0.4524966882
 H    2.3857901928   -1.7010800576    0.1564667231
 H    2.8475500892   -0.0429421427    0.6434257715
 H    0.3460928872   -1.5819379602    1.4860336592
 H    1.8032766288    1.3237646672    5.3248584817