14

 O    0.1130436887    1.3612448598   -0.0028199756
 C    0.0150805381   -0.0132676904    0.0003298408
 C   -0.4357176465   -0.7071689417    1.2484860171
 O   -0.8309390902    0.1233867987    2.2984674682
 C   -1.3740655160   -0.7053116401    0.0388923659
 C   -2.5525999581    0.0863894019    0.0487894847
 C   -3.5525213774    0.7681179502    0.0375161826
 C   -4.6807086171    1.5331186827    0.0302653695
 N   -5.6424956977    2.1862159226    0.0248038272
 H   -0.3751403178    1.6848623018    0.7673105945
 H    0.7590279589   -0.4728357657   -0.6410924290
 H   -0.0117650781   -1.6678471579    1.5347458478
 H   -0.0537464503    0.3123288853    2.8374613690
 H   -1.4505049464   -1.6495521772   -0.4923871629