18

 C   -0.0632650931    1.4553636329    0.1496449026
 C    0.0258295033   -0.0400264328   -0.0671938653
 O    1.0978194654   -0.5988490590   -0.2335848751
 C   -1.2549822402   -0.7927612552   -0.0487821282
 C   -1.3583283307   -2.0446798999   -0.9221694256
 C   -1.2547812076   -2.2169961223    0.5468133016
 N   -0.0755583518   -2.7442548803    1.1448123898
 C   -0.1087626664   -3.4140396882    2.3289935001
 O   -1.1141169353   -3.7007249582    2.9455904823
 H    0.9335144623    1.8965996761    0.1287246710
 H   -0.6891723406    1.9136629481   -0.6245923054
 H   -0.5436564540    1.6674651779    1.1117823001
 H   -2.1560639897   -0.2083815121    0.0995752744
 H   -2.3082534209   -2.2342425444   -1.4084584691
 H   -0.4754081756   -2.2655343917   -1.5126013488
 H   -2.1350322803   -2.4971014910    1.1111607443
 H    0.8075397641   -2.4482311482    0.7509711474
 H    0.9085650411   -3.6899156016    2.6671956738