22

 C    0.0538947043    1.5053310930   -0.1079972013
 C    0.0113538817   -0.0157860125    0.0486820125
 C   -1.4158298608   -0.6092757812    0.0324967803
 C   -1.4068841010   -2.1561238525    0.0926174154
 C   -2.7792905082   -2.7810256124   -0.0249023445
 C   -3.4011190800   -2.9962683114   -1.3838754311
 C   -2.9319067540   -4.1772828461   -0.5694893208
 C   -2.2174411459   -0.0584004981    1.1314330233
 N   -2.8375266479    0.3674841705    2.0096846082
 H    1.0864448811    1.8660434956   -0.0996463777
 H   -0.4019770659    1.8198120246   -1.0532516042
 H   -0.4832765307    2.0030363257    0.7049042268
 H    0.5699766771   -0.4919288345   -0.7655078036
 H    0.5045096171   -0.3117750690    0.9819177770
 H   -1.9097484007   -0.3076100012   -0.9010157625
 H   -0.7698121091   -2.5120535946   -0.7261370769
 H   -0.9247794970   -2.4701464216    1.0267026476
 H   -3.4647029022   -2.5044664566    0.7713860363
 H   -4.4674017360   -2.8360376431   -1.4961106360
 H   -2.8182373568   -2.7250473699   -2.2589091963
 H   -2.0362906742   -4.6944792591   -0.8984534315
 H   -3.6776239408   -4.8247924156   -0.1222912310