21

 C    0.5846690302    1.4843968241    0.1078292607
 C   -0.0732657981    0.1149896703   -0.0234567531
 O   -1.4731098863    0.2528088469   -0.2086344086
 C    0.6275902590   -0.8668710946   -1.0147671725
 C    1.1278653694   -1.7374942477    0.1947405111
 C    2.6271054018   -1.5765097849    0.4899217812
 C    0.2051881240   -0.8779614263    1.1323536005
 C    0.7774271649   -3.1466645032    0.1187551774
 C    0.4908466858   -4.3134853226    0.0569872180
 H    1.6580259350    1.4059377814    0.3034641686
 H    0.4627969920    2.0609025881   -0.8184265212
 H    0.1236774636    2.0467260239    0.9259227538
 H   -1.6194942936    0.8533548874   -0.9480069301
 H   -0.1038526757   -1.3929376862   -1.6293517971
 H    1.4154257174   -0.4545007368   -1.6517551143
 H    2.9042524639   -0.5194262543    0.5479161483
 H    2.8853733421   -2.0492752333    1.4423398203
 H    3.2277761714   -2.0444590617   -0.2958896335
 H    0.6872861994   -0.4714072859    2.0251786146
 H   -0.7066471721   -1.4029468205    1.4174005027
 H    0.2312359059   -5.3414303343    0.0016451832