19

 C   -0.2632194568    1.2491101990    0.2013975672
 N    0.8646294482    0.3241120342    0.0913391391
 C    0.9900852176   -0.4788001550   -1.0324911378
 O    0.8831254894    0.1738770864   -2.2285439854
 C    1.7607142632    1.2849954168   -2.4419910942
 N    1.1857203210   -1.7287427158   -0.9260320206
 C    1.5153194544   -2.5090284403   -2.0975924194
 C    2.6650742457   -3.4578079183   -1.7916952149
 O    3.3655288558   -3.9624890715   -2.6301193953
 H   -0.0723177454    1.9544557374    1.0143358572
 H   -0.3730568021    1.8144613161   -0.7245631991
 H   -1.2159099425    0.7369198026    0.3973574843
 H    0.9916557966   -0.2461336632    0.9173768093
 H    2.8071177075    0.9630770958   -2.3993559163
 H    1.5360840404    1.6554976985   -3.4434760051
 H    1.6048977896    2.0826423673   -1.7106923963
 H    0.6584880207   -3.1510409944   -2.3611794082
 H    1.7560984413   -1.9273274650   -2.9952997039
 H    2.8003928553   -3.6617518805   -0.7058026204