16

 N    0.1430999233   -1.1204703965   -0.2933235245
 C    0.0562796864    0.0174252674   -0.1090994059
 C   -0.0001556158    1.4614779348    0.0868508306
 C   -0.4387779750    2.2914228009   -1.1670092385
 C    0.9505016852    2.9958456099   -1.1982534045
 C    1.3782288092    2.2514986788    0.0920060158
 N    1.2551381751    3.0190384523    1.3294362294
 C    0.0844503964    2.6261031198    1.9508087498
 N   -0.6892958545    1.8115305416    1.3371700477
 H   -0.6795477185    1.6933429045   -2.0470116880
 H   -1.2854623938    2.9379007772   -0.9322239675
 H    1.5559463953    2.7269590985   -2.0667940477
 H    0.9350065892    4.0827532920   -1.0999331764
 H    2.3100659819    1.6848691309    0.0477423383
 H    2.0725743309    3.2068811000    1.8903580809
 H   -0.1614449053    3.0494477079    2.9205185606