19

 C   -0.0847647546    1.5155196458    0.1022634986
 C    0.0853654478    0.0300201744   -0.0111516417
 O   -0.5655371582   -0.7910925871    0.9861833816
 C    0.8710170244   -0.8492014064    0.8553348613
 C    1.3550095082   -1.9179307095   -0.1159615987
 C    0.1780751402   -2.2243994990   -1.0999671094
 C    1.2014919972   -2.4404324338   -2.2411138488
 C    1.7118268495   -1.2011888490   -1.4752135928
 C    0.2267267495   -0.6846161210   -1.3577963111
 H    0.6842387582    2.0391541250   -0.4762444961
 H   -1.0615004220    1.8268600624   -0.2851587185
 H   -0.0169878353    1.8340851150    1.1454444826
 H    1.4430501511   -0.5216884676    1.7181014984
 H    1.9828205353   -2.7357124415    0.2399496287
 H   -0.7116614853   -2.8086980450   -0.8719845386
 H    1.8176442540   -3.3423526328   -2.1841224622
 H    0.8413192786   -2.2761347287   -3.2606651181
 H    2.5998231958   -0.6007800557   -1.6854025879
 H   -0.2667368944   -0.2716858656   -2.2393676974