21

 C   -0.1395154115    1.5709352278    0.0527650941
 C    0.0240414559    0.0685006897    0.0582402174
 O   -1.1095573840   -0.5966968997   -0.4554388769
 C    1.3335109304   -0.6430954296   -0.2192032808
 C    2.6644299914    0.0987399115   -0.0901158247
 C    2.7067271900    0.4938995534    1.3712449682
 C    1.6392893198    0.0518319331    2.0394851122
 C    0.6936051232   -0.7217593349    1.1759683874
 C    0.0388960968   -1.9579925879    1.7507478028
 H    0.6875240576    2.0813441171    0.5475887600
 H   -0.1996594348    1.9446665594   -0.9777266637
 H   -1.0705865319    1.8425906113    0.5602883742
 H   -1.1546093608   -0.4068683390   -1.3991874199
 H    1.2654238310   -1.4954635270   -0.8869460559
 H    3.5125759354   -0.5446753542   -0.3606731169
 H    2.7261567953    0.9744532345   -0.7513143705
 H    3.5080103061    1.0912972060    1.7921770977
 H    1.4496696860    0.2122427698    3.0958262028
 H   -0.5623795245   -1.7071845751    2.6329203777
 H   -0.6223980922   -2.4242237821    1.0196147353
 H    0.7938023607   -2.6886708242    2.0617559697