18

 C    0.2241736697    1.4368945843   -0.4487579942
 N    0.0575304010    0.0248297479   -0.1389464696
 C    0.5627677643   -0.3279305776    1.1818456234
 C    2.0144436515   -0.1340214950    1.2921976754
 N    3.1538468447    0.0247825795    1.3960464588
 C   -1.2551972023   -0.5462092038   -0.3386283962
 C   -2.5273022858   -0.0049494971    0.2937900022
 C   -2.3103430836    0.0730124737   -1.2026897991
 H    1.2690900420    1.7128463989   -0.2846965985
 H   -0.0025966014    1.6147077830   -1.5013491612
 H   -0.4010348690    2.1085019189    0.1674532267
 H    0.0795744772    0.2367399143    2.0016254615
 H    0.3501304883   -1.3865959741    1.3671286034
 H   -1.1982450243   -1.6313862570   -0.3909173134
 H   -3.2507470431   -0.7094422302    0.6886814285
 H   -2.4690099664    0.9293087558    0.8419759731
 H   -2.1412674093    1.0556526501   -1.6252658086
 H   -2.8757627135   -0.5883796316   -1.8495193822