20

 C   -0.0822442641    1.6340110214   -0.0478958170
 C    1.3955983759    1.2385227480   -0.0337098848
 N    1.1395005980    0.1321429780    1.0240089463
 C   -0.0588519751    0.1062042506    0.0139557290
 C    1.1918640931   -0.0387816378   -0.9253381302
 C    1.7761934622   -0.3091224896   -2.2951277899
 C    3.2256163269   -0.8054547950   -1.8944291452
 C    3.3403640378   -0.8194675481   -0.3188029024
 C    1.8751686904   -0.8802176911    0.1117672010
 H   -0.4474061262    2.1446547203    0.8469746711
 H   -0.4714792026    2.0865883768   -0.9630735986
 H    2.2739544039    1.8818764244    0.0367762930
 H   -0.8709205675   -0.6102892725    0.1508770830
 H    1.2328721063   -1.0985919513   -2.8240044132
 H    1.8035435126    0.5668492793   -2.9491911250
 H    3.3879712615   -1.8130844743   -2.2873020827
 H    3.9986724260   -0.1712926478   -2.3357814391
 H    3.9496328529   -1.6548891853    0.0339276347
 H    3.8177191678    0.0998909902    0.0324058114
 H    1.5070482701   -1.9004915960    0.2701860787