21

 O    0.3722293051    0.3029177092    0.9516322165
 C   -0.0499761753    0.1082748403   -0.3958768274
 C   -1.4207836877   -0.5166824797   -0.3614687869
 C   -1.9839457192   -1.4568583462   -1.3973258537
 C   -0.9320478195   -2.4279877832   -1.9622610195
 C   -0.6200778906   -2.8727354650   -0.5182465289
 C   -0.3597756924   -4.2732394582   -0.0552805088
 C    0.7048192053   -3.2090607580    0.1044706952
 C   -1.6885700775   -1.9458025310    0.0292334793
 H    1.2281030000    0.7416158626    0.9322480007
 H   -0.1007772298    1.0685139653   -0.9340991528
 H    0.6580562940   -0.5331100336   -0.9364300585
 H   -2.1775757779    0.1589258452    0.0328600006
 H   -2.9456866584   -1.2660800770   -1.8580886017
 H   -1.3934397390   -3.2289173310   -2.5469877075
 H   -0.1148980590   -1.9952097199   -2.5498873063
 H   -0.8753533813   -4.6195867258    0.8353266556
 H   -0.2054734351   -5.0423758157   -0.8060130154
 H    1.5739356192   -3.2654712500   -0.5441642568
 H    0.9099119255   -2.8200414435    1.0960418766
 H   -2.3832494961   -2.1983283949    0.8222025296