18

 C   -0.0908271409    1.3678579867   -0.0031878322
 N   -0.0374933149   -0.0846068029   -0.0863481179
 C   -1.1029267603   -0.7433223742   -0.0254732645
 O   -2.3977832562   -0.2432373058    0.1128507551
 C   -3.1810818557   -1.4646678397    0.1342813693
 C   -2.3749454113   -2.3855032783    1.0744121798
 C   -1.3243870213   -2.2310029477   -0.0847336472
 C   -2.5511727478   -2.2457919623   -1.0619029914
 O   -3.0186191229   -3.5495275794   -1.2827049647
 H    0.5988093178    1.7034361354    0.7789916753
 H    0.2695295167    1.7945170776   -0.9465109019
 H   -1.0874520690    1.7727920013    0.2056026171
 H   -4.2378270584   -1.2245606219    0.2393918057
 H   -2.1152405576   -1.9903475241    2.0579931084
 H   -2.7783801152   -3.3942570779    1.1329489044
 H   -0.4538521288   -2.8664823176   -0.2151108823
 H   -2.4453938593   -1.6732801947   -1.9921643830
 H   -3.8384487348   -3.4950464947   -1.7843504899