20

 C   -0.0697999037    1.5615244885   -0.0429180536
 C   -0.1803824219    0.0330362265   -0.1134637075
 C    0.6474550820   -0.5589690818   -1.2488343743
 C    2.1939106162   -0.6591828734   -1.1122612314
 C    2.0040384172   -1.9413416330   -0.2754961905
 C    0.8285377572   -2.1299710433   -1.2996988648
 C    1.6369673815   -2.2182042821   -2.5681779188
 N    1.5241575552   -3.0003310574   -3.5481654836
 O    2.5651117300   -1.2029964980   -2.4162294117
 H    0.9579678802    1.8802974999    0.1607513244
 H   -0.3786608037    2.0239795368   -0.9863639941
 H   -0.7058918297    1.9645978589    0.7506335674
 H    0.0990487494   -0.3979842528    0.8535071447
 H   -1.2284968927   -0.2480689515   -0.2767415160
 H    0.3351320533   -0.1117269540   -2.1989433961
 H    2.8615515883    0.1626618509   -0.8617027837
 H    2.8188150755   -2.6677622823   -0.2940035310
 H    1.6664679212   -1.7664820520    0.7447570679
 H    0.0157273598   -2.8401214169   -1.1747252272
 H    2.2303519348   -2.7905559030   -4.2569540000