18

 C    0.0829939722    1.3043144741   -0.5708480310
 N   -0.1366937579    0.2042083838    0.3568993378
 C   -1.3737535915   -0.5521587912    0.2019739490
 C   -1.2734106734   -1.8612278457   -0.6188274202
 C   -0.9010354651   -1.6521573827   -2.0890517045
 O   -0.8053654306   -2.8768279448   -2.7920917592
 C   -1.9256249677   -0.8735422501    1.5371168272
 N   -2.3565821199   -1.1496270974    2.5730499665
 H    1.0360579120    1.7821632040   -0.3280294868
 H    0.1048458884    1.0276818550   -1.6378299183
 H   -0.7014641934    2.0568157776   -0.4362699175
 H    0.6625665339   -0.4141850766    0.4136935323
 H   -2.1029872330    0.1098635653   -0.2832124220
 H   -0.5368150030   -2.5244195959   -0.1504282866
 H   -2.2394839424   -2.3799069726   -0.5612252233
 H   -1.6200485091   -0.9654227581   -2.5658167011
 H    0.0877151610   -1.1913869728   -2.1715999721
 H   -1.6743310203   -3.2912847519   -2.7902757603