18

 C    0.2222550469    1.5589883255    0.0073460916
 C   -0.0659759864    0.0987349584    0.1176794341
 C   -1.4037563023   -0.6368208386   -0.0600560193
 C   -0.8627785496   -1.7532998950    0.9144462012
 N   -0.7082975096   -3.0890206485    0.4012073258
 C   -1.3371357349   -4.1750698245    0.9248437316
 O   -2.1061167900   -4.1548014818    1.8630067624
 C    0.4380537869   -0.9449037838    1.0300838653
 O    0.9502402678   -0.8322078599   -0.3091603649
 H    1.2425642751    1.7741886498    0.3351201997
 H    0.1178839545    1.8977691415   -1.0294297745
 H   -0.4753416640    2.1375670285    0.6211313059
 H   -2.2614600487   -0.1051146561    0.3588303315
 H   -1.6284615550   -0.9549396354   -1.0808563532
 H   -1.4369782827   -1.8179948029    1.8380782519
 H   -0.0752091924   -3.2083136337   -0.3751436479
 H   -1.0641307405   -5.1045111025    0.3869774962
 H    1.1589227749   -0.9116937508    1.8398372527