18

 C    0.0639800759    1.5811091213   -0.1400174032
 O    1.5363760549    1.4440990313    0.0702187973
 C    1.1579584367    0.3068706938    0.9382408420
 C    1.1518326526   -1.2477731409    1.2531865035
 N   -0.3928530359   -1.0030321980    1.1509808041
 C   -0.0162715982    0.0283344204    0.1005366204
 C    0.2801172322   -0.6796863556   -1.2475548436
 C    1.2066867829   -1.8563324330   -1.0803779482
 C    1.6537174082   -2.1248327454    0.1436047631
 H   -0.3809613464    2.1998195905    0.6459790090
 H   -0.1568687011    1.9750452233   -1.1353666261
 H    0.8574981253    0.7606739528    1.8898393960
 H    1.4728106622   -1.5496177950    2.2510063867
 H   -0.8533896071   -1.8174076285    0.7428091361
 H   -0.6821975113   -0.9941102455   -1.6807542185
 H    0.7180453875    0.0214831552   -1.9659330305
 H    1.5100019929   -2.4211488583   -1.9566125211
 H    2.3559715687   -2.9216615585    0.3632351528