18

 C   -0.1124114250    1.4876315639    0.0196929334
 C    0.0900204070    0.0021786932    0.0355695127
 C    1.0219223634   -0.7920069084   -0.9140594684
 C    0.6944211816   -1.9342646225    0.1079939482
 N    1.4759092958   -3.1274805382    0.2147608164
 C    0.7003389162   -0.8131833793    1.2033211243
 C   -0.8221326417   -2.0055233225   -0.1231251081
 O   -1.5563175146   -2.9409832673   -0.2437051335
 O   -1.1990941517   -0.6918625586   -0.1671219882
 H    0.8426024596    1.9990546515    0.1696489351
 H   -0.5329931593    1.8089210051   -0.9377822894
 H   -0.7989244020    1.7914325822    0.8154817156
 H    0.6982841707   -0.9112448487   -1.9508412563
 H    2.0666835735   -0.4812819478   -0.8557637880
 H    1.1127504654   -3.7021486371    0.9722226967
 H    1.3554128530   -3.6863323384   -0.6272862693
 H    1.7143712737   -0.5044658668    1.4639104007
 H    0.0838480044   -0.9517057802    2.0947400081