24

 C   -0.2254638228    1.4865523718   -0.1771839449
 C    0.0338669575   -0.0146374170   -0.0595453817
 C    1.3038537380   -0.4894281827   -0.8284827849
 C    2.0852872711   -0.4968234272    0.5121057309
 C    0.7230214999   -0.4982993455    1.2614314628
 C    0.5541321704    0.2932505371    2.5499481737
 N    1.2096120031   -0.3825258934    3.6679379266
 C    2.5950138939   -0.0108903954    3.9377616417
 C    1.4980070152    0.4329569315    4.8408578322
 H    0.6751887721    2.0756006207    0.0282055785
 H   -0.5536279008    1.7357631652   -1.1923620215
 H   -1.0065864104    1.8206411621    0.5141114470
 H   -0.8861624541   -0.5538931344   -0.3070555447
 H    1.1848575438   -1.4955352173   -1.2399897088
 H    1.6713646450    0.1671269223   -1.6224168333
 H    2.7663530982   -1.3299902839    0.6997751433
 H    2.6361799400    0.4367462219    0.6669036724
 H    0.4230900455   -1.5316034403    1.4646300322
 H    0.9286400164    1.3256215814    2.4218030355
 H   -0.5134154410    0.3695452267    2.7958438859
 H    3.2579545530   -0.8216897118    4.2262903212
 H    3.0537354588    0.7495825991    3.3077093424
 H    1.2273552098    1.4877454369    4.8098512185
 H    1.3418912473   -0.0479112779    5.8025269450