16

 O    0.1860177821    0.0874428076    0.5502482032
 C    0.0210988587    1.1389804804   -0.0115989135
 N   -1.1874194537    1.8018722024    0.0248354540
 C   -1.6410444433    2.9298268311   -0.6767953775
 C   -0.9209798586    3.9660558966   -1.1120669175
 C    0.5303193677    4.1833562709   -0.9299793983
 C    1.1720704496    3.9176835821    0.4438204894
 C    1.4476917493    3.0142894716   -0.7109792280
 O    0.9967429913    1.6789778399   -0.7909164760
 H   -1.8762253322    1.2773195945    0.5420890013
 H   -2.7144573101    2.9158279818   -0.8321403538
 H   -1.4621791827    4.7365217738   -1.6493088400
 H    0.9419504868    5.0078484236   -1.5019754104
 H    1.9687996660    4.5692937576    0.7844960466
 H    0.5054301330    3.5728550470    1.2252022353
 H    2.4319202061    3.0505522391   -1.1637386149