19

 C    0.1380369838    1.5197097930   -0.0688034397
 C   -0.0572587650    0.0101587298    0.0441289842
 C   -1.4998304216   -0.4273719418    0.0777647767
 N   -2.4636119825    0.3953655407    0.0942680006
 C   -3.8330662425   -0.1057859749    0.0717508253
 C   -3.9376893888   -1.5550573282   -0.4116400148
 C   -2.8620755706   -2.3673662838    0.2950894148
 O   -1.5670740466   -1.7923884946    0.0854674564
 H    1.2044475341    1.7643034072   -0.0820118494
 H   -0.3190157388    1.9069052745   -0.9827826206
 H   -0.3293193733    2.0387860920    0.7711049484
 H    0.4260403951   -0.5138550795   -0.7902314094
 H    0.4293841152   -0.3808737758    0.9471806760
 H   -4.2569441888   -0.0096103820    1.0813307458
 H   -4.4255805236    0.5586997787   -0.5671872524
 H   -4.9271727639   -1.9776296819   -0.2086192466
 H   -3.7720127733   -1.6030064388   -1.4939693394
 H   -3.0567470421   -2.4079147879    1.3757366522
 H   -2.7956542069   -3.3924460868   -0.0779998781