15

 N    0.0216909037    1.3807084387    0.1808112834
 C   -0.0474742283    0.0134246688    0.0795790397
 C   -1.1917794538   -0.7253760272    0.0670145995
 C   -1.1032638041   -2.1484008825    0.0208377772
 N   -2.0300840454   -3.0445646596   -0.0345957272
 C    0.3005803406   -2.6498147506    0.0306404909
 N    0.4319017766   -3.9978916005    0.0689852520
 N    1.3740706331   -1.9180301551    0.0166361938
 O    1.1780453206   -0.5172938589    0.0351313275
 H    0.8969647157    1.7832276154   -0.1203808194
 H   -0.7950942089    1.8872416993   -0.1218377650
 H   -2.1548297277   -0.2300733443    0.0947320844
 H   -2.9550830374   -2.6134560567   -0.0449118226
 H   -0.4209788996   -4.5039874293   -0.1235433951
 H    1.3259778950   -4.4071526974   -0.1407511190