18

 C   -0.0243691282    1.5655912924    0.0798710677
 C   -0.0321348278    0.0362448084    0.0074567559
 C    0.8784489171   -0.5280436170   -1.1289452345
 N    2.0685195293   -1.1133090763   -0.4815197188
 C    1.8167838628   -1.1195935319    0.7668193561
 N    0.5901793253   -0.6234747355    1.1734248857
 C    0.2459752732   -0.3559312781    2.5439568778
 C    0.8355490796    0.8732391794    3.1230846948
 N    1.3145249465    1.8258871436    3.5683213798
 H    0.9959969169    1.9493594443    0.1739909152
 H   -0.4617281217    1.9724641249   -0.8376159478
 H   -0.6102903552    1.9452772336    0.9223770962
 H   -1.0650288838   -0.3166090392   -0.0945067183
 H    0.3684301571   -1.3083838338   -1.7060086294
 H    1.1756639971    0.2548974296   -1.8339955646
 H    2.4959767969   -1.5146596032    1.5182626218
 H   -0.8433820928   -0.2916641291    2.6412530792
 H    0.5632128776   -1.1995134221    3.1680434232