21

 C    0.0652346553    1.5699880808    0.2046767690
 C    1.5987648638    1.6786685589    0.1366220186
 O    1.9840094285    0.7395350689   -0.8626170546
 C    1.1846322944   -0.4188591928   -0.6693296592
 C   -0.1965052640    0.1073932999   -0.2280288279
 C    1.3022983033   -1.2936569382   -1.9342823494
 C    2.3028161509   -2.4079956879   -1.5442269555
 C    2.7933004155   -1.9583419862   -0.1566368726
 O    1.7082146100   -1.2123030637    0.3863912104
 H   -0.3210444079    1.7950892173    1.2013476017
 H   -0.3965579045    2.2695353958   -0.4972462485
 H    1.9630133407    2.6618871331   -0.1706140415
 H    2.0551901831    1.4177355681    1.1010071542
 H   -0.5755249630   -0.5160175042    0.5834108443
 H   -0.9073159469    0.0557484264   -1.0553722803
 H    0.3284580514   -1.7068262262   -2.2051014310
 H    1.6518830568   -0.6783278851   -2.7648793251
 H    1.7968674188   -3.3745879474   -1.4733113439
 H    3.1228756251   -2.5133144939   -2.2581210946
 H    3.0088913725   -2.7816223959    0.5285780950
 H    3.6867310462   -1.3250064879   -0.2409878590