16

 C   -0.0239738483    1.4916048610    0.0828413436
 C   -0.0017967555    0.0060258508   -0.0495938076
 C   -0.0475791170   -0.7930718006   -1.1641671836
 C    0.0031521999   -2.1578134858   -0.7164661156
 C    0.0783859291   -2.1028168637    0.6721120621
 N    0.1297164542   -3.3645901888    1.1551364736
 N    0.0905896769   -4.2714613874    0.1258264025
 C    0.0153210678   -3.5506049423   -0.9882938894
 N    0.0764313174   -0.8061050375    1.0965462145
 H    0.8782215494    1.8781500960    0.5744764553
 H   -0.0819755390    1.9489866314   -0.9072486216
 H   -0.8871641855    1.8441368039    0.6622716389
 H   -0.1103610985   -0.4282158189   -2.1779093180
 H    0.1874092031   -3.7032736253    2.0978962431
 H   -0.0268615568   -4.0643981753   -1.9375702358
 H    0.1237156627   -0.4678149674    2.0406592081