15

 O   -0.5316559845    0.9203015021    0.9180133784
 C    0.2045728879    0.8662945879   -0.0313321644
 C    1.4588486927    1.7105101364   -0.1643007772
 N    2.5905362847    1.0582261751   -0.8908693757
 C    2.7137762757    2.2176632198   -1.7868660744
 C    1.4988949185    2.3072164787   -2.6332573635
 C    1.4293912658    2.8561189470   -1.2101153854
 C    1.1050242433    4.2090417107   -0.9212140607
 N    0.8530325917    5.3135946438   -0.6808874840
 H    0.0098935833    0.1921279972   -0.8932937671
 H    1.7320954416    2.1034394013    0.8185018957
 H    3.3951064482    0.9460510144   -0.2851296193
 H    3.6618393480    2.6845748874   -2.0218777005
 H    1.5021267875    3.0869437726   -3.3869094482
 H    0.9597270158    1.4042609756   -2.8987108736