20

 C    0.3692491344    1.2631079377   -0.3819867447
 C   -0.1131303578   -0.1405262389    0.0027713574
 C    0.5426494456   -0.6435564174    1.2733895464
 C    0.6999113317   -2.1134794452    1.6442985711
 C    0.6151877747   -3.1572813209    0.5463264702
 C    1.7211533865   -2.7773336135   -0.4274833252
 N    1.9449089089   -3.3310187102   -1.5384290022
 O    2.4450030233   -1.7219337890    0.0721995494
 C    1.9068411917   -1.2795694160    1.3048349013
 H    1.4463602487    1.2631728694   -0.5758446226
 H   -0.1372587892    1.6198073348   -1.2838705147
 H    0.1730092692    1.9844205402    0.4189795910
 H   -1.2008099071   -0.1335047240    0.1480195658
 H    0.0756705490   -0.8259856510   -0.8288814357
 H    0.3542896539   -0.0090329900    2.1380430965
 H    0.4937378505   -2.4155803006    2.6637161273
 H    0.8073620951   -4.1597186593    0.9409217787
 H   -0.3435363035   -3.1962047862    0.0226597951
 H    2.7370753310   -2.8884613351   -2.0072419915
 H    2.6787632535   -0.9828494847    2.0041094666