18

 C   -0.1454080279    1.4799493078   -0.1730833240
 N    0.1466599176    0.0757551166   -0.0089525764
 C    1.0897779078   -0.6222601523   -0.8956678835
 C    1.4753498793   -1.5211005995    0.3055814990
 C    0.7764071655   -0.4557886143    1.1878745732
 C    1.5932010527    0.3867520932    2.2094118949
 O    0.7647513642   -0.1274094827    3.2967156619
 C   -0.0416386222   -0.8392418299    2.4365913247
 O   -0.9960051505   -1.4919329942    2.7058422182
 H    0.7519934414    2.1252903432   -0.1660090669
 H   -0.6599237774    1.6323546642   -1.1272488644
 H   -0.8179601574    1.8160103179    0.6229795238
 H    0.6305598276   -1.1012180323   -1.7665231519
 H    1.9257459265    0.0092344873   -1.2381070827
 H    0.9474429991   -2.4753682702    0.3182813627
 H    2.5374915582   -1.6802529713    0.4923109643
 H    2.6394845818    0.1069740248    2.3514182470
 H    1.4924496439    1.4712804016    2.1268217902