17

 C    1.1042681339    0.2583189035    0.2458372389
 C   -0.2856717729    0.4437954447   -0.3596758179
 N   -1.0612179867   -0.7830959879   -0.2287475619
 C   -1.9211632690   -1.0772789257   -1.0913816132
 O   -2.2462351356   -0.3349316866   -2.2055729875
 C   -3.2290774862   -1.0256196749   -2.9509691788
 O   -3.5548920628   -2.2113145462   -2.2445219113
 C   -2.7861728892   -2.2916376612   -1.1130500160
 N   -2.8126303188   -3.2166558797   -0.2612514940
 H    1.6728822528    1.1921532779    0.1958804805
 H    1.0280567519   -0.0515345207    1.2915238941
 H    1.6623851921   -0.5128447688   -0.2934723309
 H   -0.8196367867    1.2352164813    0.1847964337
 H   -0.2129899372    0.7757655168   -1.4040842726
 H   -4.1237960776   -0.4003143780   -3.0487863158
 H   -2.8322101003   -1.2856556377   -3.9395389652
 H   -3.4971472078   -3.9293112169   -0.5186339421