22

 C   -0.0968311298    1.6060609741    0.0105776060
 C    0.1022424552    0.0960011707    0.0306068610
 C    1.2031914426   -0.5805040308   -0.7655362057
 N    1.3556124986   -1.6932541616    0.2388776029
 C    2.4472231120   -0.6684394874    0.0653829808
 C    3.7872980264   -1.0223846711   -0.5023405978
 C    2.1551676844   -0.0315167022    1.4134829736
 C    0.7482640242   -0.6414488037    1.2368924271
 C   -0.0680593982   -1.1108036796    2.4063699854
 H    0.8353650291    2.1481374966    0.1928502281
 H   -0.4805240389    1.9305827313   -0.9629002191
 H   -0.8236756932    1.9179939133    0.7690274467
 H   -0.8445812134   -0.4097866782   -0.1957743656
 H    1.2203310320   -0.7906565724   -1.8304971495
 H    3.6790455664   -1.6787654634   -1.3713462907
 H    4.3281262478   -0.1236613578   -0.8207152896
 H    4.4022358240   -1.5439331423    0.2388452235
 H    2.7036961294   -0.5504219927    2.2063353298
 H    2.2606565524    1.0500041568    1.5474348332
 H   -0.4177755974   -0.2577731375    3.0001120192
 H   -0.9443368987   -1.6747778739    2.0706555133
 H    0.5220795652   -1.7598527582    3.0613283074