17

 C   -0.0200551362    1.4726385327    0.0688151249
 C   -0.0011283285   -0.0170595194   -0.0223515065
 C   -0.0340803622   -0.7972223071   -1.1208034160
 C    0.0033196076   -2.1937320055   -0.7314971737
 C    0.0066981518   -3.5089804525   -1.1324968232
 N    0.0644183071   -4.3337493511   -0.0291959121
 C    0.0953657219   -3.5378507116    1.0221681321
 N    0.0604668195   -2.2304388267    0.6496859661
 C    0.0633110252   -0.8931289335    1.2245497852
 H    0.8763143960    1.8588868885    0.5714614004
 H   -0.0694188593    1.9256937650   -0.9244977751
 H   -0.8816526315    1.8319586455    0.6465932436
 H   -0.0813080475   -0.4466005794   -2.1426741376
 H   -0.0281754792   -3.9112305677   -2.1328681137
 H    0.1424055044   -3.8566046008    2.0526073274
 H    0.9708590081   -0.7082260721    1.8132735629
 H   -0.7985272474   -0.7355208043    1.8854737953