23

 C    0.1023170556    1.4359411015   -0.4579119189
 C   -0.0274101280   -0.0900155882   -0.4211718925
 C   -1.3897535738   -0.5859279673    0.1105453071
 C   -2.5480333411   -0.1721868595   -0.7738098808
 C   -3.1009710643   -1.2010404100   -1.4177120875
 C   -2.3866542962   -2.4954094652   -1.1138715640
 O   -1.6026101494   -2.9393767540   -2.2257935035
 C   -1.5712241168   -2.1383811711    0.1638166143
 C   -0.3196953085   -2.9880915951    0.3687021701
 H    1.1010635801    1.7376591406   -0.7881135882
 H   -0.6220968365    1.8885010447   -1.1423695270
 H   -0.0637862699    1.8695921205    0.5349114352
 H    0.1426541051   -0.4956582853   -1.4272098565
 H    0.7676224919   -0.5011617796    0.2112882405
 H   -1.5091305374   -0.1656338943    1.1191104730
 H   -2.8623081962    0.8615533572   -0.8742407282
 H   -3.9149046521   -1.1412352767   -2.1318650541
 H   -3.0661508594   -3.3317775493   -0.9180990833
 H   -1.1884978046   -2.1605101223   -2.6128252006
 H   -2.2533306053   -2.3284129734    1.0020834002
 H    0.3695886794   -2.9092630246   -0.4749470753
 H    0.2132696029   -2.6969840113    1.2800283978
 H   -0.5892720556   -4.0449493173    0.4644607821