11

 O    0.0846931570    1.2983532908   -0.0420024072
 C    0.0660546978   -0.0387301022   -0.0779791197
 C   -0.0028114687   -0.8122244083   -1.2178797556
 N    0.0086214488   -2.1021997040   -0.6864131268
 N   -0.0256181743   -3.3954321776   -1.0340957162
 N    0.0197931584   -4.0986222101    0.0116356997
 O    0.0906467061   -3.2248104187    1.1654656895
 C    0.0803576575   -1.9925213488    0.6695451321
 N    0.1183474025   -0.7661954005    1.1053297815
 H    0.1361712949    1.5552541910    0.8877448849
 H   -0.0544280001   -0.5915029715   -2.2661173822