16

 O    0.0626394106    1.4938533849   -0.0497929704
 C    0.1006027794    0.0900572609   -0.0118578432
 C    0.0168575951   -0.6125056352    1.3614032177
 C   -1.5094766992   -0.2775219014    1.4986517556
 C   -1.8577911453   -1.7570257871    1.8081899462
 C   -3.1841322770   -2.2396200547    1.4519807628
 N   -4.2371998168   -2.6205065476    1.1631126557
 C   -0.7430112134   -1.8290299788    0.7331023778
 C   -1.2817754501   -0.5679939983   -0.0269365635
 H    0.9572698305    1.8289755658    0.0646941979
 H    0.8381743691   -0.3223931198   -0.7152642490
 H    0.7421180195   -0.6602297208    2.1751864787
 H   -1.9499513124    0.6157452219    1.9345642856
 H   -1.5805384020   -2.1140942959    2.8049076995
 H   -0.3026286959   -2.7203227323    0.2879029363
 H   -2.0418888522   -0.5580352515   -0.8066741277