19

 O   -0.1863116870    1.4293748455    0.7005695384
 C   -0.0172287393    0.1621817957    0.1325963435
 C   -0.6558281235   -1.0360562601    0.7771642289
 C   -1.2331376797   -0.4552538278   -0.5055364290
 C   -2.5306055088    0.2984693600   -0.4770458146
 C   -3.6557282632   -0.0994782813   -1.4079634957
 O   -3.4138923939   -1.2552149182   -2.1740453484
 C   -3.8035757915   -0.3291704225    0.0753266436
 O   -3.8069539716   -1.6439730817    0.5392866841
 H    0.2666043796    1.4388123326    1.5495447120
 H    0.9366232254    0.0219515247   -0.3757198048
 H   -0.1412246990   -1.9904830862    0.7396829434
 H   -1.2325120842   -0.8607017279    1.6782463276
 H   -1.0494667447   -1.0231116928   -1.4111751150
 H   -2.4297073091    1.3653526618   -0.3055280542
 H   -4.2210281587    0.6773468210   -1.9196763864
 H   -4.2684247317   -1.6411771446   -2.3975443056
 H   -4.4810972037    0.2895041752    0.6546609977
 H   -3.4379013454   -2.1828604133   -0.1730428053