17

 O   -0.2643039178   -0.0080662287    0.9368327993
 C   -0.0357753838    0.8952529752    0.1555467037
 C   -1.1776822554    1.5984852189   -0.5663186242
 O   -0.8649308475    1.7658625780   -1.9381036131
 C   -0.8941647352    3.0942183866   -2.3890485736
 C    0.1572025831    3.9963324750   -1.8173410407
 C    1.2573262419    3.7111736671   -1.1048007410
 C    1.8473329504    2.4688060062   -0.6035034764
 C    1.3561962577    1.3185497210   -0.1032432827
 H   -2.0746383419    0.9795322549   -0.4572666158
 H   -1.3607572299    2.5652411305   -0.0746627471
 H   -0.7665656368    3.0446841035   -3.4795291965
 H   -1.8847134915    3.5534119701   -2.2197424052
 H    0.0037417750    5.0431114382   -2.0771117704
 H    1.8954309158    4.5675991613   -0.8898238090
 H    2.9339968880    2.5459160261   -0.5535727305
 H    2.0705195080    0.5935765560    0.2777776232