17

 O    0.4603134699    1.0913065897   -0.3280783844
 C    0.0807400300   -0.2249285133   -0.0098667051
 C    0.1958863263   -0.5366360084    1.5301353008
 O    0.7851437171    0.4822719841    2.2817775815
 C   -1.3555516061   -0.7059388182    1.6054768388
 O   -1.8770001527   -1.8518106001    2.1972928944
 C   -2.1211286389    0.6223073196    1.7553342677
 O   -2.0953005724    0.8403345751    0.3092444811
 C   -1.4576247305   -0.4349730316    0.0743514381
 H   -0.3628265690    1.6071895148   -0.2642156850
 H    0.6174673988   -0.9240720809   -0.6550990292
 H    0.6872917026   -1.4982969291    1.7310351955
 H    1.0088814069    1.1695265544    1.6323087437
 H   -1.3983731267   -2.0160765501    3.0171715085
 H   -3.1482656850    0.4849273904    2.1073752998
 H   -1.6219824129    1.4241932685    2.3061981401
 H   -1.9766727875   -1.0496268149   -0.6622475365