16

 O    0.2755519452    0.4815200976    0.8411790395
 C   -0.1336789847    0.1553487171   -0.4799989147
 C   -1.4728784419   -0.5242370829   -0.3709709011
 C   -2.0107271442   -1.5879516391   -1.2918497666
 N   -0.9716773761   -2.5146089910   -1.7521095452
 C   -0.5912921342   -2.8573167922   -0.4357326700
 O    0.2727734685   -3.5691950353   -0.0138843736
 C   -1.6870325549   -1.9552656647    0.1467079764
 O   -2.5479468277   -2.2512095485    1.1707932085
 H    1.1429352253    0.8948980251    0.7953555054
 H   -0.2316895790    1.0593151955   -1.1024465068
 H    0.5947526661   -0.5047398838   -0.9724475414
 H   -2.2571599501    0.1213433522    0.0231027329
 H   -2.9763292577   -1.5558022618   -1.7783714518
 H   -0.2929953430   -2.2863825059   -2.4698890376
 H   -2.1663971615   -1.9147642724    1.9896218363