18

 C    0.0490081050    1.4740674477   -0.1654920375
 C    1.3049544026    0.6895246181    0.0038610211
 C    2.1079622415    0.7770361105    1.2726461347
 N    1.8416774954    1.8782499001    2.2175594699
 C    1.4434104959    0.5073507449    2.5815752814
 C   -0.0483959046    0.2146146185    2.5753985169
 C   -0.4800700921   -0.5195340044    1.2858714769
 N   -0.0114545829    0.0259789451    0.0120169393
 H   -0.2237060966    2.1306783937    0.6554839352
 H   -0.2378171461    1.8305433682   -1.1514499622
 H    1.8951216514    0.4591902365   -0.8806014780
 H    3.1407923958    0.4555476526    1.1656695570
 H    2.7003055180    2.1356457357    2.6968417539
 H    2.0348569466    0.0009141557    3.3400506966
 H   -0.3169649024   -0.4117505374    3.4322916840
 H   -0.5984331299    1.1536883633    2.6894462911
 H   -0.1165893135   -1.5542544461    1.3286992624
 H   -1.5734945441   -0.5695933228    1.2408171573