14

 O    0.0257815774    1.4242108642    0.1065246518
 C    0.0609577894    0.0315520128   -0.0451181585
 C   -1.3468011351   -0.5835058605   -0.0023817068
 O   -1.8680754539   -0.2397001444    1.2802519491
 C   -3.0679192689   -0.7740910094    1.6370295982
 N   -3.5215213343   -0.5352532623    2.7845400584
 C   -2.2046479810   -0.0720310853   -1.0866778597
 N   -2.8889456271    0.2935865730   -1.9422406194
 H   -0.4051421916    1.6119789692    0.9489549474
 H    0.5184286146   -0.1823928863   -1.0149889227
 H    0.6524572567   -0.4653775366    0.7380346837
 H   -1.2726023021   -1.6748286720   -0.1069165510
 H   -3.5313668976   -1.3787315141    0.8485076280
 H   -4.4216598362   -0.9927929085    2.9125002214