16

 O    0.6418026787    0.0109019518   -0.0004557273
 C    0.3903336295    1.1842814313   -0.0509382798
 C    1.3140389471    2.2836878809   -0.5673486290
 O    2.5376465168    1.8167668285   -1.0397003285
 C    3.5701852209    1.7893921047   -0.0864771492
 C    3.7441475646    0.5952072195    0.8148861003
 C    4.6814523637    0.8312462685   -0.3531079171
 C   -0.9292533465    1.6985615050    0.3895113082
 N   -1.9458595488    2.1296665760    0.7327965953
 H    0.7847574000    2.7761233824   -1.3963428976
 H    1.4159047113    3.0406742761    0.2277497974
 H    3.8145756420    2.7763514086    0.3066660552
 H    4.1104640614    0.7641171647    1.8217365737
 H    3.0223729560   -0.2044813684    0.7101681418
 H    4.5601124658    0.1861063362   -1.2154305020
 H    5.6981472275    1.1550050441   -0.1630858314