18

 C   -0.0743794867    1.5662143004    0.0242957537
 C    0.0297968442    0.0348256199   -0.0006724408
 C    0.7988847431   -0.4310130675   -1.2282475859
 O    0.4683186496   -1.3572622386   -1.9238142937
 C    0.6784525297   -0.5106905215    1.2858854978
 C    0.8395295045   -2.0546787401    1.3665122272
 N    2.2891561193   -2.2848374472    1.4986471059
 C    2.8221375904   -1.1382026524    1.5004426891
 O    2.0476133572   -0.0260054973    1.3959611411
 H    0.9175430782    2.0215840789    0.0959475487
 H   -0.5642372709    1.9452632760   -0.8775054356
 H   -0.6585574759    1.8965874829    0.8886326648
 H   -0.9661565515   -0.4185346505   -0.0655422326
 H    1.7183052932    0.1548270952   -1.4514567011
 H    0.1316536535   -0.1068617096    2.1445645474
 H    0.3174274705   -2.4795728342    2.2289375651
 H    0.4649296808   -2.5581860056    0.4697108182
 H    3.8841310708   -0.9340627089    1.5798481006