22

 O    0.8421660127   -0.9177893644   -1.3085731190
 C   -0.1102237064   -1.9604896344   -1.2081761130
 C   -1.4846839530   -1.5366451836   -0.7126682876
 C   -1.6463591323   -0.3986310830    0.2291885871
 N   -2.1890969001   -0.3202400867   -1.1237636712
 C   -1.6903041612    0.6353390673   -2.1068461319
 C   -0.8940933917    1.8219883211   -1.5939834452
 C   -1.3989508492    0.0956712891   -3.4952759117
 C   -2.6529080574    0.9018344410   -3.2381604585
 H    0.6215302597   -0.4087657764   -2.0946922330
 H   -0.2126313160   -2.4943113907   -2.1649843946
 H    0.2958270509   -2.6828442887   -0.4894366274
 H   -2.1514995363   -2.3949372686   -0.6096862077
 H   -2.3802106296   -0.4294979297    1.0318560293
 H   -0.7395435101    0.1541814564    0.4584630806
 H    0.0607780536    1.5263737728   -1.1499680381
 H   -0.6857346020    2.5175589997   -2.4123007631
 H   -1.4667961349    2.3655591559   -0.8349915183
 H   -0.6044837511    0.5516123032   -4.0793072401
 H   -1.5237147394   -0.9683329102   -3.6621180072
 H   -3.5905398332    0.3597581466   -3.2084541494
 H   -2.7117921130    1.9048194533   -3.6470321501