16

 O   -0.9856657118    1.5396757521    0.0520993933
 C    0.0896966336    0.9924209779    0.1575406399
 C    1.3688541764    1.7068663157   -0.0514722382
 N    1.3434594202    3.2008682742   -0.0257578116
 C    1.5935793310    2.5538939527   -1.2917177023
 C    3.0702524320    2.4988061345   -1.6645408753
 C    3.7790525788    1.9390052350   -0.4099450466
 C    2.7054591894    1.1272255585    0.3213408362
 O    2.8718867389    0.1437690409    0.9977668746
 H    0.1828718105   -0.0780794924    0.4199585225
 H    0.3503512279    3.4396110839    0.0336674957
 H    0.8255464410    2.5722347246   -2.0591130197
 H    3.2022766714    1.8229442552   -2.5155497249
 H    3.4415427079    3.4845737440   -1.9586706599
 H    4.6497098751    1.3182748004   -0.6256177983
 H    4.0970554377    2.7482490028    0.2557397445