13

 C    0.0547823135    1.5869995409   -0.0308152985
 C    0.0250116705    0.0683633731    0.0444270697
 N    0.9531718307   -0.6563897329   -0.8744678372
 C    1.4863258123   -1.5222126471    0.2107099965
 C    0.7538074199   -0.6186633889    1.2156200949
 O    0.7691919699   -0.4729096063    2.4002975908
 H    1.0840236095    1.9524133823    0.0169681169
 H   -0.3899740087    1.9390609615   -0.9667051288
 H   -0.5105056329    2.0156765866    0.8025871320
 H   -1.0142363462   -0.2951183923   -0.0025033581
 H    0.4855386907   -1.1664462016   -1.6142975976
 H    1.1059653050   -2.5534227116    0.2356657027
 H    2.5790251458   -1.5506910437    0.2821938268