17

 C    0.2352783556    1.5838279777   -0.0296716444
 C    0.0037309029    0.0820930201    0.1428009151
 N    0.6733434849   -0.4610091142    1.3035127314
 N    2.0639350995   -0.5300744357    1.3624950424
 C    2.3078252940   -1.0307033285    2.5345084811
 N    3.5654261471   -1.1990820023    3.0891515646
 N    1.1581943117   -1.3217986819    3.2238831915
 C    0.0580054331   -0.9353331757    2.4349528986
 O   -1.1227941337   -1.0148235100    2.7071614339
 H    1.3035990537    1.7991367530   -0.1161514841
 H   -0.2641063712    1.9406150639   -0.9357028861
 H   -0.1618298016    2.1393367408    0.8249541810
 H   -1.0566640906   -0.1396335240    0.2888258993
 H    0.3474187362   -0.4613832467   -0.7448049743
 H    4.2846378740   -0.9857597070    2.4088244375
 H    3.7160861958   -2.1188739195    3.4865255913
 H    1.0728789984   -1.6034937400    4.1848321313