19

 C    0.1689658146    1.2483547390   -0.2848688742
 O    0.0199905232   -0.0118730741    0.3302007289
 C   -1.2730828812   -0.5365479022    0.2101613087
 C   -1.7046820445   -1.1447519934   -1.1557864012
 C   -2.2990243767   -2.3577187995   -0.3836436518
 O   -1.9647505562   -3.5894833077   -0.9949676592
 C   -1.4420659654   -1.9231313877    0.8564387136
 C   -3.7350312455   -2.2555305957   -0.1408277298
 C   -4.9167830004   -2.2072787001    0.0783553337
 H    1.1967738893    1.5755652523   -0.1112118385
 H   -0.0083009697    1.2012187559   -1.3698923263
 H   -0.5192974339    1.9937505691    0.1440178555
 H   -2.0177552824    0.1855216258    0.5772831399
 H   -2.3766559819   -0.5851845451   -1.8070456086
 H   -0.8287340832   -1.4862844118   -1.7133378846
 H   -2.4644618022   -4.2864570577   -0.5555460593
 H   -0.4921128326   -2.4622511597    0.8334001343
 H   -1.8951477398   -1.9870173648    1.8463861436
 H   -5.9618647014   -2.1572814127    0.2613725253