22

 C   -0.5252642542    1.2638429789   -0.6386652428
 C   -0.2063929700    0.1802372971    0.4022904976
 C   -1.3399777440   -0.7940983947    0.6028711405
 N   -1.9775122210   -0.8737529842    1.6917604782
 O   -1.5266581293   -1.5154917728   -0.5523616924
 C   -2.7217059401   -2.2655837975   -0.7427096727
 C   -2.6491402852   -3.6991403261   -0.2387419498
 O   -2.8633944979   -3.7274956919    1.1540301793
 C   -2.7205513364   -5.0114244743    1.7186256752
 H    0.3247536559    1.9413600500   -0.7617571254
 H   -0.7500663322    0.8168159135   -1.6104863396
 H   -1.3893782463    1.8598134669   -0.3284752589
 H    0.6778472305   -0.3833926133    0.0808731491
 H    0.0129190704    0.6262208374    1.3739294906
 H   -2.6655746447   -1.6261865399    1.6925120935
 H   -3.5761797293   -1.7541275153   -0.2828033241
 H   -2.8728098933   -2.2860214010   -1.8263541921
 H   -3.4200163315   -4.2962519245   -0.7564282702
 H   -1.6670310685   -4.1271995468   -0.4962740616
 H   -2.9043852077   -4.9174620034    2.7908537980
 H   -3.4438588233   -5.7234711652    1.2917952591
 H   -1.7074130321   -5.4116704429    1.5626069985