19

 C    0.1649278046    1.5194760643    0.0635065743
 C   -0.0655763799    0.0075760716   -0.0043510182
 C    0.6411640907   -0.6539343623   -1.2267157195
 C    1.8962078013   -1.2500820346   -0.6103151048
 C    1.7602408146   -1.2171043036    0.7305494597
 N    0.5571251500   -0.6904395251    1.1448631122
 C    3.0617274394   -1.8295067031   -1.2821321239
 N    3.0154833322   -1.8145594992   -2.6646818285
 O    4.0385187138   -2.2619013909   -0.6859967481
 H    1.2359422717    1.7458345966    0.0420304735
 H   -0.3099121527    2.0186718357   -0.7873936120
 H   -0.2606983083    1.9442416255    0.9794722946
 H   -1.1407622361   -0.1960464945   -0.0119242429
 H   -0.0008305582   -1.4275662442   -1.6713768481
 H    0.8441979118    0.0846689381   -2.0109236140
 H    2.4751191934   -1.5921682826    1.4508209229
 H    0.5236231221   -0.2255025845    2.0412657322
 H    2.1281885264   -1.7555789581   -3.1366736737
 H    3.7295541732   -2.3611175893   -3.1207581855