21

 C   -0.1102919042    1.5358966159    0.0137142152
 C    0.0240132063    0.0215617303    0.0283573013
 C   -1.2619380529   -0.8025088522    0.3839528206
 C   -0.4471912019   -1.6256875663    1.4179906861
 C    0.7877601504   -0.7049811616    1.1846890485
 C    2.0346395700   -1.3680476913    0.5686707613
 C    1.6652250535   -1.6201807364   -0.9032806127
 C    0.6758952314   -0.5042173920   -1.2568263728
 O    0.4485091221   -0.0898031653   -2.3658906738
 H    0.8695762070    2.0248633292   -0.0245395026
 H   -0.6723897744    1.8540108196   -0.8696447121
 H   -0.6309682497    1.8915141003    0.9085851298
 H   -2.0286170056   -0.1695329044    0.8385475861
 H   -1.7241885882   -1.3563910990   -0.4375190398
 H   -0.8454156986   -1.6241396043    2.4348217345
 H   -0.2782425966   -2.6668391345    1.1278010851
 H    1.0323967027   -0.0788990492    2.0454615929
 H    2.8848483810   -0.6780283552    0.6219485867
 H    2.3248543889   -2.2794569120    1.1003908502
 H    2.5068858970   -1.6289075568   -1.5986801115
 H    1.1406115922   -2.5771871747   -1.0272288031