19

 C   -0.2754056501    1.4072063231   -0.5022234812
 O   -0.1278388588    0.1417464669    0.1200716623
 C   -1.3087626281   -0.6073156596    0.1662207361
 C   -1.6644735863   -1.4081194769   -1.0799967773
 C   -1.0858129036   -2.0980726390    0.1274692438
 C   -2.3702043341   -0.0680435965    0.9778769307
 C   -3.2342812820    0.4150559366    1.6678731263
 C   -4.3179309358    0.9862336987    2.4637919803
 O   -5.1140498678    1.9310406589    1.7600776072
 H    0.7070334052    1.8833430128   -0.4788875577
 H   -0.6036058308    1.3066651714   -1.5466998325
 H   -0.9963524419    2.0376352896    0.0338691370
 H   -2.7119581035   -1.5548395753   -1.3149938271
 H   -1.0113611411   -1.2629252047   -1.9330154145
 H   -0.0477390798   -2.4057784781    0.0815866430
 H   -1.7314959878   -2.7205322355    0.7346718787
 H   -4.9337355389    0.1681958700    2.8716424600
 H   -3.9070416267    1.5271097804    3.3235780610
 H   -5.3865709181    1.5177124571    0.9342853138