18

 C    0.0209636237    1.6348680974    0.0582483083
 C    0.0342551173    0.0981216036   -0.0388110452
 N    0.6885119336   -0.3651325895   -1.2668708985
 C    0.0019714230   -0.5762886574   -2.4131900011
 O   -1.1998869289   -0.3759867943   -2.5270212477
 C    0.8039302795   -1.0974235169   -3.6107553450
 O   -0.0355020100   -1.2399293966   -4.7165645357
 C    0.6787475062   -0.5165031259    1.1205782873
 C    1.2360508269   -0.9964725612    2.0705984362
 H    1.0403228703    2.0292175651    0.0892788457
 H   -0.4977688337    2.0464015200   -0.8107401493
 H   -0.5005430869    1.9512153590    0.9654325217
 H   -1.0022615725   -0.2493338359   -0.1090942409
 H    1.6768390480   -0.5594053157   -1.2309049278
 H    1.6257047103   -0.3949456912   -3.8236898200
 H    1.2675656645   -2.0582963819   -3.3333984491
 H   -0.9136329407   -0.9801771534   -4.3889005710
 H    1.7093518493   -1.4313651951    2.9163470322