21

 C    0.0028151685    1.5222817958   -0.2404327694
 C   -0.0255287230    0.0052784110   -0.0972098267
 C    0.2395397874   -0.6078275819    1.2984830766
 O   -1.0112697556   -1.3312244259    1.2649081055
 C   -1.4004418873   -0.6873280172    0.0377196375
 C    1.4105805366    2.0939721716   -0.2162794798
 C    1.5833012939    3.6196844716   -0.0418828230
 C    2.4022734041    3.2402035221    1.2078685214
 O    2.0948887642    1.8403413940    1.0382996027
 H   -0.4684984339    1.8148811696   -1.1896785254
 H   -0.5856488507    1.9818627311    0.5646212109
 H    0.5921700458   -0.4561149255   -0.8739541238
 H    1.1012792845   -1.2782207915    1.3868449054
 H    0.2743750652    0.1229424152    2.1144129603
 H   -2.2445624173    0.0028284653    0.1840716246
 H   -1.6688652058   -1.4098639712   -0.7427457014
 H    1.9943398080    1.6819472353   -1.0532977652
 H    2.1213870544    4.1400980910   -0.8351643960
 H    0.6513775448    4.1487768046    0.1689416570
 H    3.4803196468    3.4311808606    1.1318430786
 H    2.0423941594    3.6260843543    2.1683986604