17

 O   -0.0218109174    1.4493009409    0.0098933287
 C    0.0369305587    0.0351155608    0.0150236798
 C    0.6507468033   -0.4907439025   -1.2228123980
 N    1.1765415111   -0.8945119041   -2.1694734597
 C    0.7677520738   -0.5094099206    1.2362519415
 C    0.4410465966   -0.2564415621    2.7238765657
 N    1.6824519081   -1.1651550065    2.8102249550
 C    1.0064783320   -1.9686081758    1.6810546513
 C    2.2380738396   -0.2911424419    1.6705062208
 H    0.8800160977    1.7877623676   -0.0386454879
 H   -1.0062827804   -0.3003147158    0.0442705002
 H    0.6040220842    0.7475188868    3.1215463045
 H   -0.4626693258   -0.7122661122    3.1366171074
 H    0.1442820182   -2.5502806731    2.0172014012
 H    1.7020453842   -2.5769966445    1.0987098541
 H    3.0243863050   -0.7777448866    1.0887443378
 H    2.5381184412    0.7071490597    2.0009394976