17

 O    0.1965437699    1.3221133955   -0.2135350106
 C    0.0772653583   -0.0506319579    0.0060561446
 C    0.6043492945   -0.5929690030    1.3531780232
 N    0.0240170666   -1.9308671437    1.4792158115
 C   -1.3395758448   -1.8313022611    0.9444943600
 C   -1.4057486740   -0.5557009051    0.0299243120
 O   -2.1471753024    0.4994595037    0.6400526413
 C   -1.9392718349   -0.8414534028   -1.3051215038
 N   -2.3893113370   -1.0848586007   -2.3422750149
 H   -0.5560518366    1.7404311538    0.2254719789
 H    0.6034310340   -0.5600380983   -0.8091235434
 H    1.6944441643   -0.6269042170    1.3962544045
 H    0.2488223203    0.0495815250    2.1687720671
 H    0.5603173514   -2.5802320920    0.9140022715
 H   -1.6240973637   -2.7449377418    0.4190945719
 H   -2.0561699033   -1.6662871052    1.7576795406
 H   -3.0887928325    0.3494857906    0.5069112256