17

 C    0.2427184295    1.4535727465   -0.2894513428
 C   -0.0129056354    0.0223864917    0.1097504033
 O    1.1215564130   -0.8429242043    0.2542470920
 C    0.3322964589   -0.5746406426    1.4106023354
 C    0.9955277230    0.1916822129    2.5473855218
 C    1.7605355499   -0.6784278749    3.4293647881
 C    2.3833822817   -1.4152136443    4.1593757135
 C    3.0845350620   -2.2442150402    4.9796653514
 C    3.7060982380   -2.9791747064    5.7087882054
 H    1.0699132409    1.8973743426    0.2678145947
 H    0.4909381158    1.5050434722   -1.3545313321
 H   -0.6549611897    2.0598313762   -0.1264955459
 H   -0.8444079259   -0.4449767283   -0.4226380944
 H   -0.2624404117   -1.4241276365    1.7503143724
 H    1.6504045117    0.9670250083    2.1371661385
 H    0.2169523316    0.7055880352    3.1287176268
 H    4.2532455167   -3.6268549882    6.3475537919