18

 C   -0.0891699057    1.5809203194   -0.0434222823
 C    0.0539038031    0.0845477829    0.2566691754
 C   -1.2740339760   -0.6379499623    0.1606027946
 O   -1.9106485011   -0.5929285594   -1.1644952730
 C   -2.1822504033   -1.9791206511   -1.0923104668
 C   -0.9152424866   -2.8032884938   -1.1190603245
 C    0.2576977291   -2.4253168000   -1.8593266774
 N    1.2008429376   -2.1558568716   -2.4726316026
 C   -1.4041115607   -2.1637929191    0.1827072886
 H    0.8771601498    2.0868748324    0.0315964817
 H   -0.4748048598    1.7333217944   -1.0552485524
 H   -0.7782258169    2.0659964720    0.6571491996
 H    0.7785129991   -0.3665988692   -0.4249425719
 H    0.4338258446   -0.0645353600    1.2761878529
 H   -1.9876190367   -0.2126715456    0.8796251943
 H   -3.1406155792   -2.3425904641   -1.4443821283
 H   -1.1033723555   -3.8740006998   -1.1306730555
 H   -1.5960130418   -2.7732612351    1.0550565174