10

 O   -0.0562625854   -0.0515412540    0.0036083001
 C    0.0379043347    1.1395703785    0.0087741805
 O   -1.1734352892    1.8962846479    0.0288512149
 C   -1.1477755831    3.2305569322    0.0356926889
 N   -0.1108797334    3.9853638727    0.0260551912
 C    1.1001671510    3.3215876280    0.0064757015
 C    1.2179651230    1.9738848338   -0.0023349944
 H   -2.1499648929    3.6503363192    0.0512042156
 H    1.9779152128    3.9607792590   -0.0016855244
 H    2.1757969125    1.4706191327   -0.0177030539