17

 C   -0.0463845954    1.4885239273   -0.0111486881
 C   -0.0551642437   -0.0135707847   -0.0140180460
 C   -0.9281871971   -0.8526414399    0.8535651778
 O   -1.9173891273   -1.7374200826    0.3976764983
 C    0.5644542662   -1.0507072000    0.9527973340
 N    1.3299683320   -1.7335376225   -0.1535993830
 C    0.4146941303   -2.2551482612   -1.2005864425
 C    0.6713387938   -0.8013052161   -1.1265971092
 H    0.9574887140    1.8792004699   -0.2128185060
 H   -0.7183364758    1.8865071855   -0.7817656745
 H   -0.3746426691    1.8864738815    0.9537824936
 H   -1.2601435586   -0.2660477583    1.7159070344
 H   -2.0283372028   -2.4196125608    1.0698098136
 H    1.0979112969   -0.9194638931    1.8881551439
 H    0.9705202631   -2.7964275735   -1.9623561824
 H   -0.5504474240   -2.6604864867   -0.9395810459
 H    1.2720657076   -0.2729653547   -1.8615499080