17

 N    0.1287970266    1.3398483299    0.0909708042
 C    0.0045164458   -0.0178585564    0.0300453453
 N   -1.0601743337   -0.6976198802    0.2112168843
 C   -0.7066923666   -2.0967635818   -0.0488757446
 C   -1.5662594901   -2.7002366524   -1.1766830967
 C   -3.0419597624   -2.6967235682   -0.8356038926
 O   -3.7397709448   -3.6799263168   -0.8426174048
 C    0.8123458656   -2.0544528356   -0.3950589439
 O    1.1572481646   -0.6572792806   -0.3065357161
 H    1.0554490156    1.6865426840    0.2818408593
 H   -0.6179104127    1.8072826195    0.5796637860
 H   -0.8732435028   -2.6895729211    0.8596841975
 H   -1.4249228169   -2.0896777956   -2.0796101447
 H   -1.2637206300   -3.7292027840   -1.3955271386
 H   -3.4472202108   -1.6994322452   -0.5659524445
 H    1.4349398929   -2.6089050997    0.3120674868
 H    1.0324780298   -2.3992525158   -1.4102768369