19

 C   -0.0555468705    1.5301090144   -0.1111401228
 C    0.0916073162    0.0254870111    0.0184757719
 O    0.7463119778   -0.4633409735   -1.1558646062
 C    0.8888337360   -1.8576689860   -1.1413423053
 O    1.6897243640   -2.3101592078   -0.0806944604
 C    1.1144903453   -1.9621769191    1.1708687150
 C    0.8687866938   -0.4640775209    1.2386779682
 C    1.7478090082    0.3977800342    2.0342884819
 O    0.4454534717    0.0201753742    2.5120795639
 H    0.9126769687    1.9952172785   -0.3149678750
 H   -0.7276786103    1.7693660882   -0.9386776521
 H   -0.4691674866    1.9458146377    0.8111663770
 H   -0.9121048906   -0.4335681578    0.0803672836
 H   -0.1084095851   -2.3365811202   -1.0867492519
 H    1.3953991747   -2.1382629741   -2.0665087807
 H    0.1551844406   -2.4892574735    1.3119225749
 H    1.8034307316   -2.2892780158    1.9526471498
 H    2.5851374183   -0.0462379481    2.5704824133
 H    1.8614741163    1.4503350286    1.7879623451