15

 O    0.0124956695    0.0290194898    0.1660329815
 C   -0.0294958219    1.2172837884   -0.0142118990
 C   -1.2869766597    2.0300424985   -0.3498923938
 O   -0.8620371859    3.3388426823   -0.7171073969
 C    0.5148350843    3.4745181410   -0.5067734602
 C    1.0202171240    3.3971785200    0.9146806496
 C    0.1436719299    3.4262162129    2.0460748693
 C   -0.5829199372    3.4681533600    3.0034551612
 C    1.1180354672    2.1791356776   -0.0426627162
 H   -1.8221502455    1.5690195090   -1.1873942295
 H   -1.9524262262    2.0639057782    0.5203663564
 H    0.9878278515    4.1448501929   -1.2150404995
 H    1.9887774255    3.8638696217    1.0743488684
 H   -1.2245662611    3.5077547304    3.8487905754
 H    2.1010451757    1.8114776373   -0.3045097066