21

 C   -0.8213185848    1.1841026695   -0.5041244188
 C   -0.0659214036   -0.1366959370   -0.3568276159
 C    0.9090007794   -0.5340883353   -1.5097921001
 C    1.0790007081   -2.0560571012   -1.7156154352
 C    2.1604810084   -2.0924830857   -0.5978318190
 C    2.1319243099   -0.5253494985   -0.4942117793
 C    3.4405324079    0.2169928869   -0.6525489575
 C    1.1562084147   -0.0521308661    0.5837083986
 O    1.3015228067    0.3645316115    1.6992455576
 H   -0.1488746737    1.9946597007   -0.8047935531
 H   -1.6098234332    1.1026216375   -1.2587862807
 H   -1.2797576604    1.4686772647    0.4473315312
 H   -0.7637583010   -0.9358401643   -0.0794623406
 H    0.8765361355    0.1117962981   -2.3884545082
 H    0.1835150362   -2.6628833318   -1.5530270148
 H    1.4871535832   -2.3112105107   -2.6967274023
 H    1.8849611268   -2.6210495541    0.3183749708
 H    3.1326112204   -2.4703588948   -0.9235426869
 H    3.9839312667   -0.1217799828   -1.5412962762
 H    3.2832746896    1.2970011269   -0.7410631674
 H    4.0811220731    0.0476287666    0.2199911878