17

 C    0.0406219160    1.4609523359    0.0603271460
 C   -0.0035923205   -0.0235908576   -0.0209681154
 C   -0.0152558072   -0.8837871656   -1.0456379023
 C   -0.0493147238   -2.2347742621   -0.3201625444
 O   -1.0241418472   -1.9846867781    0.7428915850
 C   -0.0352381317   -1.0023263586    1.1737517437
 C    1.0868005234   -2.0312755939    0.7579054259
 C    1.3156421024   -3.1315318431    1.6704916648
 C    1.5418726889   -4.0414659047    2.4234975368
 H    0.9257970166    1.8050475895    0.6103807337
 H    0.0636488316    1.9150696978   -0.9340110411
 H   -0.8320606826    1.8559104488    0.5954966469
 H    0.0089278637   -0.7119504712   -2.1117006448
 H   -0.1918070766   -3.1672553707   -0.8626995125
 H   -0.1607545538   -0.6380663426    2.1926201139
 H    2.0242953793   -1.6045940247    0.3928567750
 H    1.7261541216   -4.8475399691    3.0896521287