21

 C   -0.0052674955    1.6437909125   -0.0636987588
 C    0.0524798088    0.1377561617    0.0279429031
 N    1.3490540978   -0.5075987490   -0.2328537645
 C    0.7457953429   -0.6245758010    1.1073020226
 C    1.4902067140    0.0223152765    2.2306131663
 N    0.9264892713   -0.1460520268    3.5833826448
 C    2.2520750660   -0.7203474311    3.2744349896
 C    2.3258487625   -2.2246368001    3.3966293515
 O    2.2011240260   -2.6248395427    4.7514200290
 H    0.9216543360    2.1022405441    0.2877747520
 H   -0.1524932407    1.9563946633   -1.1030267955
 H   -0.8377990226    2.0391567243    0.5282911655
 H   -0.8290801246   -0.3602864557   -0.3758052724
 H    1.2330875976   -1.3705817069   -0.7561034826
 H    0.2823599264   -1.5712791701    1.3738681410
 H    1.8995247313    0.9983284145    1.9815717931
 H    1.0187250686    0.7122657120    4.1185771290
 H    3.1164797246   -0.2041104915    3.6894476125
 H    1.5562746213   -2.6997136305    2.7724251981
 H    3.3009136024   -2.5859038421    3.0534980526
 H    1.3796911858   -2.2269991014    5.0642253028