18

 N    0.5832735093    1.1593861855    0.8223633380
 C    0.0660071387   -0.0399047685    0.1583139589
 C   -1.4813146880    0.0146311358    0.1501864035
 O   -2.0587334595   -0.6945030107   -0.9404335791
 C   -2.3108709370    0.0752160376   -2.1051632645
 C   -1.0475023456    0.2772202113   -2.9424964573
 O   -0.0126341493    0.7873239756   -2.0894239942
 C    0.5371196952   -0.1971130324   -1.2817968482
 O    1.2877073228   -1.0279719196   -1.7009976222
 H    1.5883730183    1.0843699569    0.9486504116
 H    0.4209705234    1.9673179701    0.2259075089
 H    0.4177922019   -0.9172312384    0.7070333646
 H   -1.8668860993   -0.4424879508    1.0655923602
 H   -1.8010792903    1.0650058471    0.1381194687
 H   -3.0623869307   -0.4689356158   -2.6881611573
 H   -2.7308112083    1.0532780497   -1.8274230178
 H   -0.7141043852   -0.6616898080   -3.3979274065
 H   -1.2105038762    1.0175776845   -3.7304806275