16

 O    0.0539660548    1.4012660501    0.1301782457
 C    0.0031758386    0.0124691614    0.0158033484
 C   -1.4522759824   -0.5351444145    0.0006406385
 N   -1.5039357103   -1.9798245698   -0.1621376652
 C   -0.9032515525   -2.4452456203   -1.4109133522
 C    0.5360205277   -1.9525650840   -1.5998273301
 O    1.4533758443   -2.6352292245   -1.9785790507
 C    0.7165674300   -0.4655690218   -1.2364628696
 O    1.3254446015    0.3039837845   -1.9452450271
 H    0.6119425806    1.7069071865   -0.6032280408
 H    0.5132921168   -0.4702578118    0.8718670781
 H   -1.9467586694   -0.2489049596    0.9324103325
 H   -2.0015465494   -0.0594489269   -0.8206313573
 H   -1.0736743345   -2.4458256227    0.6302484874
 H   -0.9120586313   -3.5368099178   -1.4625395512
 H   -1.5063850544   -2.0678125689   -2.2495750762