21

 C    0.0174693229    1.4842000202   -0.1373527642
 C   -0.1546723384   -0.0238399179   -0.1737153231
 O    0.8623752142   -0.5675089350   -1.0109132541
 C    0.8222176485   -1.9349926357   -1.1214524269
 C    1.2950927291   -2.9712589007   -0.1021298732
 C    1.2541718685   -3.9684676984   -1.2967927844
 C   -0.2570660655   -4.1022008764   -1.6410653274
 C   -0.1721827104   -2.6419247927   -2.0739949695
 C    1.3308766318   -2.7306542111   -2.2841831967
 H    1.0019731586    1.7487809549    0.2588295641
 H   -0.0708164079    1.9056158780   -1.1428129543
 H   -0.7471809605    1.9394340471    0.4992097714
 H   -0.0742409499   -0.4474409046    0.8388501155
 H   -1.1450933070   -0.2995624273   -0.5658285235
 H    2.3207277796   -2.7615888263    0.2147012070
 H    0.6724111918   -3.2035030436    0.7699783899
 H    1.9135568347   -4.8330627949   -1.3103284501
 H   -0.4214770009   -4.7656725498   -2.4954935820
 H   -0.9368834306   -4.3792415767   -0.8260606813
 H   -0.8758626752   -2.0541139208   -2.6499947013
 H    1.9644719765   -2.4729714984   -3.1197423060