23

 C   -0.1753752751    1.5186828213    0.0105238322
 C    0.0086474684    0.0060983319    0.0218839164
 C    1.1315174636   -0.6018302655   -0.8856000201
 C    2.1291670594   -0.2741641960    0.2652804726
 C    0.8959145961   -0.6188623459    1.1513354905
 C    0.7317554306   -2.1079167822    0.8585204778
 C    1.2530699060   -3.1871881920    1.7607440123
 C   -0.2397573446   -2.9865807230    1.5900419569
 C    0.9073159004   -2.1152536451   -0.6813653223
 H    0.7628548186    2.0685397013    0.1235629843
 H   -0.6349775763    1.8430391127   -0.9299690173
 H   -0.8397287623    1.8317504619    0.8238240838
 H   -0.9718452052   -0.4720261239   -0.0912831336
 H    1.2934418276   -0.2538906361   -1.9076463784
 H    3.0153751231   -0.9075316375    0.3665861151
 H    2.4207574487    0.7752034933    0.3055157914
 H    0.8159450367   -0.3036717837    2.1939096146
 H    1.7040907264   -4.0647168875    1.3072939954
 H    1.6992448683   -2.9006519688    2.7084597538
 H   -0.7938817209   -2.5644292392    2.4231436537
 H   -0.7923595165   -3.7292944946    1.0227002403
 H    0.0186235371   -2.4801817602   -1.2069444662
 H    1.7656537901   -2.7123842010   -1.0067181430