16

 N    0.0836422426   -1.1328929344   -0.0511386823
 C    0.0257022371    0.0239319096   -0.0340213032
 C   -0.0464151499    1.4455930805   -0.0052545758
 C   -1.2526681177    2.2688288351    0.4451102355
 C   -0.6873044382    3.4780858024   -0.4035498975
 C    0.2140152766    4.2681767575    0.5185500158
 C    1.3046499367    3.5439834713    0.7913794895
 C    1.2795495186    2.2955342855   -0.0202119258
 C    0.2644100881    2.4535234345   -1.1051144055
 H   -2.1620652718    1.8670264246   -0.0059724406
 H   -1.4025656602    2.4329240699    1.5157088426
 H   -1.4117216990    4.0320484355   -0.9961470817
 H   -0.0852772637    5.1913733826    0.9987133483
 H    2.0792983050    3.7745573268    1.5108338141
 H    2.1694516393    1.7039601270   -0.1962658021
 H    0.4184491066    2.2822786515   -2.1628610512