18

 O   -0.6666053545    0.3720083322    0.4117384142
 C    0.1023899707    0.9235926240   -0.3319804737
 C    1.1332465206    1.9513311364    0.0866628013
 C    1.2528807363    3.0736377627   -0.9450648721
 C    1.3220404048    4.5656387585   -0.7343668574
 C    2.3366885134    5.0321562513    0.3481449370
 N    2.9633625382    3.8454223208    0.9874382775
 C    3.4354794470    4.3277238639   -0.3354804362
 C    2.4654389511    3.8272154301   -1.4414354972
 H    0.1067328151    0.6838117177   -1.4247736185
 H    0.8865993503    2.3148189425    1.0834464135
 H    2.0891016317    1.4207342080    0.1785420299
 H    0.6088804185    2.8853737483   -1.8073135765
 H    0.5976261083    5.2444833636   -1.1669542980
 H    2.3186974456    5.9931905691    0.8444108309
 H    3.6204345277    4.1988776912    1.6830947793
 H    4.4655790547    4.6173734333   -0.4948780043
 H    2.7287229406    3.8582004961   -2.4915156697