15

 O   -0.0101534672   -0.1030613898    0.0013559827
 C    0.0270087469    1.1056862173    0.0068983419
 C    1.2398013810    1.8828565344   -0.0002625606
 C    2.2331085690    2.5685860572   -0.0058018616
 C    3.4579280036    3.3498245517   -0.0128265981
 O    3.1542660338    4.7299434018   -0.0029219385
 C    4.3307870333    5.5245531538   -0.0094326617
 C    3.9713459254    6.9340131513    0.0015384733
 C    3.7053380910    8.1044834652    0.0103454292
 H   -0.8978608381    1.7169205908    0.0179579583
 H    4.0685866845    3.0730629750    0.8647142776
 H    4.0525983555    3.0822173638   -0.9040817012
 H    4.9562107531    5.2907969373    0.8690403394
 H    4.9399266506    5.3004096953   -0.9017444076
 H    3.4624084476    9.1385734848    0.0181655969