15

 C    0.0343546019    1.4639396412   -0.0144520966
 N   -0.0018739742    0.0062875584   -0.0044099801
 C   -0.0457696794   -0.6642298904    1.2086465826
 O   -0.0565161874   -0.1089919849    2.2824453100
 C    0.0083539541   -0.6841610686   -1.2118312396
 N   -0.0233437319   -2.0013900353   -1.2648642138
 O   -0.0002281464   -2.3143691940   -2.6220230127
 C    0.0441188079   -1.1837980740   -3.3313825838
 C    0.0525841108   -0.1011404452   -2.5152711708
 H    0.9466596103    1.8281913111   -0.4975049341
 H   -0.8358831816    1.8721866674   -0.5382185074
 H    0.0186904000    1.7899970035    1.0243575247
 H   -0.0698703346   -1.7553522141    1.0774626862
 H    0.0656421551   -1.2995764425   -4.4039746324
 H    0.0848079256    0.9381598974   -2.7901810822