21

 C   -0.0195355442    1.5448726738    0.0063040641
 C   -0.0411811032    0.0035681789   -0.0074559681
 C   -1.5102781945   -0.4731699104    0.0847089170
 C    0.6336956956   -0.5075465628   -1.3006041395
 C    0.9949038049   -1.9967477750   -1.2474680144
 C    1.8375045509   -2.3436604599   -0.0261071864
 O    2.6510035061   -3.2459991292   -0.0313130604
 C    1.5670824622   -1.5428080545    1.1875803979
 C    0.7125817901   -0.5120139050    1.1979877813
 H    1.0059886719    1.9274261867   -0.0082960200
 H   -0.5412943491    1.9422790906   -0.8709271167
 H   -0.5162617024    1.9407787029    0.8987177630
 H   -2.0975450475   -0.0527470189   -0.7389942971
 H   -1.5883457763   -1.5630202033    0.0411912991
 H   -1.9690121463   -0.1467365747    1.0238342235
 H   -0.0149632941   -0.3034896603   -2.1600924164
 H    1.5531776401    0.0695817303   -1.4597922273
 H    0.0861607956   -2.6117724647   -1.1941087765
 H    1.5360073486   -2.3178568417   -2.1412577883
 H    2.0935947730   -1.8566556832    2.0839687625
 H    0.5211700887    0.0112564703    2.1346835729