16

 O    0.0767898306    0.0549088118   -0.5410993097
 C    0.0542628010    1.2202310352   -0.2166748279
 N    1.1103192560    1.8930140476    0.3401554073
 C    2.5517666990    1.5384283620    0.2064512910
 C    2.8768549398    1.9835463139   -1.2452089584
 C    2.0840226490    3.3430846548   -1.2776756888
 C    1.4992398510    3.3223130756    0.1613675991
 C    2.7613139579    2.8806424281    0.9551350359
 O    3.4947369406    3.3387752422    1.7689743368
 H   -0.8523271666    1.8547759146   -0.2767660151
 H    2.8860554927    0.5711999238    0.5689374298
 H    3.9498975743    2.1111853779   -1.4060550790
 H    2.4979140850    1.2582589446   -1.9668509622
 H    2.7265696918    4.2107206722   -1.4476666960
 H    1.2922023469    3.3495754140   -2.0301134983
 H    0.8151017412    4.1014251615    0.4887604754