22

 C   -0.1598794426    1.6018927503   -0.1432386192
 C   -0.1327562468    0.0709683560   -0.1866395347
 C    0.8628164697   -0.5201945261   -1.2032475815
 C    2.3241696371   -0.1741205143   -0.8855470685
 C    0.6766550296   -2.0377220481   -1.3290121533
 C   -0.4200790749   -2.5786283115   -2.2346499211
 C    1.0149336880   -2.7197190847   -2.6467766671
 C    0.9493915913   -2.7928994770   -0.1297361050
 N    1.1733142699   -3.3845953283    0.8395923800
 H    0.7898835654    2.0204497948    0.2022769124
 H   -0.3703425202    2.0246410630   -1.1325165783
 H   -0.9390598186    1.9542405467    0.5393306083
 H    0.1004295909   -0.3236820520    0.8103821538
 H   -1.1362268534   -0.2978774725   -0.4321712571
 H    0.6191624210   -0.1084359682   -2.1928941142
 H    2.4867886997    0.9066036772   -0.8904936047
 H    2.6094018183   -0.5547821747    0.1010716126
 H    3.0005849330   -0.6166239359   -1.6234221432
 H   -0.9526192263   -3.4658408961   -1.9139817042
 H   -1.0326195630   -1.8386507661   -2.7380950576
 H    1.3929089113   -2.0771618500   -3.4345596112
 H    1.4665696105   -3.7036158826   -2.6077353661