19

 C    0.0077053395    1.4710759646    0.2005569392
 C    0.0306250474   -0.0167742714    0.0079828319
 C    0.8682948119   -0.7864665589   -1.0543740723
 C    0.7638547128   -1.8452080233    0.0692895643
 O    0.7666693694   -0.7599899006    1.0395173674
 C   -0.7251183999   -2.2426403765    0.0185768870
 C   -1.4757633625   -2.3048288715    1.3654276991
 O   -1.9716840288   -0.9523311420    1.2089872984
 C   -1.3040305046   -0.8047035511   -0.0520803857
 H    1.0208819978    1.8722886265    0.2878309185
 H   -0.4903476885    1.9575674451   -0.6445627919
 H   -0.5457867668    1.7164175353    1.1122963770
 H    0.4270848707   -0.9999616797   -2.0328646890
 H    1.8747881328   -0.3774673350   -1.1499007750
 H    1.5202719681   -2.6074700447    0.2555222352
 H   -0.9834140157   -2.9778407485   -0.7428508360
 H   -2.3006835339   -3.0259199773    1.4009444448
 H   -0.8476408927   -2.4077910577    2.2557710479
 H   -1.9757383268   -0.4880642133   -0.8564240807