14

 O    0.0216838204    0.0520521889    0.3142644054
 C   -0.0364868630    1.2292996611    0.0538720579
 C   -1.2499252625    2.0689172716   -0.1082787138
 C   -0.9211505682    3.3251854874   -0.4413482867
 C    0.5640593180    3.5438795127   -0.5235460671
 C    1.2420556627    4.0272626558    0.7880786995
 O    1.6483865691    2.6854780757    1.1172234967
 C    1.1636421120    2.1738592204   -0.1528027053
 H   -2.2488674728    1.6748704291    0.0289412372
 H   -1.6294459727    4.1295601574   -0.6122481416
 H    0.8881293595    4.0414191503   -1.4387484654
 H    2.1070956377    4.6822050253    0.6278621356
 H    0.5862429020    4.4642242692    1.5492251566
 H    1.9605897376    1.7342065352   -0.7587641191