19

 C    0.0642315752    1.4151063245   -0.1730148065
 C    0.0033198923   -0.0693340290   -0.0268555874
 O    0.5514304254   -0.9144086470   -1.0896052092
 C    0.0564921572   -1.8659303331   -0.0957999851
 C    0.2087367625   -3.3291783420   -0.3604618069
 C    0.5082826781   -1.0027021242    1.1285127147
 C   -0.8839603745   -1.0762443414    1.7622872898
 O   -1.2037959661    0.0453453734    2.5586584370
 C   -1.2121867122   -1.0205466232    0.2551234356
 H    1.1025644823    1.7478885689   -0.2693586317
 H   -0.4831073548    1.7360123096   -1.0651414895
 H   -0.3793309829    1.8844485877    0.7082346742
 H    1.2654821687   -3.5888295846   -0.4768623352
 H   -0.2024322278   -3.9146770109    0.4678463788
 H   -0.3176371388   -3.6095919724   -1.2780727520
 H    1.4904420706   -0.9924042955    1.6013515945
 H   -1.1319736215   -2.0157690067    2.2751137037
 H   -2.1396049513    0.0018566848    2.7787811184
 H   -2.1717830226   -1.0330132291   -0.2642083533