20

 C   -0.2624141062    0.8999820735   -1.9680009698
 C   -0.0150189134   -0.2093482468   -0.9679056557
 C    1.3603078425   -0.4866234430   -0.3690535006
 C    2.5813574566    0.3291028894   -0.7256917761
 O    3.0566649778    0.0620710413   -2.0412286759
 C    0.2406579574    0.0107036063    0.5089671830
 C    0.2368510591    1.3836903319    1.1443288128
 O   -0.2389276863   -0.9919856375    1.3780605276
 H    0.2924040347    1.8113866735   -1.7331035063
 H    0.0442467751    0.5891567359   -2.9717154391
 H   -1.3252284454    1.1641064158   -2.0057530895
 H   -0.5867983474   -1.1134267019   -1.1633681887
 H    1.5744401677   -1.5421130285   -0.2122124064
 H    2.3690199843    1.4010401173   -0.7120062230
 H    3.3720841760    0.1532916045    0.0210333459
 H    3.2166664174   -0.8849565019   -2.1055433198
 H    0.6342390327    2.1585714503    0.4859586402
 H   -0.7876240147    1.6756504943    1.4081002231
 H    0.8288177996    1.3753760061    2.0648793485
 H   -1.1760090876   -0.8228693303    1.5293326399