22

 C   -0.1239447501    1.5786440927    0.0372439691
 C    0.0271716013    0.0562144576   -0.0398454733
 C    0.7344335845   -0.5244379644    1.1897908132
 C    0.8348554025   -2.0588722130    1.2099358339
 C    1.7017495036   -2.6206749301    0.0619685565
 C    1.4383917270   -2.5453910370    2.5317703848
 C    0.9311177821   -3.8750218064    3.0630207681
 O    2.2853474887   -1.9084014279    3.1159257330
 H    0.8531482959    2.0688234289    0.1096573443
 H   -0.6315851693    1.9753589457   -0.8475224610
 H   -0.7058784112    1.8746659305    0.9171773576
 H   -0.9649641268   -0.4044256126   -0.1433847115
 H    0.5796447145   -0.2032981879   -0.9507231449
 H    1.7437771232   -0.1072943340    1.2790922493
 H    0.2001958643   -0.1983453097    2.0916945932
 H   -0.1710333546   -2.4910875871    1.1162294969
 H    2.7098555542   -2.1961179112    0.1052560529
 H    1.7925838095   -3.7102409372    0.1196342471
 H    1.2678951846   -2.3798401918   -0.9116770717
 H    0.9120419370   -4.6369981731    2.2768049477
 H    1.5509519455   -4.2090006745    3.8960414567
 H   -0.1028391863   -3.7536813475    3.4088607381