18

 C    0.2559313318    1.5289926537   -0.0808965774
 C    0.0395487719    0.0327205959    0.0466702451
 O    0.5625278167   -0.6317026340   -1.1288090244
 C    1.1495633760   -1.8251920412   -0.8197036661
 N    1.5147370602   -2.6918789144   -1.6622015026
 C    1.3404048980   -1.9396354387    0.6735820417
 C    2.6842405040   -1.3616739800    1.1723580519
 O    2.0556212308   -0.1040315546    1.5123649230
 C    0.7437747715   -0.6347561074    1.2317913030
 H    1.3234814545    1.7558050164   -0.0640415547
 H   -0.1789042077    1.8963632942   -1.0135668950
 H   -0.2243162615    2.0498440687    0.7533320561
 H   -1.0336883111   -0.1988164388    0.1006245206
 H    1.2902025235   -2.3868313202   -2.6110532944
 H    1.0364312052   -2.9083076434    1.0636579623
 H    3.0850501452   -1.8633837601    2.0608452358
 H    3.4748407835   -1.2495504171    0.4242632103
 H    0.1191991375   -0.6697200190    2.1300670349