19

 C    0.0714264520    1.2981579415    0.1853076922
 O   -0.1352978225   -0.0738490145   -0.0673794975
 C    0.5206235512   -0.5468232306   -1.2257927713
 C    2.0575253717   -0.6834179375   -1.0939422770
 C    2.4160973080   -1.9513673199   -1.8856554812
 O    3.4774520807   -2.1735916819   -2.4120552427
 C    1.1962557915   -2.8104068993   -1.9634093934
 C    0.4671001494   -3.0414943665   -0.6452418371
 C    0.0125320550   -1.9466691119   -1.5495232547
 H    1.1259517978    1.5294764012    0.3966899681
 H   -0.2533369451    1.9206010490   -0.6634831894
 H   -0.5260060631    1.5585565649    1.0621117546
 H    0.2903758259    0.1203066042   -2.0725896273
 H    2.6247856987    0.1665121422   -1.4759145303
 H    2.3328994431   -0.8194809355   -0.0413429174
 H    1.1460737395   -3.5663727102   -2.7364813844
 H   -0.1398446282   -3.9383276283   -0.6010548201
 H    0.9627526164   -2.7928403001    0.2861145334
 H   -0.9431644718   -2.0382061369   -2.0512157944