21

 C   -0.0097999957    1.4680950631    0.0124097001
 N   -0.0130672228    0.0154564850    0.0031977272
 C   -1.3340633519   -0.5495642412   -0.2036261906
 C   -1.2036022222   -2.0440417298   -0.4606003264
 N   -0.4044898138   -2.7037532771    0.5617278826
 C   -0.4571271321   -4.1547853476    0.5928481879
 C    0.5153192910   -2.0520294924    1.3365848822
 O    1.2421077096   -2.6210002231    2.1341049208
 C    0.5717298442   -0.5307374763    1.2181290692
 H    1.0156752909    1.8329953681    0.1274162657
 H   -0.4016137543    1.8461517454   -0.9370035158
 H   -0.6164272177    1.8985892446    0.8323893753
 H   -2.0042034718   -0.3714490234    0.6619728915
 H   -1.7979527078   -0.0791854910   -1.0764603630
 H   -2.2000350454   -2.5035073893   -0.4721103696
 H   -0.7556922298   -2.2083361563   -1.4520060723
 H   -0.1341338516   -4.5802380739   -0.3666233436
 H    0.2072528214   -4.5016091242    1.3827888950
 H   -1.4799340902   -4.4960797676    0.7920373323
 H    1.6276039490   -0.2547087809    1.2830892695
 H    0.0830872910   -0.1323205221    2.1314495722