16

 O   -0.0055254610   -0.0943017498    0.1237615506
 C    0.0478076426    1.1025259955    0.0374424933
 C    1.3327659702    1.9195964116    0.0466614780
 C    1.4096584612    2.8995416296   -1.1600802972
 C    1.9872108491    4.2250014881   -0.6065174156
 C    1.7555674481    4.0925768496    0.8871392924
 C    1.4104046846    2.8468042208    1.2385763288
 C    1.9498151165    5.1757277325    1.7877577095
 N    2.1125290481    6.0799492486    2.4931995909
 H   -0.8747291778    1.7218747821   -0.0607573194
 H    2.1626310690    1.2024535995    0.0666369614
 H    1.9985545720    2.4887553996   -1.9816849628
 H    0.3980465013    3.0766920084   -1.5427964458
 H    3.0597353714    4.3292798714   -0.8106553591
 H    1.4996904124    5.1085035775   -1.0284089300
 H    1.2411126923    2.5143222249    2.2557288148