15

 O    0.3327922278    1.2051007505    0.6361754935
 C    0.0709122826   -0.0720003698    0.1399078582
 C   -1.4115197876   -0.4689958710    0.0465819790
 N   -1.4524954748   -1.5683107051   -0.9383961831
 C   -0.4298429214   -1.2955591006   -1.9550988638
 C   -1.0064511473   -0.7819194670   -3.2059316927
 N   -1.4568055026   -0.3676854775   -4.1854716561
 C    0.5133002998   -0.2346808795   -1.3113562055
 O    1.3770570343    0.4022654756   -1.8449013478
 H    1.0329689357    1.5837865590    0.0847290888
 H    0.5996623037   -0.8514386203    0.7225887147
 H   -1.8391050215   -0.7969596481    0.9944080937
 H   -1.9953593218    0.3851541283   -0.3152731077
 H   -1.2665571208   -2.4571656241   -0.4919422322
 H    0.1533285040   -2.1911289605   -2.1976547390