15

 O   -0.0055825228    0.0242656537   -0.0189678164
 C   -0.0178834643    1.2155097564    0.0531979020
 C   -1.1089060094    2.3086060871   -0.0059435172
 O   -1.1866400065    2.9362711540    1.2927856463
 C   -0.0336905847    3.7658937894    1.3526947012
 C   -0.0540977860    4.5121501496    0.0173847155
 C   -0.0469961931    3.2026086570   -0.7599633602
 C    1.0478126476    2.3320814964   -0.0257935650
 O    1.1357396970    2.9615434977    1.2714201763
 H   -2.1087666925    2.1045103386   -0.3882935184
 H   -0.0309820176    4.3121213687    2.2931989921
 H   -0.9605489279    5.1032597547   -0.1217468105
 H    0.8365606561    5.1228201557   -0.1382798486
 H   -0.0568670246    3.1912753157   -1.8458797323
 H    2.0446785287    2.1497296455   -0.4265104147