15

 C    0.0481065496    1.3645021727   -0.0560386071
 C    0.0331229560   -0.0863085841   -0.0227347561
 C   -0.0021603144   -1.2931556947    0.0048368928
 C   -0.0043904331   -2.7270200364    0.0364897693
 O   -1.0118490788   -3.4034373729    0.1131457482
 C    1.3572811708   -3.4397316060   -0.0356207267
 O    1.2010309181   -4.8045997604    0.1160186565
 C    2.0635466195   -3.0614284127   -1.3537566509
 O    2.3065741968   -3.8439627581   -2.2266189667
 H    1.0698762314    1.7546681808   -0.0953429655
 H   -0.4943163148    1.7338990772   -0.9329217487
 H   -0.4417256763    1.7736463156    0.8340466143
 H    1.9851721397   -3.0124020716    0.7675631984
 H    0.2424687342   -4.9627199958    0.1022867321
 H    2.3434673612   -1.9865784938   -1.4175472697