16

 C   -0.0686836925    1.5833609712    0.0486641460
 C    0.0249957192    0.0654669998   -0.0202462401
 C    1.1262850239   -0.5967909544   -0.9093851701
 O    1.3222852135   -0.6324523097   -2.0874500335
 C    1.7223113592   -1.3044457338    0.3012509860
 O    2.0126730938   -0.2338612842    1.2344587905
 C    0.6660906080   -0.7021124390    1.1621591730
 C    0.0109296162   -1.2260681764    2.3978742796
 H    0.8687604962    2.0058471856    0.4186828535
 H   -0.2623339403    1.9956985338   -0.9460542913
 H   -0.8809095053    1.9040053173    0.7091814701
 H   -0.9347129037   -0.3816166318   -0.3120921811
 H    2.2972848124   -2.2185840892    0.3946390225
 H   -0.3252578928   -0.4016476848    3.0361096277
 H   -0.8638032147   -1.8326438432    2.1435382008
 H    0.7113446169   -1.8372468513    2.9726041263