12

 N    0.0322111364    1.2188680122    0.0088369547
 N    1.0753028320    2.0637987760    0.0032072106
 N    2.2718485271    1.5660602164   -0.0111088515
 C    2.3799955241    0.2216100726   -0.0193623746
 C    3.4505854714   -0.6504286015   -0.0343839425
 C    2.8442321511   -1.9364015348   -0.0354553383
 N    1.4979695232   -1.9464757484   -0.0224770615
 C    1.1836708185   -0.6382088818   -0.0122929861
 N   -0.0189417462   -0.1071490397    0.0022408792
 H   -0.8617013092    1.6911787094    0.0200480306
 H    4.5041507179   -0.4203638306   -0.0433542145
 H    3.3818705037   -2.8783291999   -0.0457674561