21

 C   -0.1849513590    1.6625445815   -0.2564109104
 C    0.0295759598    0.1663486213   -0.1097745174
 C    1.0686372299   -0.4660618516   -1.0745882095
 C    1.8451114493   -0.8145669946    0.2088451862
 O    0.8642313268   -0.1588277477    1.0414765588
 C   -1.2649972629   -0.6379365216    0.0048414213
 C   -2.2981567872   -0.2558826790    1.0878786211
 C   -3.2525883423   -0.0436978113   -0.1039157632
 O   -2.2074648589   -0.3465901442   -1.0557363471
 H    0.7747866584    2.1732779574   -0.3718958449
 H   -0.8042930273    1.8642666791   -1.1349755462
 H   -0.6804755409    2.0806900122    0.6250504935
 H    0.7075388504   -1.3103226369   -1.6641693327
 H    1.5631717859    0.2468225213   -1.7360424576
 H    1.9260878865   -1.8841709688    0.4386349369
 H    2.8366149377   -0.3580843528    0.3122622144
 H   -1.0056852956   -1.7056824808    0.0145331089
 H   -2.5657732988   -1.0579890859    1.7759606642
 H   -2.0607387981    0.6392358988    1.6630432688
 H   -4.0824404298   -0.7575691817   -0.1744731204
 H   -3.6452010437    0.9707676556   -0.2402735245