16

 N    0.2616357039    1.2004779777    0.7242700666
 C    0.1729992814    0.0357129372    0.2246954170
 O    1.2838986742   -0.7151451617   -0.0314252392
 C    1.1525229325   -1.8257902590   -0.9279888935
 C   -0.0204823738   -2.7264360274   -0.5536740871
 C   -1.2398660179   -1.8853864059   -0.3521037138
 C   -1.1421574767   -0.5867898597   -0.0260913565
 C   -2.3761106708    0.2351482594    0.1532234419
 O   -3.4905892507   -0.2112198899    0.0024377870
 H    1.2424875311    1.4595838956    0.8438745251
 H    1.0198589670   -1.4475327746   -1.9501678976
 H    2.1072285809   -2.3527631669   -0.8766317092
 H   -0.1816785717   -3.4725017851   -1.3399690627
 H    0.1997447623   -3.2885938815    0.3651729237
 H   -2.2312340116   -2.3165845765   -0.4616535190
 H   -2.1961016302    1.2871126985    0.4341852876