21

 C    0.2084621436    1.6854145195   -0.2228605474
 C    0.7091820103    0.2534604809   -0.2368203594
 O    2.1615152900    0.1868247836   -0.1956952985
 C    2.1514013912   -0.4872218941    1.0749279814
 C    0.6041707080   -0.6049269834    1.0587795070
 C   -0.1595351294   -0.1052938255    2.2742197246
 C    2.9165526807   -1.8023987849    1.1287169892
 C    3.5697643831   -2.2804060794   -0.1475962493
 O    2.9571431438   -2.4155803021    2.1719457289
 H    0.5781913229    2.2334929170    0.6478836228
 H    0.5553905232    2.2048265153   -1.1214214393
 H   -0.8864980975    1.7133884996   -0.2146844451
 H    0.3342821785   -0.2593463031   -1.1321427419
 H    2.5298253441    0.1546066166    1.8831985976
 H    0.2883354130   -1.6259498557    0.8255959230
 H    0.1312309015    0.9121425005    2.5518286209
 H   -1.2400441765   -0.1129013133    2.0960261849
 H    0.0427096246   -0.7544152040    3.1319484552
 H    4.2723742302   -1.5247814644   -0.5146003533
 H    4.0823095638   -3.2259735463    0.0320388564
 H    2.8186864009   -2.3984720867   -0.9358685877