15

 N    0.1528362994    1.4027000983    0.3779490968
 C   -0.0219734536    0.0457971318    0.0395714863
 C   -1.1805800422   -0.6162579589   -0.1057573868
 N   -1.1764841984   -1.9866411415   -0.3479985366
 C   -0.0423752101   -2.7460789731   -0.5392671879
 N   -0.1097972715   -3.9942684829   -0.7942223682
 C    1.2727945220   -2.0067513650   -0.3947388416
 O    2.3391595951   -2.5773514081   -0.5115203105
 N    1.1729492082   -0.6691952516   -0.0977828211
 H    0.5079563630    1.9558038410   -0.3980078107
 H   -0.7117285298    1.8194731766    0.6986937867
 H   -2.1440169727   -0.1326586759   -0.0512848279
 H   -2.0490601699   -2.4857589350   -0.4264646301
 H    0.8439970099   -4.3461358688   -0.8865821639
 H    2.0403832706   -0.1917986169    0.1064732154