17

 O   -0.1675288981    0.0143295238    0.0713079659
 C    0.0047473735    1.1965306917   -0.0590155274
 C    1.3504395684    1.8990896718    0.0277048899
 C    1.5885783651    2.8502398048   -1.1800090145
 C    2.1576145523    4.1780015813   -0.6028875159
 C    1.4927180463    5.3977379789   -1.2211072859
 O    2.0743787445    6.3448201374   -1.6782342013
 C    1.8472644467    4.0570738927    0.8753216975
 C    1.4171768763    2.8428195994    1.2112953605
 H   -0.8482370244    1.8905854464   -0.2516984191
 H    2.1135602104    1.1162112309    0.1077926867
 H    2.2442931646    2.4097732427   -1.9323768363
 H    0.6284100720    3.0538206549   -1.6733697127
 H    3.2358800693    4.2849429469   -0.7689481350
 H    0.3773452655    5.3504422190   -1.2099209327
 H    2.0153077742    4.8751379883    1.5668580894
 H    1.1808080834    2.5191121191    2.2187863810