23

 C    0.0869427973    1.5815673766   -0.0150998267
 C    0.1390200639    0.0513706846   -0.0396907519
 C    0.4457426488   -0.5471204038    1.3390284125
 C    0.6688416497   -2.0625837752    1.3177843487
 C   -0.5643945773   -2.8588220134    0.9174173480
 O    1.8024734842   -2.4077061502    0.4563870540
 C    2.6377261768   -2.7264267571    1.5837744476
 C    1.4425271888   -2.6094566697    2.5519887294
 O    1.5372687187   -1.7120478643    3.6313302664
 H    1.0421872443    2.0051285252    0.3144180717
 H   -0.1328944616    1.9880490181   -1.0074677002
 H   -0.6870471823    1.9430774937    0.6715210280
 H   -0.8165320586   -0.3330252669   -0.4163997678
 H    0.9085583829   -0.2850540677   -0.7434673913
 H    1.3437285063   -0.0715406920    1.7470715792
 H   -0.3626882102   -0.3183670673    2.0449755724
 H   -0.8949159746   -2.5922569873   -0.0899697604
 H   -0.3462579276   -3.9305728791    0.9255844549
 H   -1.3884189218   -2.6639120101    1.6125103824
 H    3.1127724215   -3.7093261105    1.4807015452
 H    3.4084044604   -1.9651781398    1.7664027718
 H    1.0581590195   -3.5840954914    2.8787913000
 H    1.9675035808   -2.1604018426    4.3652982861