14

 N    1.0146766919    0.0824800091    0.6391615248
 C   -0.0352429991    0.0149280442   -0.2150508885
 O   -0.1969021764    0.7386121998   -1.1791860964
 C   -1.0373614317   -1.0697308823    0.1091813977
 N   -0.7544584053   -1.9685804048    1.2289604458
 C   -1.8892583838   -1.0315949013    1.3519516500
 C   -1.8009540639    0.0087273657    2.3386077834
 C   -1.7695336927    0.8801797384    3.1654096588
 H    1.6750409653    0.8343093311    0.5391537659
 H    1.0598340998   -0.5400119772    1.4291188965
 H   -1.5265631649   -1.4559514836   -0.7805493790
 H   -1.0860210628   -2.9106611641    1.0415421244
 H   -2.8873034264   -1.4471166532    1.2284081654
 H   -1.7332436999    1.6546411881    3.8913104012