16

 O   -0.1244496776    1.3477952969    0.1340614454
 N    0.0184566049   -0.0479998011    0.0739187016
 C   -1.1153593495   -0.6330965481    0.0030050666
 C   -1.2282236437   -2.1478488438   -0.0761029764
 C   -2.7553784613   -2.4348848907   -0.0139803038
 C   -3.1553978999   -3.1266166921    1.2851352696
 O   -3.9319694349   -4.0398948185    1.3652788155
 C   -3.3771883585   -1.0524200407   -0.0587795369
 C   -2.4648211251   -0.0720369414   -0.0229945728
 H    0.7906084242    1.6432101628    0.1824708734
 H   -0.8060406349   -2.5225360743   -1.0124145815
 H   -0.6758882174   -2.6306563853    0.7360187986
 H   -3.1115960621   -3.0669290227   -0.8332166931
 H   -2.6684267475   -2.6921481995    2.1895370651
 H   -4.4519698039   -0.9152639895   -0.0877983323
 H   -2.6605410027    0.9905062981   -0.0254428189