21

 C    0.0784489074    1.5491283433    0.0396050864
 C   -0.0234749190    0.0509055742    0.0835853425
 C    1.1259932047   -0.8457191471   -0.3432809297
 C    0.5780066535   -0.9630180553    1.0495928419
 O    1.3238460333   -0.6792183323    2.1822305493
 C   -0.6965041491   -1.8076786650    1.0437917858
 C   -1.3242684482   -0.7724235459    0.0325862218
 C   -2.5497728782   -0.0560671799    0.5882373946
 O   -1.5770218598   -1.2580331244   -1.2779693986
 H    1.0761294214    1.8718182913    0.3527492322
 H   -0.0938653454    1.9316201214   -0.9730816457
 H   -0.6454062804    2.0291397563    0.7064927625
 H    0.9733850084   -1.6269720825   -1.0818625385
 H    2.0779482499   -0.3267806973   -0.4076730550
 H    2.0303499726   -1.3304501064    2.2506742561
 H   -0.6045740027   -2.8353985060    0.6758895855
 H   -1.2071561415   -1.8060290283    2.0102059059
 H   -2.3510616349    0.3733418917    1.5745913555
 H   -2.8648245829    0.7464164165   -0.0856562236
 H   -3.3839961241   -0.7605744240    0.6964080587
 H   -2.3721130650   -1.8008372103   -1.2456457376