17

 O    0.0222388183   -0.0711767652   -0.0541006799
 C   -0.0157345232    1.1292789559    0.0443564687
 C   -1.3332090476    1.9074768316    0.1570158193
 O   -1.2453774417    3.1060031508    0.9253569370
 C   -0.0232176517    3.8272232398    0.8113232171
 C    0.3627750053    4.1111479194   -0.6440263639
 O    1.0597806311    2.9365023834   -1.0895794748
 C    1.2124495714    2.0409737793    0.0245795825
 C    1.1502963078    2.9430087548    1.2613424020
 H   -1.6769284817    2.1222956097   -0.8679684870
 H   -2.0821963355    1.2708814057    0.6324214767
 H   -0.1599854620    4.7330371002    1.4043027731
 H   -0.5163618108    4.2824880016   -1.2741314841
 H    1.0250276864    4.9827911103   -0.7213810609
 H    2.1253034871    1.4598891093   -0.1125192186
 H    2.0755709441    3.5153987109    1.3771032904
 H    0.9320675828    2.4118065025    2.1902223124