14

 C   -0.4102437367    1.4953799939   -0.0043263596
 C    0.1651929794    0.1030901676    0.0111891674
 O    1.0353870982   -0.0983868195   -1.1472446377
 C    2.2031542452   -0.5175358454   -0.6111721536
 N    3.3614861944   -0.9405320069   -1.0398621214
 N    3.9686059231   -1.2634971763    0.1462067275
 N    3.2755951769   -0.9497391442    1.2867980091
 C    2.1518174825   -0.5232532702    0.7772233185
 O    0.9475054731   -0.1082224495    1.2290243172
 H    0.3944948890    2.2338028343    0.0285109334
 H   -0.9956815460    1.6409401311   -0.9155813084
 H   -1.0614665374    1.6335695978    0.8623477177
 H   -0.6046882585   -0.6768507856   -0.0205163948
 H    4.9752730066   -1.2628957572    0.1833699248