16

 C   -0.4796788857    1.4410063706    0.7042826990
 N   -0.5040003257   -0.0026530359    0.8317129177
 C   -1.0386981644   -0.6602103308   -0.1247063168
 N   -1.6279415574   -0.1636157835   -1.2689777504
 C   -1.1032981603   -2.1298135492   -0.0480103483
 N   -1.5237695284   -2.9305538495   -0.9848597237
 C   -1.3872582385   -4.1980380904   -0.4459862984
 C   -0.8822772111   -4.0861856121    0.8068059008
 O   -0.6978863300   -2.7633165562    1.0727267474
 H   -0.0615082742    1.8800589073    1.6130962236
 H    0.1477436675    1.7763427183   -0.1389751079
 H   -1.4844518852    1.8654981429    0.5507019289
 H   -1.3375269821    0.7474744290   -1.5829792066
 H   -1.8173917763   -0.8415262819   -1.9924691899
 H   -1.6581083613   -5.0860478292   -0.9941775296
 H   -0.6127484570   -4.7758143695    1.5878550641