18

 C   -0.0141593585    1.5165822128    0.0088601297
 C    1.3167895033    0.7588715401   -0.0076541899
 C    0.0238577422    0.0339718345    0.0740952735
 C   -0.5663331806   -1.0226510781    0.9871080812
 C   -1.7692663402   -1.0774614135   -0.0128525570
 C   -2.2001997590   -2.5191258718   -0.1743961324
 C   -1.0411014269   -3.1790010427   -0.1889252710
 C   -0.0184035744   -2.0742517136   -0.0346096047
 N   -0.5296753547   -0.9157671356   -0.9607968792
 H   -0.2699373694    2.0775805354    0.9023913460
 H   -0.3347710019    1.9766393169   -0.9203260270
 H    1.8585460795    0.7279839633   -0.9475349107
 H    1.9463907591    0.8158165512    0.8748987528
 H   -0.5846856976   -1.0787953605    2.0828543314
 H   -2.4960962515   -0.2670737715   -0.0570813862
 H   -3.2132130007   -2.8795153573   -0.2799091546
 H   -0.8360435849   -4.2328414950   -0.3096804518
 H    1.0484237465   -2.2850113545   -0.1011295400