18

 C    0.0167865476    1.6021000344    0.0142349369
 C    0.0192499792    0.0760839272    0.0058201450
 C   -1.3939479375   -0.5244626959    0.1846548602
 C   -2.0881624246   -0.0835826013    1.3873298104
 C   -2.6729169292    0.2864611512    2.3692907664
 C    0.8216823112   -0.5972265685   -1.1380879409
 O    1.7552381627   -1.1617992357   -0.1684896597
 C    1.0883620048   -0.5654324037    0.8840622134
 N    1.3319582031   -0.5718038782    2.1122641250
 H    1.0254688099    1.9971006294   -0.1367206924
 H   -0.6286364161    1.9920650286   -0.7807859581
 H   -0.3563861688    1.9718409159    0.9718664619
 H   -1.9903137116   -0.2549510371   -0.6979565969
 H   -1.3220237732   -1.6192674408    0.1853584098
 H   -3.1774098285    0.6032863096    3.2482343245
 H    0.3088266004   -1.3869589954   -1.6943040208
 H    1.3331461959    0.0817597141   -1.8251583351
 H    2.1644816848   -1.1238678139    2.3264884603