23

 C    0.2366864768    1.7783889189   -0.1616583188
 C    0.0477694130    0.2573327067   -0.1523643402
 C    0.9302207856   -0.4505785154   -1.1789311135
 C    2.4896286942   -0.5109257239   -1.0008473981
 C    2.4305084928   -2.0282674915   -1.2426924738
 O    3.2910340254   -2.6875694237   -2.1090482407
 C    1.6098414200   -2.7435745059   -0.2108791342
 C    1.5848965834   -2.4798706092    1.2821122532
 C    0.9059773503   -1.9805425304   -1.3259033583
 H    1.2695210300    2.0520894150    0.0807799769
 H    0.0078479579    2.1992164668   -1.1473392297
 H   -0.4158814255    2.2670137748    0.5686373268
 H    0.2400194214   -0.1288458394    0.8535570148
 H   -1.0014467885    0.0181189221   -0.3717862105
 H    0.7204238995   -0.0127168292   -2.1622650817
 H    3.0256242607    0.0065557311   -1.7987582691
 H    2.8953252634   -0.1822802489   -0.0373343652
 H    4.0238662491   -3.0435173233   -1.5950095648
 H    1.5768826149   -3.8068503601   -0.4484918296
 H    1.8257461153   -1.4447656512    1.5334381760
 H    0.6023672784   -2.7060327120    1.7109668909
 H    2.3189279338   -3.1150792591    1.7915550534
 H    0.2524093081   -2.5146502822   -2.0068625739