18

 C   -0.3238217096    1.3737910824    0.0921232006
 C    0.0094639840   -0.0856442972    0.0531555602
 C    0.9153847282   -0.8580769220   -0.9023776138
 N    0.1891938553   -2.1404700602   -0.5516542723
 C    0.5698799301   -2.2932779833    0.9089938823
 C   -0.2068259668   -1.0225537435    1.2254828530
 C   -0.9734764399   -1.2571968071   -0.0726943401
 C   -2.3906640112   -1.3004425311   -0.3971452537
 O   -3.2104677785   -0.5412006384    0.0765655314
 H    0.4645358625    1.9474019615    0.5922406637
 H   -0.4444753780    1.7751549913   -0.9192982306
 H   -1.2633642959    1.5362975674    0.6280641567
 H    0.7240816613   -0.6033773903   -1.9480671735
 H    1.9957339766   -0.8825167595   -0.7179708122
 H    0.0975228159   -3.1891909935    1.3178800047
 H    1.6491965997   -2.3219873074    1.0946901326
 H   -0.6316500668   -0.6756956620    2.1590462723
 H   -2.6716839268   -2.0843600871   -1.1332979013