21

 C    0.0052644644    1.5556406520   -0.0969984535
 C   -0.0253618418    0.0419504723    0.1359630951
 C   -1.4072331071   -0.5604862172   -0.0021173239
 C   -2.1856046239   -0.5408870602   -1.3572763051
 C   -2.9240758056   -1.7804408820   -0.7817584464
 C   -1.6253002514   -2.1035059772    0.0037702581
 O   -3.9320129673   -1.3917808887    0.1539152978
 C   -3.6148419862   -0.1644241193    0.7741297399
 O   -2.2373099633   -0.0197756181    1.0432422096
 H    1.0140818301    1.9538818929    0.0451090059
 H   -0.3115752959    1.8078329025   -1.1149278513
 H   -0.6661148600    2.0630899881    0.6002170096
 H    0.6406959896   -0.4674934995   -0.5708681356
 H    0.3455441943   -0.1889015075    1.1421884372
 H   -2.7575910441    0.3422293630   -1.6464933194
 H   -1.5279338436   -0.8305305393   -2.1797894341
 H   -3.3716844020   -2.5187983265   -1.4480156246
 H   -0.8860199803   -2.6326443954   -0.6040525233
 H   -1.7463449286   -2.5786712760    0.9785521674
 H   -3.9607518909    0.6703523059    0.1436848690
 H   -4.1420984765   -0.1333478099    1.7314535976