13

 O    0.0725882181    0.0386311535    0.3289192641
 C    0.0511660861    1.1965730875   -0.0109287648
 N    1.1138982477    1.8791056398   -0.5704440004
 C    2.4835205196    1.7856782779   -0.1230641378
 C    3.4055963810    2.4235086338   -1.2313108340
 O    2.5843253368    2.8688074906   -2.3075593203
 C    2.6696297788    3.6869411793   -1.1463632762
 C    1.7292167247    3.0798342486   -0.0338876590
 H   -0.8559950387    1.8294058214    0.0237430218
 H    2.7714343868    1.0976475243    0.6597135788
 H    4.4454987415    2.1985637541   -1.4306687549
 H    2.9757740011    4.7194158706   -1.2578208109
 H    1.3407497264    3.5842592685    0.8414897535