20

 C   -0.0883650455    1.5507580618    0.0329427907
 C    0.1322436772    0.0408315392   -0.0332709302
 C    1.0646488188   -0.4465216379   -1.1603205091
 C    1.3947941161   -1.8936793328   -0.7611704599
 C    1.5488003525   -1.8421969099    0.7755257018
 N    2.9395671620   -1.5560427766    1.1816077678
 C    2.9180048523   -0.4092140759    1.7182270911
 O    1.7524785245    0.2688995399    1.8333004809
 C    0.7369122247   -0.5877234723    1.2376742376
 H    0.8561752200    2.0731104781    0.2053633700
 H   -0.5190071278    1.9193785216   -0.9034435685
 H   -0.7713578345    1.8207250917    0.8451542074
 H   -0.8409098568   -0.4521805405   -0.1725074501
 H    0.6024623158   -0.3687489917   -2.1483715229
 H    1.9772912064    0.1619383647   -1.1799782062
 H    0.5613892789   -2.5552322415   -1.0255414137
 H    2.2972615995   -2.2879722984   -1.2328169475
 H    1.2297263197   -2.7750849917    1.2476446260
 H    3.7790490644    0.1132291179    2.1215355202
 H   -0.0084457481   -0.7723813459    2.0148237646