16

 C    0.0059208579    1.5040515958    0.0296882996
 C    0.0077449106    0.0117488956   -0.0704017658
 C   -0.9002676247   -0.9384323476    0.7465652163
 O   -1.0665642724   -2.1601511251    0.0258731693
 C    0.3589567455   -2.0754486294   -0.2723799797
 C    0.5662591511   -1.0604177150    0.9188485729
 C    0.4473370753   -0.8597623727   -1.1907734323
 N    0.9150083478   -0.5746034465   -2.3307665823
 O    1.3892642048   -1.7339333647   -2.9892940025
 H    0.9842256658    1.9168688353   -0.2360536377
 H   -0.7359759184    1.9376720477   -0.6487144446
 H   -0.2371927689    1.8307356554    1.0459269416
 H   -1.6920062172   -0.5925244535    1.3989571563
 H    0.8443064896   -3.0250807834   -0.4692268701
 H    1.2700911846   -0.9784480481    1.7347370675
 H    1.6955589786   -1.3731566536   -3.8277184587