19

 C   -0.0526444581    1.4614240054    0.0522417079
 C    0.0603583963   -0.0285378296   -0.0617768513
 C    0.9198952857   -0.8485798366   -1.0283303213
 C    0.0976382701   -2.0663015156   -0.5320485801
 C    0.0259451092   -3.3938503826   -1.2263048912
 O    1.2989365689   -4.0158356618   -1.2416646030
 O    0.5403898644   -2.2025565117    0.8645364542
 C   -0.1807474439   -0.9962888114    1.1126773391
 C   -1.0527261943   -1.0809937542   -0.0931097216
 H    0.8984920057    1.9058655721    0.3671940034
 H   -0.3339465406    1.9170742874   -0.9039204719
 H   -0.8116178185    1.7465736313    0.7893056839
 H    0.6894137990   -0.6047182345   -2.0695052742
 H    2.0021179670   -0.8975750691   -0.8743585318
 H   -0.7293227318   -4.0237755963   -0.7310465982
 H   -0.2778779168   -3.2582517499   -2.2696146415
 H    1.6061445107   -4.0312112904   -0.3273892384
 H   -0.3722115284   -0.6955896013    2.1348198370
 H   -2.1205972544   -1.0367925812   -0.2590885009