17

 O    0.1791497490    1.5940617775   -0.0400694869
 C    0.0647151462    0.1979767029   -0.0552167740
 C    0.7023906353   -0.3968859984   -1.2988252535
 C    0.1561465953   -1.6585000730   -1.9194037422
 C   -0.0486162073   -0.3329423013   -2.6038693422
 C    0.7005325413   -0.3700823549    1.2179775113
 O    1.2594338372    0.3716593337    2.0031355219
 C    0.5988322983   -1.7923271922    1.4481627301
 C    0.4914541122   -2.9723885784    1.6594230354
 H    0.6634129767    1.8088256974    0.7737048156
 H   -0.9989478768   -0.0993895881   -0.0391691305
 H    1.7767975435   -0.2442442501   -1.3504908920
 H    0.8633930793   -2.3615506200   -2.3441699283
 H   -0.7012889797   -2.1269548909   -1.4486862922
 H   -1.0423526860    0.1016868931   -2.5898891952
 H    0.5173424093   -0.1193441420   -3.5032002863
 H    0.4046623563   -4.0146479754    1.8509938489