21

 O   -0.1949152197    1.4725686805    0.1148507488
 C    0.0389699162    0.0912090226   -0.0699227340
 C   -1.2675883925   -0.6876523072   -0.1151966286
 O   -2.0201019508   -0.1467558575   -1.1866865789
 C   -3.3814684532   -0.5639614191   -1.2447099267
 C   -4.1390670448    0.3435285148   -2.2386635237
 C   -5.0816701143   -0.5892966608   -3.0378113513
 C   -4.5076312877   -1.9607333514   -2.7764222361
 C   -3.5915255912   -1.9525979632   -1.8107847556
 H   -0.8815180380    1.7010968010   -0.5234286887
 H    0.6029634246   -0.1020044470   -0.9966668825
 H    0.6476402218   -0.2544607069    0.7722232835
 H   -1.0715387074   -1.7619279954   -0.2584964691
 H   -1.8130437442   -0.5603633683    0.8336756406
 H   -3.8009600862   -0.4964929395   -0.2259718303
 H   -4.6632060957    1.1635486505   -1.7432583118
 H   -3.3883443868    0.7813562112   -2.9029562831
 H   -6.1161938243   -0.5278355009   -2.6737807872
 H   -5.1199428771   -0.3421633790   -4.1048036430
 H   -4.8466293661   -2.8436950821   -3.3081789556
 H   -3.0715570727   -2.8231268921   -1.4276360467