17

 C   -0.0076824677    1.1882275569    0.6498344266
 N   -0.4446070968    0.0578761952   -0.1629333736
 C    0.4365897790   -0.3333360086   -1.2159197059
 C    1.8881589337   -0.7295357728   -0.9857979564
 C    0.8912200556   -1.8012377105   -1.3370261792
 C    0.4453687847   -2.7195141085   -0.3301955494
 N    0.0597935085   -3.4290863929    0.4990259922
 C    0.1444377444    0.2993950074   -2.5477277193
 O    0.8027499253    0.1170552425   -3.5416503468
 H    0.9503919597    1.0286854850    1.1704011360
 H    0.0999999629    2.0779283882    0.0204311319
 H   -0.7744452655    1.4028427139    1.3983450282
 H   -0.7268105471   -0.7274954356    0.4104023074
 H    2.5969481361   -0.4650718054   -1.7617723672
 H    2.2502339764   -0.6984896615    0.0344239853
 H    0.9239701547   -2.1912219278   -2.3487308296
 H   -0.7541771938    0.9507907344   -2.5338101002