23

 C   -0.0930959118    1.5167781715    0.0611045360
 C   -0.0101715110   -0.0037834459   -0.0156303849
 C    0.7629244419   -0.5323480931   -1.2387502944
 C    1.8265001512   -1.1590663620   -0.3209656993
 C    1.0778196420   -0.6564682156    0.9223399967
 O    1.8095968190    0.2244045443    1.7463450430
 C    0.9675934174   -2.0265028852   -1.2136039809
 C   -0.0659161952   -3.0020601239   -0.6774645316
 C    1.7072599443   -2.5647647026   -2.4302559163
 H    0.8744268802    1.9927273836   -0.1363361317
 H   -0.7941267534    1.8965979377   -0.6895031580
 H   -0.4331904186    1.8466378886    1.0466482227
 H   -1.0171970393   -0.4199454345    0.1053330102
 H    0.9032078291    0.0329785442   -2.1553514603
 H    2.9089869342   -1.1609902754   -0.4074621889
 H    0.7058605256   -1.4282080190    1.6032671376
 H    2.2539417445    0.8654806820    1.1815063592
 H   -0.6165292746   -2.6180028251    0.1835109590
 H   -0.7999342720   -3.2464346534   -1.4543016639
 H    0.4127237536   -3.9396810360   -0.3717417918
 H    2.2350179843   -3.4945852458   -2.1892889048
 H    1.0090228130   -2.7813539627   -3.2470027540
 H    2.4455573756   -1.8470837615   -2.8015725936