17

 C    0.2185440369    1.4008015708   -0.2561727280
 C   -0.0547540406   -0.0646523543    0.0192365256
 C   -1.5243960940   -0.4350746071   -0.0367436276
 O    0.7221048283   -0.9120742200   -0.9175811063
 C    1.4829380097   -1.4474907688    0.0868772527
 N    2.4331043082   -2.2594791274    0.0781935610
 C    0.7442547900   -0.7157427285    1.2050226325
 C    1.5190513004    0.1447380305    2.0783593477
 N    2.1168950118    0.8519359929    2.7695077470
 H    1.2885004062    1.6185076583   -0.2247395843
 H   -0.1625763686    1.6662314499   -1.2464115952
 H   -0.2805862817    2.0292145721    0.4873817736
 H   -1.9410016410   -0.1766724606   -1.0145623638
 H   -1.6663084028   -1.5071925370    0.1246274426
 H   -2.0830090882    0.1117431854    0.7293055009
 H    2.6680799806   -2.5584513482   -0.8694811472
 H    0.1328276248   -1.3952630979    1.8048127189