20

 C   -0.1071710806    1.5410657995   -0.0330164272
 C   -0.0553197630    0.0089319501   -0.0234285023
 C    0.9903818997   -0.5094039416    0.9695025241
 C   -1.4605004349   -0.5678432139    0.2793859269
 C   -1.5478717635   -2.0191966862    0.1677987995
 C   -1.6054638596   -3.2168678911    0.0556150966
 C   -1.6846357387   -4.6675646349   -0.0524824311
 O   -1.9082638204   -5.0383941148   -1.4090188080
 H    0.8722807555    1.9653270639   -0.2755313239
 H   -0.8264230720    1.9148601940   -0.7696138885
 H   -0.4021111749    1.9301430362    0.9491958927
 H    0.2247170999   -0.3347503490   -1.0274860770
 H    1.0225152559   -1.6024364504    0.9738948068
 H    1.9888909150   -0.1389554010    0.7161392808
 H    0.7603348857   -0.1745622969    1.9885934573
 H   -1.7623557273   -0.2603267415    1.2909857944
 H   -2.1904322716   -0.1129124922   -0.4030296364
 H   -0.7502390118   -5.1106519467    0.3298997929
 H   -2.4968295476   -5.0335551730    0.5972272070
 H   -1.9564282559   -5.9994641806   -1.4376210144