21

 C    0.1113821123    1.3598848153   -0.4512365154
 C    0.0327241586   -0.0824038267    0.0291071754
 C    1.3369373467   -0.8478649382    0.2104435818
 C    0.5658670218   -0.4015711536    1.4195969115
 C   -1.1150453148   -0.8228319689   -0.4277084814
 C   -2.0857051599   -1.4190520910   -0.8278464208
 C   -3.2396459967   -2.1335179153   -1.2914800355
 C   -3.6127461320   -2.1124026804   -2.7663316562
 C   -3.0783337002   -3.3742419929   -2.1574828492
 H    1.0102128884    1.8491804554   -0.0626589350
 H    0.1436129291    1.4064263834   -1.5443926750
 H   -0.7600535745    1.9308442984   -0.1155380501
 H    1.3366782135   -1.9028096957   -0.0359626213
 H    2.2539541557   -0.3245320801   -0.0391272121
 H    0.9520421082    0.4296534849    2.0000664668
 H    0.0399284798   -1.1518606004    1.9974547289
 H   -4.0781218060   -2.1544310802   -0.6004959445
 H   -4.6677278085   -2.0595439709   -3.0108058810
 H   -2.9644089326   -1.5510668223   -3.4282708170
 H   -2.0664238460   -3.6710505299   -2.4055684412
 H   -3.7629720927   -4.1961641109   -1.9804416689