20

 C   -0.0115614064    1.3259419835    0.6982158942
 C    0.0073898055   -0.0390207672    0.0318423454
 C    0.9776867278   -0.2424773694   -1.1065368700
 C    1.2268939513   -0.9056233794    0.2279379191
 C   -1.3537065155   -0.7151288615    0.0089412701
 C   -2.3080654802   -0.3832159322   -1.0961760422
 N   -1.7142441101   -1.7206460525   -1.0160560950
 C   -1.8857638696   -1.0018257668    1.3235551059
 C   -2.3085765084   -1.2140186462    2.4287953092
 H    0.9950937519    1.7525349375    0.7406032490
 H   -0.6516967063    2.0248918790    0.1481081662
 H   -0.3934773032    1.2537419901    1.7210083613
 H    0.7154578243   -0.8745070273   -1.9491664621
 H    1.5925737282    0.6064914755   -1.3859653587
 H    2.0299672890   -0.5302224320    0.8529203180
 H    1.0785339008   -1.9784578054    0.2874738735
 H   -3.3737459575   -0.3398903248   -0.8942784491
 H   -1.9489949040    0.3048796528   -1.8577509218
 H   -0.9625057237   -1.8091382742   -1.6945328399
 H   -2.6911062539   -1.4150757896    3.3986703669