14

 N    0.0445741477    1.4000292516    0.1601896796
 C   -0.0474316118    0.0225554776    0.0499107382
 C   -1.2281171845   -0.6800685871    0.0253628178
 C   -1.1612834399   -2.0934927321   -0.0117465733
 C    0.0219079476   -2.7764488974   -0.0381009631
 C    1.2825764483   -2.0765327572   -0.0165840622
 O    2.4098375117   -2.5440893674   -0.0261858879
 N    1.1287856116   -0.6635770821    0.0275512895
 H    0.8226108276    1.8271489492   -0.3235457368
 H   -0.8207153172    1.8853177758   -0.0255237111
 H   -2.1737104635   -0.1550614179    0.0301295663
 H   -2.0942734330   -2.6497812375   -0.0278458080
 H    0.0670870971   -3.8569367361   -0.0691483871
 H    2.0071569483   -0.1673205494    0.0985740880