20

 C   -0.2291800500    1.5216646841   -0.0052689665
 C    0.0291642576    0.0142497880    0.0225386000
 C    0.8649405708   -0.4415392701   -1.1914446246
 O    0.7477271169   -0.0547253849   -2.3330062320
 N    1.7854536585   -1.3602776488   -0.7417809608
 C    1.8738877105   -1.4270131470    0.6886680162
 C    2.2304978548   -0.1419461993    1.4040045103
 C    0.7754941282   -0.5447848332    1.2335260813
 C   -0.0267997686   -0.9344422296    2.4525719193
 H    0.6964622837    2.0853613584    0.1473766989
 H   -0.6392475880    1.8044721671   -0.9780630651
 H   -0.9376548840    1.8154927148    0.7747471400
 H   -0.9374890049   -0.5033578812   -0.0555080083
 H    2.5556267526   -1.6093613968   -1.3446445313
 H    2.1044201983   -2.3961151695    1.1174164151
 H    2.6388436595   -0.2138683505    2.4069468467
 H    2.6420867044    0.6645020996    0.8051785440
 H   -0.4768991969   -0.0547957168    2.9268108548
 H   -0.8380546514   -1.6226158925    2.1887202257
 H    0.5998975880   -1.4273320620    3.2026071661