17

 N    0.0308137719    1.4043532766    0.0921379876
 C    0.1254176981    0.0222798264   -0.0337933767
 O    1.1850074047   -0.5537645332   -0.1800102251
 N   -1.0953026968   -0.6219131166    0.0553476600
 C   -1.1752499338   -2.0513211774    0.0743537966
 C   -1.8813025428   -2.8498269018    1.2179035846
 C   -3.2667180122   -2.3826795858    0.7049998756
 C   -2.4026090176   -2.8141713896   -0.5069317340
 O   -1.9610404961   -3.9870162196    0.2772360993
 H    0.8843077637    1.8686220456   -0.1802709955
 H   -0.8032768810    1.8510852166   -0.2594601741
 H   -1.8790873175   -0.0901718953    0.3974408747
 H   -0.2119065570   -2.4618702649   -0.2179477202
 H   -1.5495841881   -3.0583110377    2.2352807393
 H   -4.0913571013   -3.0561526105    0.9409902894
 H   -3.5541850555   -1.3319116043    0.8127398707
 H   -2.6944494989   -2.9808462983   -1.5442689322