25

 C    0.0191091353    1.6184939873   -0.0182703982
 C    0.0300372884    0.0774595008    0.0182636446
 C    0.7493720935   -0.3962238930    1.2980772201
 C   -1.4261542381   -0.4292161363    0.0601833096
 C    0.7200012054   -0.5626510561   -1.2132468546
 C    0.2242945082   -0.1162163244   -2.6280006362
 C    1.5414012012    0.6768154391   -2.8379799520
 C    2.1504247286   -0.0979600481   -1.6428422121
 O    2.9059025894    0.6139774468   -0.6828737670
 H    1.0336640954    2.0208635030   -0.0128250137
 H   -0.5022894090    2.0004734744   -0.9027526443
 H   -0.5088704120    2.0084694302    0.8592019730
 H    0.2494115425    0.0025041123    2.1881334557
 H    0.7339333651   -1.4898625860    1.3731739485
 H    1.7902707823   -0.0684257725    1.3094859965
 H   -1.9955962000   -0.1094181586   -0.8187641764
 H   -1.4658277780   -1.5233714169    0.1053989791
 H   -1.9407467347   -0.0408085916    0.9459915330
 H    0.6737322070   -1.6467852972   -1.0638167542
 H    0.1203444328   -0.9586049660   -3.3164187890
 H   -0.6996093262    0.4645352864   -2.6646111465
 H    2.0433448047    0.5889117245   -3.8053589445
 H    1.4246144367    1.7354787976   -2.5925781224
 H    2.7211224410   -0.9682389728   -1.9988618376
 H    3.7529161207    0.8423949172   -1.0787919313