15

 N    0.0013503252    1.3284239312   -0.1218297308
 C   -0.1040856549   -0.0526623745   -0.1117181155
 C   -1.1304745976   -0.9347102993   -0.0222568678
 C   -2.5965492065   -0.6437778964   -0.0091095253
 O   -2.9097942086    0.5443405655   -0.7428582730
 N   -0.5992112672   -2.2377260457    0.0767811785
 C    0.6707431673   -2.0481303736    0.0301719246
 O    1.6621263433   -2.9406020116    0.0568195652
 O    1.0780975981   -0.7653627133   -0.0813485075
 H    0.6693264220    1.6729932512   -0.8026743070
 H   -0.9153570800    1.7327422293   -0.2804949687
 H   -3.1445645565   -1.5156711189   -0.3922106691
 H   -2.9680796104   -0.4527432143    1.0049852714
 H   -2.6765481864    0.3733624666   -1.6620690233
 H    1.2463017523   -3.8092609061    0.1254662984