15

 C    0.1719787755    1.4126349353    0.1599838697
 N   -0.2578822266    0.0797890716   -0.2515385941
 C    0.5073133189   -0.4764754021   -1.3228625889
 C    1.9115556390   -1.1551931576   -1.0260741482
 O    1.1623124956   -2.2519961392   -0.3458165437
 C    0.3314121228   -1.9986120348   -1.5597219586
 C    1.6955160214   -1.9973000579   -2.3002555906
 O    2.2633503198   -2.4775553932   -3.2238324365
 H    1.2224967088    1.4699507409    0.4914908224
 H    0.0468417116    2.1108134071   -0.6749506642
 H   -0.4638484647    1.7578614443    0.9795767102
 H   -0.2318070992   -0.5626227254    0.5342036401
 H    0.4705166836    0.1678328554   -2.2077994028
 H    2.8074856431   -0.7791230156   -0.5374800824
 H   -0.5770826096   -2.5843756786   -1.6816850924