16

 C    0.0971764093    1.4380872199   -0.1252455128
 C   -0.1767363050   -0.0332614398    0.0413508757
 O   -0.7221019890   -0.5631392718    0.9675382069
 O    0.3054471732   -0.7237269389   -1.0437140072
 C    0.1424615605   -2.1256433544   -1.0102639165
 C   -1.2200542522   -2.6967326763   -1.3197028800
 C   -0.1296039539   -2.7595871690   -2.3534867255
 C    1.0046041895   -2.8089380950   -0.0750451792
 N    1.7078393284   -3.3737410913    0.6480643437
 H    1.1773820135    1.6113303035   -0.1299965410
 H   -0.2938639383    1.7925306402   -1.0825651326
 H   -0.3604326862    1.9854795950    0.6975051819
 H   -1.5103719332   -3.6031009789   -0.8028724555
 H   -2.0112341819   -1.9690705629   -1.4527658382
 H   -0.1731926989   -2.0689971657   -3.1873629393
 H    0.3438229342   -3.7112218145   -2.5611564401