19

 C    0.0039268622    1.4452956462    0.0331091743
 N    0.0121108487    0.0034476826   -0.1140448792
 C    1.2670661419   -0.7035825724    0.0577439695
 C   -1.1805188707   -0.6928809046   -0.0301556120
 C   -1.2169251601   -2.1055392389    0.0254672075
 N   -2.3325121635   -2.8271820236    0.0753821545
 C   -3.5038559794   -2.1865745840    0.0826962475
 C   -3.5908000767   -0.7993284524    0.0498014497
 C   -2.4285768450   -0.0433078966   -0.0016277439
 H    1.0203340254    1.8231415019   -0.0866519400
 H   -0.6158862586    1.9184422288   -0.7376663674
 H   -0.3703979981    1.7751121042    1.0152115354
 H    1.3641577769   -1.1713837802    1.0497649416
 H    1.3842788355   -1.4900409270   -0.6963671398
 H    2.0921463744   -0.0011501017   -0.0691787738
 H   -0.2932225322   -2.6746064234    0.0307714648
 H   -4.3969424822   -2.8040011249    0.1230205396
 H   -4.5588865721   -0.3096289830    0.0686950448
 H   -2.4926940164    1.0368903891   -0.0185075831