21

 C   -0.1203755468    1.5311562293    0.0025110950
 C    0.0339926788    0.0146409125   -0.0188047570
 C    1.0991167469   -0.5906029701   -0.9531203213
 C    2.3956049219   -0.0739948646   -0.3178016990
 O    2.0886253458   -0.0940764946    1.0899516868
 C    0.7444545146   -0.6163827695    1.2052599193
 C    0.2277986420   -0.3569323519    2.5994526702
 C    0.8072991350   -2.0865141957    0.7533535672
 O    1.0144808318   -1.9939573143   -0.6709113554
 H    0.7964667519    2.0260478992    0.3320592474
 H   -0.3812162037    1.9145351503   -0.9895692257
 H   -0.9212825262    1.8281558603    0.6871236273
 H   -0.9287277976   -0.4691349356   -0.2107726115
 H    0.9962933944   -0.4390746141   -2.0276875500
 H    3.2341818465   -0.7436657548   -0.5367767418
 H    2.6592313249    0.9454575207   -0.6274545340
 H    0.2322900649    0.7142881358    2.8174329425
 H   -0.7939068042   -0.7327100133    2.7088095883
 H    0.8595480816   -0.8535675453    3.3421711116
 H    1.6474073038   -2.6066746923    1.2274394811
 H   -0.1196085562   -2.6386197519    0.9567813389