19

 O    0.0094955049   -0.0442848067    0.1409220746
 C   -0.0030164495    1.1629399599    0.0084754688
 C   -1.3041427897    1.9616209679   -0.0453944192
 C   -1.1766007823    3.1989708295   -0.9160641463
 C   -1.4971925517    3.0654321564   -2.3867654182
 C   -2.4188157109    3.8398964978   -1.4722046433
 C   -0.0068498041    4.0808985900   -0.5123085829
 C    1.2427311737    3.2790084077   -0.2696467015
 C    1.2435689812    1.9569875937   -0.0563567492
 H   -2.1036433469    1.2970986888   -0.3834172259
 H   -1.5454402813    2.2526806476    0.9886864221
 H   -0.8969581496    3.6227389382   -3.0983136805
 H   -1.8319372357    2.0996606290   -2.7502647035
 H   -3.3782920339    3.4007891334   -1.2195378031
 H   -2.4375814498    4.9212035161   -1.5654675557
 H    0.1846838060    4.8434551716   -1.2769499983
 H   -0.2475702884    4.6423391244    0.4054677483
 H    2.1839968115    3.8249418974   -0.2663838014
 H    2.1632475466    1.4011450573    0.0977092451