14

 C   -0.0248467817    1.5236404579    0.0155320634
 C    0.0042168262    0.0318661317   -0.0285741332
 C   -0.0499732953   -0.7926075733   -1.0980731957
 N    0.0659941328   -2.1423031106   -0.7644195462
 C    0.1033108650   -2.2774340832    0.6245002616
 N    0.1159969232   -3.3155464765    1.3509612375
 C    0.1215238932   -0.8263090184    1.1595775107
 O    0.2171818877   -0.5097782829    2.3224551527
 H    0.8938735665    1.9229078290    0.4595218430
 H   -0.1363610651    1.9528811488   -0.9841139944
 H   -0.8524776998    1.8808151969    0.6379118401
 H   -0.1432845159   -0.5214364638   -2.1422598327
 H   -0.1999805658   -2.8878166570   -1.3856741894
 H    0.0962527390   -4.1734006286    0.7925897826