18

 C    0.3515952402    1.0613333728    0.5942924350
 C   -0.1529971692   -0.2350326709   -0.0118329572
 O    0.8492136378   -0.7258901281   -0.9033420706
 C    0.5479336647   -1.9380188264   -1.5332021916
 C   -0.4241402203   -1.7902082507   -2.7108505269
 O   -1.0141913748   -0.7724228672   -2.9579095712
 C    1.8237732707   -2.6337166173   -2.0483653845
 N    2.9642888987   -1.9536055453   -1.8021215590
 O    1.7453601571   -3.6979738644   -2.6315945066
 H    1.2879271238    0.8994979347    1.1366529335
 H    0.5267391182    1.8054287496   -0.1874762519
 H   -0.3877080345    1.4620982893    1.2937961893
 H   -0.3395800368   -0.9869507187    0.7718053709
 H   -1.0862909416   -0.0711782607   -0.5604992045
 H    0.0859281602   -2.6612876956   -0.8372304685
 H   -0.5318196375   -2.7140172728   -3.3133481916
 H    2.9237705109   -1.0760542321   -1.3119031385
 H    3.8398656124   -2.3337594562   -2.1196425162