16

 C   -0.0051109690    1.5486974584    0.0150919972
 C   -0.0029147872    0.0515627907    0.0057984719
 C   -1.0935640520   -0.7749512333    0.0133128225
 N   -2.3876005664   -0.3914613903    0.0457190462
 C   -0.7447169296   -2.2403454645    0.0027231981
 C    0.7881194607   -2.2169983975   -0.0181125612
 O    1.5142847368   -3.1718940033   -0.0350323199
 C    1.2195773598   -0.7297661567   -0.0137872938
 O    2.3712906245   -0.3447759443   -0.0273319076
 H    1.0287993842    1.9016348754   -0.0203785503
 H   -0.5361969292    1.9705365529   -0.8480811698
 H   -0.4712185465    1.9586721230    0.9201269309
 H   -2.6373492389    0.5812218788   -0.0144833771
 H   -3.1280570764   -1.0653113003   -0.0397186092
 H   -1.1168037429   -2.7696232676    0.8885616540
 H   -1.1401681279   -2.7639249414   -0.8766299619