19

 C    0.1379226122    1.5538485112    0.1567566686
 C    0.1660815049    0.0256583026    0.0929861303
 C    0.5900990975   -0.4965882854   -1.2875969955
 O    1.8703464023   -0.0194845880   -1.6583729480
 C    0.5769241024   -2.0335831276   -1.3436937976
 C    1.5195450062   -2.7362965512   -2.2350196461
 O    1.7951862754   -2.6222293918   -0.8338266624
 C   -0.6524463117   -2.6891529840   -0.9711432938
 C   -1.6991495506   -3.2058031433   -0.6836072537
 H    1.1116702835    1.9705719403   -0.1128205314
 H   -0.6034614016    1.9636191297   -0.5385438159
 H   -0.1205202601    1.9000816028    1.1617294853
 H    0.8652360969   -0.3731876054    0.8403775452
 H   -0.8185153596   -0.3856475577    0.3397187941
 H   -0.1041575778   -0.1215693029   -2.0498452666
 H    2.5001950407   -0.4906792473   -1.0955532256
 H    1.2719627373   -3.7394649617   -2.5742527499
 H    2.1579429470   -2.1417934525   -2.8825939203
 H   -2.6183142249   -3.6706783579   -0.4237754467