15

 C    0.0399060251    1.4941900565    0.0648892139
 C    1.3627096239    0.7763063425    0.0394582816
 N    1.9119633880    0.5720922911    1.3775526151
 C    1.1579480503   -0.3179369725    1.8702140120
 O    0.6898907970   -0.5893061059    3.1296096161
 C   -0.6302651264   -0.8670112526    2.5097788714
 C    0.0357498617   -0.9265108557    1.0925035254
 C    0.0154161995   -0.0070558720   -0.1034172338
 H   -0.2589774693    1.9460351071    1.0057642071
 H   -0.2419748610    2.0641072498   -0.8145067717
 H    2.0582989169    0.9185935934   -0.7785120409
 H   -1.0520548425   -1.7955126868    2.8961457881
 H   -1.2983513963   -0.0190845917    2.6776647323
 H    0.1992925367   -1.9678037833    0.8040967660
 H   -0.2920694037   -0.4000310100   -1.0639072827