21

 C    0.5212682346    0.6746949506    1.3681611255
 C    0.0122000738    0.0009977080    0.1060002556
 O   -1.3194187089   -0.4275322568    0.3284125675
 C   -1.8954047040   -1.0654218703   -0.7847282499
 C   -3.3311044439   -1.4407578424   -0.4187874608
 C   -4.2077589007   -0.2354802236   -0.1152864850
 O   -3.8747355983   -2.1467390070   -1.5502056036
 C   -4.2717648258   -3.4212965729   -1.3858295483
 O   -4.7284387361   -4.0773587943   -2.2728691129
 H    1.5506352458    1.0168783573    1.2269201554
 H   -0.1001844443    1.5386487827    1.6201524848
 H    0.4993620334   -0.0216367697    2.2111673969
 H    0.0452584394    0.6975372686   -0.7480855425
 H    0.6460583686   -0.8620079283   -0.1571875419
 H   -1.9010973459   -0.4057718264   -1.6683642112
 H   -1.3368734012   -1.9759772619   -1.0571738679
 H   -3.3020085297   -2.1136362043    0.4486384936
 H   -3.7534137699    0.3518922474    0.6856300612
 H   -4.3030967177    0.3960002871   -1.0038167250
 H   -5.2083101964   -0.5492393175    0.1942461889
 H   -4.1296327828   -3.7843584265   -0.3484993301