19

 C   -0.1104332587    1.6527815141   -0.1771825079
 C    0.0303801271    0.1431027690   -0.0177292386
 C    1.1073142109   -0.6023775266   -0.8894580481
 C    1.7745504300   -1.1497444421    0.3655853113
 O    2.1251010319   -2.4646650017    0.4684672126
 C    2.1776177971   -0.0999745115    1.3120736673
 C    0.6781077017   -0.4018271581    1.2650760562
 C    0.0685769776   -1.1927553150    2.3134707659
 O    0.7101215838   -1.9127113670    3.0660965734
 H    0.8442972403    2.1687416531   -0.0317788138
 H   -0.4737620637    1.9064105468   -1.1787099049
 H   -0.8211354463    2.0578224702    0.5508552260
 H   -0.9455794479   -0.3309778802   -0.1642204381
 H    0.6768390568   -1.3975434762   -1.4996363045
 H    1.7460898459    0.0268886913   -1.5177817844
 H    2.1273720494   -2.6937897339    1.4116672769
 H    2.6526700179   -0.4535865653    2.2213260073
 H    2.5119462235    0.8756061202    0.9680599079
 H   -1.0424932774   -1.1845948872    2.3487770156