16

 C   -0.0335477642    1.5294268132    0.0523390621
 C    0.0016377771    0.0031568253   -0.0557423954
 N    0.7422936184   -0.4663369123   -1.2127788607
 N    0.1128891348   -0.6702115120   -2.4028455980
 N    1.0054804844   -1.0918732751   -3.2462834639
 C    2.2187126426   -1.1460839352   -2.6326868465
 C    2.0661792310   -0.7420208782   -1.3222512346
 N    2.9307144792   -0.6824260129   -0.2277719949
 H    0.9714802395    1.9496099407    0.1639073734
 H   -0.4856427466    1.9624392615   -0.8434767228
 H   -0.6238003373    1.8310629394    0.9226717158
 H    0.4586215393   -0.4467071099    0.8312726328
 H   -1.0100013122   -0.3957310409   -0.1567780034
 H    3.1092979028   -1.4682514491   -3.1479649160
 H    3.8686447158   -0.9653052743   -0.4793970374
 H    2.9682701154    0.2298045097    0.2125939096