17

 C    0.0341903232    1.4707296400   -0.0892541074
 C   -0.0309081504   -0.0238835275   -0.0301344732
 O    0.3142935812   -0.7207781173   -1.2555144906
 C   -0.3768140537   -1.8601079328   -0.7075307629
 C    0.3202738453   -2.2440302625    0.6287814273
 C    0.5894195708   -0.8374238183    1.1469798335
 C   -0.7020787488   -1.5441182021    1.4969641123
 C   -1.2981662433   -0.9509942565    0.1906969933
 O   -2.6209297558   -0.6306605821    0.0241795725
 H    1.0631882058    1.8053569898   -0.2605135990
 H   -0.5890938951    1.8598501531   -0.8997990923
 H   -0.3132506412    1.9011949627    0.8547373768
 H   -0.6693659257   -2.6145651657   -1.4364386137
 H    0.9427057095   -3.0977598271    0.8576391075
 H    1.4243652585   -0.5808645027    1.7852389533
 H   -1.1380179636   -1.8115874270    2.4475190687
 H   -2.7451627870   -0.3056724741   -0.8758710861