24

 C    0.1697288625    1.5656382131    0.0086781497
 C    0.0559595423    0.0390540312    0.0017848585
 C   -1.3970997296   -0.4541530354    0.0128754988
 C   -1.4848851651   -1.9851307699    0.0056600415
 C   -2.9207678207   -2.5888312642    0.0161707821
 C   -3.6992258470   -2.1987568522    1.2931645678
 C   -3.7234115471   -2.1853706099   -1.2415174675
 C   -2.7669085515   -4.0551705738    0.0068594505
 N   -2.6411548791   -5.2044681170    0.0001350739
 H    1.2158258253    1.8865883427    0.0005781076
 H   -0.3195760980    2.0038792067   -0.8682899068
 H   -0.3030622037    1.9946645764    0.8991577645
 H    0.5677764039   -0.3639999199   -0.8818531443
 H    0.5842634187   -0.3731488314    0.8713878164
 H   -1.9022469875   -0.0480078954    0.8979663160
 H   -1.9187750227   -0.0388096147   -0.8582482569
 H   -0.9617440570   -2.3708061756   -0.8778244638
 H   -0.9450249798   -2.3800330293    0.8748980603
 H   -3.8849717019   -1.1218621576    1.3071351162
 H   -4.6648631914   -2.7100615399    1.3283137471
 H   -3.1389125823   -2.4664878468    2.1932318323
 H   -3.1803406031   -2.4433726631   -2.1548965283
 H   -4.6895403054   -2.6964719901   -1.2637093588
 H   -3.9093690399   -1.1084250442   -1.2404267970