20

 C    0.0904168137    1.5227781689    0.2094756447
 C    1.5257317925    1.9409011877   -0.1866933377
 N    2.0312088638    0.8992706357   -1.1102004662
 C    2.5025310981   -0.3665454235   -0.5200877498
 C    2.7431916487   -0.6415125443    0.9548163906
 C    1.5198517708   -0.4204197881    1.8657735874
 O    0.2950366373   -0.7438937538    1.2353975311
 C    0.0536106658   -0.0148523400    0.0336354851
 C    1.1161581120   -0.2589065854   -1.0407665591
 H   -0.2126768283    1.8328740263    1.2132952224
 H   -0.6195096420    1.9638685919   -0.4974148605
 H    1.5346135774    2.8965560247   -0.7190610175
 H    2.1869404658    2.0552080221    0.6792694954
 H    3.2439004556   -0.8439222941   -1.1586178338
 H    3.0474576536   -1.6928308837    1.0175085372
 H    3.5904170317   -0.0524567457    1.3280546490
 H    1.5842788200   -1.0732496421    2.7407267495
 H    1.4976453098    0.6127802956    2.2400401515
 H   -0.9297289983   -0.3600383967   -0.2918356945
 H    0.8183855620   -0.7160004956   -1.9802345946