22

 C   -0.1911658685    1.5156324616    0.1269396602
 C   -0.0655152789    0.0009945684    0.0400354326
 C    0.7459484613   -0.6011654703    1.1841271370
 O   -1.4080648366   -0.5243303707    0.0643977327
 C   -1.6218486176   -1.6889005555   -0.5666757596
 N   -2.7295918365   -2.2814241172   -0.4785876279
 C   -2.9057683924   -3.5280115929   -1.2019964917
 C   -3.4589905152   -4.5757757517   -0.2303773748
 O   -4.6473240843   -4.1242884559    0.3812716765
 H    0.7979547725    1.9809825215    0.0897894830
 H   -0.7904653107    1.9008720139   -0.7017586662
 H   -0.6748535179    1.8041813165    1.0648892460
 H    0.3937294399   -0.2724555086   -0.9209465772
 H    1.7652023823   -0.2026622510    1.1815581190
 H    0.2807494369   -0.3621112430    2.1452088364
 H    0.8054385667   -1.6900190149    1.0942505613
 H   -0.7711461524   -2.0493286280   -1.1670313059
 H   -3.6483463167   -3.3675659557   -1.9942085520
 H   -1.9776880685   -3.8946346939   -1.6731794880
 H   -3.6964304651   -5.5000714978   -0.7687161371
 H   -2.6836008796   -4.8134902234    0.5180054067
 H   -4.4711720388   -3.2063788014    0.6284561790