25

 C   -0.2835627680    1.8208286399   -0.4836163188
 C   -0.1638803062    0.3476473047   -0.0791879394
 C    0.7454723932   -0.4797539519   -0.9919483022
 C    2.2359271997   -0.0523932686   -1.0047305720
 C    3.0087095263   -1.3085337269   -1.4614342944
 C    3.9108689767   -2.0640768448   -0.4359585350
 C    3.0668776080   -3.3529530832   -0.6523712068
 C    2.0123166027   -2.5146813920   -1.4257148241
 C    0.8083365809   -1.9788811533   -0.6329570687
 H    0.6860465768    2.3278563097   -0.4460749899
 H   -0.6690511933    1.9199031030   -1.5048018074
 H   -0.9651170250    2.3603676059    0.1816661552
 H    0.2116946488    0.2793321320    0.9514813810
 H   -1.1642120334   -0.1048146391   -0.0676397879
 H    0.3637760855   -0.3986508684   -2.0212980995
 H    2.4125647951    0.8122657050   -1.6508401450
 H    2.5432231534    0.2423411171    0.0075891344
 H    3.5067975837   -1.1661896830   -2.4233102970
 H    4.9733886400   -2.1356167832   -0.6814959231
 H    3.8256813607   -1.6568562258    0.5760395290
 H    3.5741642733   -4.0802519136   -1.2921019032
 H    2.7165121514   -3.8747761476    0.2430456348
 H    1.6986825527   -2.9205139270   -2.3916031644
 H    0.9854270914   -2.0831119261    0.4468025847
 H   -0.1246992544   -2.5067127028   -0.8545439505