17

 C   -0.0024215675    1.5236229569   -0.0154576603
 N    1.5133141388    1.5513094454    0.0048611304
 C    1.5434199906    0.0629478724   -0.0536671326
 C    1.4939992295   -0.6830154883    1.2965280998
 O    0.0286594176   -0.7350273151    1.2474866222
 C    0.0377023042   -0.0311421672   -0.0027151300
 C    0.0430445714   -0.8984037121   -1.2694715243
 N    0.6976768701   -0.0660484010   -2.3013268795
 C    1.5517908577   -0.7888647286   -1.3316706468
 H   -0.4391398584    1.9713471372    0.8810256937
 H   -0.4517585998    1.9553794195   -0.9130557300
 H    1.8934070005    1.9737752078   -0.8355974259
 H    1.9291119111   -1.6882222517    1.3315651773
 H    1.8500633168   -0.0880063790    2.1430647417
 H   -0.6182871474   -1.7131377234   -1.5406598223
 H    0.7005840449   -0.6031606023   -3.1670238483
 H    2.3001005401   -1.4925538504   -1.6801323049