18

 O    0.0267954202    0.0570110707   -0.0261604883
 C    0.0353565326    1.2564198254    0.0017097153
 C   -1.1510792759    2.2516539251    0.0774696841
 N   -0.4285305547    3.5594136672    0.0966990598
 C    0.6111270702    3.3020067669   -0.9838075756
 C    1.2067666024    2.2365890819   -0.0128249672
 C    0.6830800846    3.2231412050    1.0490063744
 C    1.4172329429    4.2595271405    1.8242880867
 C    0.5884861163    3.1933456873    2.5330585768
 H   -1.8147483711    2.1778765257   -0.7885185014
 H   -1.7404304086    2.1116958917    0.9869186524
 H    0.2059383490    2.9726794265   -1.9444700186
 H    1.2494808746    4.1771018471   -1.1105578955
 H    2.2154200383    1.8306831327   -0.0557975946
 H    2.4982097647    4.1948729751    1.8892150100
 H    1.0183069782    5.2680253626    1.8046081188
 H   -0.3467262795    3.5081575703    2.9842532585
 H    1.1100076556    2.4091373585    3.0717798544