18

 N   -0.1438675577    1.2402100905    0.0127410873
 C   -0.0624442252   -0.0156522125   -0.0674903333
 O   -1.1591614963   -0.7752841386    0.1541747538
 C   -0.9833375710   -2.1586593208    0.1149404539
 C   -0.2622306713   -3.0721702408    1.1207840136
 C   -0.8833730483   -4.0148377125    0.0653001225
 C   -2.1755079462   -3.1355317989   -0.0853587105
 C   -2.0559008032   -3.0920119330   -1.6230366187
 C   -0.5948433395   -3.0414258739   -1.1290275304
 H    0.7613847066    1.6590330086   -0.1911905463
 H    0.8320333451   -0.6009945368   -0.3144412425
 H    0.8306422132   -3.0202645891    1.1527517188
 H   -0.6831652773   -3.1169127304    2.1294921906
 H   -0.8457892511   -5.1001117207    0.0155366365
 H   -3.0613655200   -3.1877009652    0.5481160319
 H   -2.3578911510   -3.9938005574   -2.1634570429
 H   -2.4394384268   -2.1962864193   -2.1184325054
 H    0.3345273900   -2.9898519793   -1.6982394690