19

 C   -0.0086900701    1.5328603834    0.0025628884
 C   -0.0106091047    0.0143146050    0.0881447676
 O    0.0866545429   -0.5747156203    1.1485064352
 N   -0.1480539273   -0.6351830109   -1.1117798822
 C   -0.1778860865   -2.0715797796   -1.2228460301
 C   -1.4171911665   -2.8099893608   -1.8140177809
 N   -0.5600724025   -3.5656482743   -2.7963498728
 C    0.0215974912   -2.5331186876   -3.6647757805
 C    0.6301206516   -2.7348289299   -2.3322954552
 H    0.0971159212    1.9166497161   -1.0156825341
 H   -0.9447767846    1.9116929489    0.4240328424
 H    0.8065377024    1.9160138518    0.6197763574
 H   -0.2067098986   -0.0883302102   -1.9550041366
 H    0.0743765228   -2.4559155722   -0.2351590741
 H   -1.8990595475   -3.4936419210   -1.1134538486
 H   -2.1785726160   -2.1828773147   -2.2905276769
 H    0.5567398576   -2.9402672026   -4.5171181056
 H   -0.5631495468   -1.6415634613   -3.8893334468
 H    1.6179421113   -3.1682219599   -2.2122941565