16

 C   -0.1192236460    1.7470308713   -0.3710107742
 C    0.1575396040    0.2631882541   -0.1153749798
 O    1.1276333773    0.1904145285    0.9132504140
 C    1.7073269259   -1.0115755110    1.1381175772
 N    2.5637716117   -1.1271477849    2.0540063503
 C   -1.1182025216   -0.4843435209    0.2766948728
 O   -1.2961567665   -1.0073345302    1.3487778013
 C   -2.2204752321   -0.6200049694   -0.7857485556
 O   -2.1016767982   -0.2566422061   -1.9262173996
 H    0.8222192710    2.2445340560   -0.6130328395
 H   -0.8123680360    1.8676824131   -1.2044818420
 H   -0.5358038189    2.2153316323    0.5247305598
 H    0.5348879783   -0.1950392974   -1.0420565289
 H    1.3694936135   -1.8000865293    0.4525464631
 H    2.9146403469   -2.0819052629    2.0859642408
 H   -3.1268664493   -1.1248037333   -0.3912520295