19

 C   -0.1840396429    1.5670053284   -0.0015069312
 C    0.0185877299    0.0513898643   -0.0089829888
 C    0.9257230290   -0.4664419013   -1.1212554458
 C    1.3839418410   -1.9116546212   -0.7799759648
 O    2.6841505097   -1.6948950623   -1.4285044780
 C    2.4163173381   -0.4666440204   -0.6620211229
 C    1.9010045823   -1.2945594826    0.5503176383
 C    0.7936605830   -0.5202313593    1.2411612372
 O    1.4040197380    0.4647543366    2.0631325758
 H    0.7667091998    2.0977042628    0.0934430211
 H   -0.6685576877    1.8932482417   -0.9272437262
 H   -0.8272889667    1.8827343725    0.8280544497
 H   -0.9629650492   -0.4344436660   -0.0804478653
 H    0.7095416095   -0.2280157116   -2.1627618124
 H    0.8769616053   -2.8618561631   -0.9542319330
 H    3.1632649655    0.3254534567   -0.6919738175
 H    2.6204149630   -1.8513578866    1.1481986931
 H    0.1477055671   -1.1719229151    1.8468197085
 H    0.7120198853    0.9400568567    2.5331287822