20

 C    0.0318793301    1.4810891456    0.0048784565
 C    0.1335665662   -0.0193594538   -0.0474960623
 C    0.2019838780   -0.7463191074   -1.3782430167
 C    0.1145349314   -2.1674511087   -0.8710915644
 C   -0.7149461107   -2.1835808378    0.3862014125
 C    0.7818229230   -2.2861243326    0.4908609831
 C    0.7656159507   -0.8403925400    1.0287476152
 C    1.5288010340   -0.3716390125    2.2276733566
 N   -0.7363672533   -0.7743348216    0.9260069537
 H    0.9217324408    1.9501561144   -0.4293752163
 H   -0.8417632173    1.8258490301   -0.5585781119
 H   -0.0777150178    1.8353925859    1.0322184364
 H   -0.6359701435   -0.4807136972   -2.0330690961
 H    1.1375094731   -0.5334301003   -1.9079388795
 H    0.1039394543   -3.0269452788   -1.5296673601
 H   -1.5157867104   -2.8715785184    0.6217672324
 H    1.4218072960   -3.0983876929    0.8067294426
 H    2.6045121988   -0.3427819424    2.0164567120
 H    1.2144017811    0.6296360024    2.5331039620
 H    1.3709042956   -1.0458303541    3.0767716142