17

 C    0.0717249973    1.4535027965    0.0003464737
 N   -0.0216027981    0.0089066879    0.0174426555
 C    0.5486552999   -0.6195225854   -0.9074509374
 O    0.4772428969   -1.9689456734   -0.9693817108
 C    1.2435240890   -2.6235843640   -1.9559140891
 C    2.4257200476   -3.4861676216   -1.4640326165
 O    1.8975626176   -4.6416147266   -2.1472609233
 C    0.6561509174   -3.9629799929   -2.4310408065
 H    0.6577995262    1.8564864975   -0.8421108524
 H   -0.9342666969    1.8858912667   -0.0438059481
 H    0.5267714119    1.8025255391    0.9340916847
 H    1.1237382421   -0.1591955349   -1.7270196243
 H    1.5023098042   -1.9345539189   -2.7663516700
 H    3.4287875369   -3.2197469749   -1.8146752615
 H    2.4317558598   -3.6083628735   -0.3733231257
 H   -0.1671867747   -4.3073120811   -1.7927376140
 H    0.3686338629   -4.0445910907   -3.4844464042