16

 C   -0.0255666451    1.4416340923   -0.0042964851
 N   -0.0178717059   -0.0050643297    0.0306690239
 N   -0.0200353306   -0.6971751336   -1.1029169160
 C   -0.0182966690   -1.9897778827   -0.7591069257
 C   -0.0156332183   -2.1448575318    0.6421150372
 N   -0.0704566625   -3.2815307795    1.4035830355
 C   -0.0088662556   -0.8304970742    1.1388749394
 C    0.0530269670   -0.4218093034    2.5123977545
 O    0.0867455999   -1.2141812414    3.4463067831
 H    0.8671380565    1.8522426004    0.4786782991
 H   -0.0355317599    1.7346073533   -1.0534220526
 H   -0.9143824264    1.8421852275    0.4936186789
 H   -0.0221347203   -2.7513680593   -1.5240739591
 H    0.3021070300   -4.1262239116    1.0011246490
 H    0.1307185666   -3.1308481375    2.3836444620
 H    0.0806330334    0.6718340012    2.7028351859