15

 C   -0.2836038020    1.3147413931    0.3503466955
 O   -0.1644190698   -0.0933892855    0.1380912137
 C    0.5658293354   -0.4822908687   -0.9966685596
 C   -0.0092746844    0.0031183597   -2.3507442405
 O   -1.0513463467    0.5862665603   -2.4557422784
 C    2.0514052508   -0.0363401329   -0.8524206479
 O    2.7388951468    0.3692766197   -1.7467621298
 C    0.5966537942   -1.9423966926   -1.0571519102
 C    0.6693311952   -3.1375703327   -1.1601912676
 H    0.6879066808    1.8247814329    0.2848599928
 H   -0.9764186266    1.7683773010   -0.3613434398
 H   -0.6662853803    1.4292588890    1.3660314282
 H    0.6281417626   -0.2563210994   -3.2173785844
 H    2.4083513029   -0.1460749876    0.1940472261
 H    0.7152284910   -4.1966913362   -1.2363344681