15

 N    0.2223974158   -1.1784897252   -0.2389958094
 C    0.1548693834   -0.0383267203   -0.0593969269
 C    0.0902004475    1.3853313925    0.1268481020
 C    0.1597876561    2.3259456644   -1.0623432063
 C    1.2837967717    2.3028358319   -0.0521769888
 C    1.2109310652    3.2587614245    1.1265863295
 C   -0.2376930498    3.0868567421    1.6323419394
 O   -0.6630891603    1.7756271578    1.2425145530
 H    0.3558866835    1.8802923855   -2.0305313923
 H   -0.5374965526    3.1566133919   -1.0779603573
 H    2.2444383286    1.9036584149   -0.3524197879
 H    1.9343326859    2.9486724338    1.8866357102
 H    1.4234876115    4.2980343632    0.8604265316
 H   -0.3329066163    3.1546161546    2.7184764096
 H   -0.9009954001    3.8384827885    1.1852053536