21

 C   -0.2104728432    1.5418055464   -0.0066678184
 C    0.0325650286    0.0332707119   -0.0162315806
 C    0.7672018788   -0.5086715498   -1.2907599188
 C    1.9077683602   -1.3452057624   -0.6859344984
 O    2.8986304899   -0.4624049290   -0.1470916862
 C    2.3259301035    0.0949513157    1.0581257363
 C    0.9247965109   -0.5256204203    1.1291560318
 C    1.2676216319   -1.9293245393    0.5925464318
 O    0.1087822711   -2.7151238001    0.4074011885
 H    0.7126136770    2.1130067092   -0.1496377395
 H   -0.8924941763    1.8231536344   -0.8160553335
 H   -0.6656008507    1.8679904808    0.9353536186
 H   -0.9354656780   -0.4676198505    0.0651615642
 H    0.1035195365   -1.1146317780   -1.9132593806
 H    1.1829480329    0.2922517588   -1.9085783986
 H    2.4062061140   -2.0404750903   -1.3649385267
 H    2.9457365275   -0.1879535230    1.9194986996
 H    2.3204430473    1.1878144666    0.9914162359
 H    0.4697061080   -0.4873828081    2.1203789223
 H    2.0113579300   -2.4462022377    1.2140290440
 H    0.3723514503   -3.5445925351   -0.0024480516