19

 C   -0.2437818752    1.5527477572    0.2153234017
 C    0.0356957963    0.0749688714    0.0536273453
 O    1.1653452425   -0.1571860231   -0.8473750793
 C    1.8236595372   -0.9989648421    0.1182722434
 C    0.7412085259   -0.7255512347    1.1915469243
 O    1.1485308116    0.0794000831    2.2722080076
 C   -0.1824844972   -1.9004561267    1.5709686205
 C   -1.2535226820   -1.8508545156    0.5049587965
 C   -1.1457142827   -0.7921552955   -0.2980935692
 H    0.6403869640    2.0669261783    0.5974451109
 H   -0.5104877399    1.9853251987   -0.7547130901
 H   -1.0734602242    1.7187106911    0.9089641341
 H    1.9034264376   -2.0397139239   -0.2226646164
 H    2.8182469465   -0.6190520738    0.3808234711
 H    1.6573276448   -0.4648858229    2.8824551057
 H    0.3414208076   -2.8650261418    1.5923560876
 H   -0.6011094829   -1.7409183512    2.5735600198
 H   -2.0237555245   -2.6115146792    0.4293946840
 H   -1.8059907957   -0.5583582494   -1.1260608076