11

 O   -0.0857771511   -0.0121536255    0.0039826280
 C    0.0306812314    1.1695412977    0.0088435466
 O   -1.2034068219    1.9235963541    0.0297932296
 C   -1.1869362497    3.2556474877    0.0368241480
 C   -0.0316171915    3.9638538602    0.0249446363
 C    1.1679799962    3.1884151537    0.0045085439
 N    1.2085580972    1.8913092399   -0.0031387856
 C   -2.4852105385    3.8618377714    0.0577434655
 N   -3.5215198510    4.3744770376    0.0745947296
 H   -0.0279117937    5.0436203806    0.0307185670
 H    2.1282085125    3.7032498028   -0.0057848189