17

 C   -0.0691391261    1.4184236127   -0.1059084708
 N   -0.0475046013   -0.0076429661    0.1631772985
 C   -1.2171736855   -0.7198113595    0.0754528138
 N   -2.4137218214   -0.1542332745    0.0659123854
 N   -3.2359930379   -1.2658301076    0.0338396894
 C   -2.4866109806   -2.3786979368    0.0094345150
 O   -3.0617742721   -3.5780808292   -0.0344591015
 C   -2.1549033978   -4.6859785422   -0.0437542910
 N   -1.2021064297   -2.0947094313    0.0338643371
 H    0.9326162620    1.8239133649    0.0535017366
 H   -0.3977880001    1.6638229279   -1.1265717185
 H   -0.7567682545    1.9077882555    0.5885036944
 H    0.7459684494   -0.5182012126   -0.1918810856
 H   -4.2356176487   -1.1705764497    0.0192041131
 H   -1.5048914724   -4.6442551862   -0.9218960964
 H   -1.5347479679   -4.6834221822    0.8566204181
 H   -2.7809433554   -5.5779144129   -0.0743337075