19

 C   -0.2106451592    1.4826053949   -0.0585475845
 C    0.0286539586   -0.0212124655   -0.0739842898
 C    1.2821501884   -0.4825349812   -0.8659760965
 N    2.0091328133   -0.6379887694    0.4200076775
 C    0.7576227926   -0.6020930086    1.1762134197
 C    0.6746604552   -0.0234511833    2.6042053665
 O    0.0636626456   -1.2705951352    3.0755653515
 C    0.1985063634   -1.8548894545    1.8348014362
 N   -0.0347848416   -3.0228105162    1.4401511854
 H    0.7016138802    2.0253650595    0.2104303773
 H   -0.5266264587    1.8276041216   -1.0487686282
 H   -0.9960920951    1.7602487821    0.6523886425
 H   -0.8868778810   -0.5592074698   -0.3263058938
 H    1.1183062100   -1.4202935420   -1.4082403095
 H    1.7339437291    0.2514189137   -1.5425260768
 H    2.5423773592   -1.4956015830    0.5210996765
 H    1.6424528797    0.1464832212    3.0825154898
 H    0.0066248888    0.8256399191    2.7653603667
 H   -0.3891607285   -3.6144989634    2.1936744096