20

 C   -0.0792972510    1.6112563698   -0.0257807048
 C    0.0379018627    0.1027364295    0.0432919004
 N    1.0493056009   -0.5650747490   -0.8663644790
 C    2.3809396391   -0.1190157532   -0.3432831348
 C    2.6754622186   -1.3832453879    0.4061295133
 C    2.2065713540   -0.1570795956    1.1749164763
 C    0.7235970468   -0.6215354227    1.2299332660
 C    0.0737629710   -0.9092027328    2.5581084727
 C    1.1806886127   -1.6936638250    0.1757882813
 H    0.8744421301    2.0957534556    0.2045564094
 H   -0.3890751683    1.9273164780   -1.0274482795
 H   -0.8258155347    1.9756779001    0.6880797938
 H   -0.9304300787   -0.3699676456   -0.1675184775
 H    3.0352491279    0.5569957232   -0.8777206286
 H    3.5683127055   -1.9886998494    0.4755190379
 H    2.7543538652    0.4713106475    1.8645332249
 H   -0.0636865822    0.0102981003    3.1396457964
 H   -0.9111921383   -1.3709906162    2.4272035295
 H    0.6868117488   -1.5892222843    3.1602745628
 H    0.6960893900   -2.6482666421   -0.0233159905