17

 C   -0.1638137351    1.5339974249   -0.0997895696
 C   -0.0632726234    0.0317537557    0.0284970861
 C   -1.1863285807   -0.7654102419   -0.5986361228
 O    1.2445585796   -0.5141089525   -0.1751242483
 C    0.6945717462   -0.5806513834    1.1543644942
 C    1.3327470908    0.1888750652    2.1823564170
 C    1.8582251883    0.8071711435    3.0817884039
 C    2.4489727038    1.5068110467    4.0864902145
 C    2.9727023529    2.1281590356    4.9799659549
 H    0.6780106518    2.0271816961    0.3886071351
 H   -0.1689797933    1.8174675539   -1.1576112460
 H   -1.0933455381    1.8974625794    0.3503716972
 H   -1.2472998412   -0.5493807021   -1.6707361482
 H   -1.0209048669   -1.8384331216   -0.4760425029
 H   -2.1487565220   -0.5026778779   -0.1477259598
 H    0.4039640708   -1.5865610509    1.4598681318
 H    3.4350740063    2.6745087894    5.7642247431