12

 N    0.0051099227    1.3532725904    0.1045481169
 C   -0.0190369855   -0.0008807270    0.0369201079
 C   -1.2217227719   -0.7473944617    0.0249934097
 N   -1.1936903516   -2.0581353365   -0.0014503731
 C    0.0352755644   -2.6099539930   -0.0137373621
 N    1.1936077846   -1.9485500445   -0.0102345371
 N    1.1689775657   -0.6292285702    0.0109877484
 C    0.1174256666   -4.0457439770   -0.0377552458
 N    0.1741986857   -5.2002284610   -0.0567918531
 H    0.8973169384    1.8009832483   -0.0359619851
 H   -0.8212740844    1.8861052089   -0.1045512321
 H   -2.1937805448   -0.2574138066    0.0365368254