21

 C   -0.2266919631    1.5474446874   -0.0171337391
 C   -0.0042490176    0.0364594140   -0.0085804355
 C    0.8729585994   -0.4867217468   -1.1680085277
 C    1.2987061055   -1.8724206719   -0.6639080016
 C    1.9771792273   -1.2786629113    0.5877303257
 C    2.8942789565   -0.2525502773   -0.0873078499
 O    2.1079060232    0.2526940099   -1.1841758327
 C    0.7876373161   -0.5223175695    1.2434389558
 O    1.1480550821    0.4286683579    2.2253873145
 H    0.7169931706    2.0868800435   -0.1453346069
 H   -0.8725839663    1.8345558898   -0.8530501254
 H   -0.7014832791    1.8820700258    0.9091947131
 H   -0.9800992901   -0.4603357149   -0.0578905788
 H    0.4288146736   -0.4177442871   -2.1622838214
 H    0.4568506420   -2.5315933730   -0.4358372036
 H    1.9899983566   -2.3807949548   -1.3406439255
 H    2.4934283366   -1.9656293803    1.2589289225
 H    3.1871197018    0.5721635817    0.5739136835
 H    3.8140410236   -0.7117115424   -0.4730057716
 H    0.1665146006   -1.2424123747    1.7840307254
 H    1.5387902007    1.1924598038    1.7901183591