16

 C   -0.2514409716    1.4829041672    0.1874321787
 O    0.0064720628    0.0920840717    0.2648151950
 C    0.5183764032   -0.4563336593   -0.9308236624
 C    1.0937934674   -1.8423700361   -0.5945183155
 C    2.2752343397   -1.7587422350    0.3556445634
 O    3.2886600635   -2.3933504693    0.2208178806
 C   -0.5918195024   -0.6232879446   -1.9706348027
 O   -0.4150694567   -0.6420509643   -3.1586277557
 H    0.6673232401    2.0493100231   -0.0225620807
 H   -0.9914696068    1.7235772438   -0.5896228047
 H   -0.6474443303    1.7887736521    1.1576955770
 H    1.3033351881    0.1824316389   -1.3650286103
 H    0.3044208793   -2.4255681043   -0.0996651901
 H    1.4002632967   -2.3684265824   -1.5014597454
 H    2.1335569457   -1.0604941965    1.2067837974
 H   -1.5981319087   -0.7623589249   -1.5103773447