22

 C    0.0057703852    1.5893124830   -0.0221053413
 C   -0.0027177527    0.0611549807    0.0733867908
 C   -1.4129341301   -0.5354012560   -0.0178442799
 C   -1.4517796094   -2.0636866896    0.0312293164
 C   -0.9319027166   -2.6761987204    1.3583123819
 N   -1.6486405787   -3.9357401391    1.4309045286
 C   -2.7901611116   -3.9959470753    0.6741241568
 O   -3.5849856519   -4.9096203248    0.6572960932
 C   -2.8545810427   -2.6822072932   -0.1110897247
 H    1.0228444250    1.9879783938    0.0420126981
 H   -0.4263569755    1.9279742177   -0.9702038007
 H   -0.5802313326    2.0398979915    0.7866305910
 H    0.6189843038   -0.3601945198   -0.7278461986
 H    0.4685676011   -0.2454887595    1.0161411487
 H   -2.0340460133   -0.1343092585    0.7959243563
 H   -1.8841859086   -0.2003122539   -0.9512646060
 H   -0.8232045351   -2.4584565232   -0.7772905074
 H    0.1511247723   -2.8331420920    1.3506604697
 H   -1.1679965245   -2.0204207464    2.2113589035
 H   -1.4718852034   -4.6374690716    2.1322287530
 H   -3.6212772459   -2.0507733781    0.3566240689
 H   -3.1652281548   -2.8613837754   -1.1419272584