16

 O    0.0675308342    1.4040195131    0.1011564043
 C   -0.0038927792   -0.0062847005    0.0230426641
 C   -1.4678353402   -0.4878079265   -0.0721295040
 C   -1.6984818284   -0.8573713271   -1.5592960911
 C   -0.3386718524   -1.4392150740   -1.9952360805
 O   -0.1111685700   -1.5240304226   -3.3709333851
 C    0.6074609060   -0.4738358607   -1.3042364010
 O    1.5917947735   -0.0002307498   -1.8217256285
 H    0.9192558274    1.6592651069   -0.2779585042
 H    0.5262535109   -0.4740251436    0.8677065846
 H   -1.6111938961   -1.3669161769    0.5637092767
 H   -2.1449624541    0.2916524501    0.2811150423
 H   -2.5233878250   -1.5565608749   -1.7075127186
 H   -1.9003182606    0.0377703707   -2.1574092024
 H   -0.2170510193   -2.4297145419   -1.5178395168
 H    0.7164307332   -1.0478443024   -3.5360156798