17

 C   -0.0558058188    1.5111944491   -0.1887555868
 C    0.0229498838    0.0069169950   -0.0094077625
 O    0.6503413418   -0.5321237957   -1.1848008408
 C    0.8117412821   -1.8680734814   -1.2147779096
 N    0.4298687686   -2.6157235970   -0.2546031216
 C    1.4456966389   -2.3028387710   -2.4274784505
 C    1.9749258703   -2.7149420045   -3.4286498182
 C    2.6134793685   -3.2076492957   -4.6377600938
 H    0.9420998205    1.9434727230   -0.3047766297
 H   -0.6463517834    1.7687746301   -1.0725253238
 H   -0.5290760420    1.9647486687    0.6872235210
 H    0.6113394388   -0.2737428010    0.8705653521
 H   -0.9666288088   -0.4472880373    0.1078796671
 H    0.6386508971   -3.5888586593   -0.4651641412
 H    1.9580766547   -3.9037254633   -5.1725312027
 H    2.8589763164   -2.3860606969   -5.3187570481
 H    3.5420684014   -3.7393405826   -4.4030869609