14

 N   -0.2541853011   -1.0292873529    0.3355385368
 C   -0.0947814797    0.0845841680    0.0769657103
 C    0.1182839277    1.4878082104   -0.2816826482
 N    1.3908165171    1.9682619679    0.2629834617
 C    1.6757010808    3.3132071455    0.1010203705
 C    2.7802063928    4.0308314876   -0.2350155153
 N    2.4860530684    5.3868155114   -0.1081801429
 C    1.2562463021    5.4206125421    0.2667528228
 O    0.6822339083    4.1891831907    0.4258774957
 H    0.0480705195    1.5826938129   -1.3770204385
 H   -0.6887413421    2.0890724084    0.1462861367
 H    2.1738011776    1.3846290078    0.0005289939
 H    3.7496364044    3.6800628681   -0.5483176149
 H    0.6223152843    6.2712002321    0.4564807616