18

 C    0.0710938520    1.5442551026    0.0346673264
 C   -0.0244061319    0.0543527833   -0.0059279305
 C    0.8898202369   -1.0091882994   -0.5776582674
 C    0.5107622066   -1.0253880200    0.9114468005
 C   -0.7696161570   -1.8899210585    0.8572249300
 C   -0.5144147944   -3.0260222771   -0.1641066260
 C   -0.2561417547   -1.8680434754   -1.1597826863
 C   -1.2020337334   -0.9289919036   -0.3164157094
 H    1.0871767925    1.8614945569    0.2953551843
 H   -0.1755392034    1.9904767163   -0.9362461700
 H   -0.6100797425    1.9716306611    0.7803002753
 H    1.9147866588   -0.9174627235   -0.9144776583
 H    1.2495054232   -0.9459124301    1.6990740573
 H   -1.3463835669   -2.0330097126    1.7702501774
 H    0.2912239639   -3.7404838512    0.0332378589
 H   -1.4380027219   -3.5633051213   -0.4050447962
 H   -0.3254542726   -1.9895140924   -2.2401484241
 H   -2.2304149852   -0.6872791950   -0.5755959519