19

 O    0.0479975530   -0.0401888918    0.1733131833
 C    0.0478213259    1.1535027374    0.2190476467
 O    1.0666376819    1.9028474651   -0.2348738662
 C    0.9709327089    3.3363624875   -0.1352717819
 C    2.1396094099    3.8593318205    0.6954222414
 C    2.0517942914    5.3863847447    0.8466751579
 C    1.6956844705    6.0649351754   -0.4507659946
 C    1.2284751645    5.4161872432   -1.5167003515
 C    0.9784399501    3.9294327475   -1.5443248333
 H   -0.7803717245    1.7615668971    0.6352534580
 H    0.0261384545    3.5929221945    0.3648048096
 H    2.1488417909    3.3691398337    1.6739068493
 H    3.0723577861    3.5861507894    0.1888709580
 H    1.3097963509    5.6507968712    1.6147638826
 H    3.0059822059    5.7750725179    1.2222461463
 H    1.8354981631    7.1421312846   -0.4958363181
 H    1.0031860920    5.9629977123   -2.4285405742
 H    1.7509242699    3.4183489459   -2.1352452884
 H    0.0270783753    3.7108565739   -2.0447007748