18

 O   -0.0154970666   -0.0127880850    0.2064474315
 C    0.0396876940    1.1962358098    0.1067885141
 N    1.1863164803    1.9038349325   -0.0208980313
 C    2.5299812954    1.3022985925    0.0261102787
 C    3.3887135774    2.5818939903    0.0216369724
 C    2.5542811991    3.5409356645    0.8864188616
 C    1.3358386005    3.3625805922   -0.0444174184
 C    1.9790394959    3.7319007023   -1.3932294009
 O    3.3029413736    3.1705427950   -1.2867221485
 H   -0.8564531421    1.8499159318    0.1109487308
 H    2.6552634425    0.6899727686    0.9260433740
 H    2.7272737523    0.6816825742   -0.8517187415
 H    4.4387126335    2.4376778780    0.2706304388
 H    2.3684067120    3.1858194221    1.9015087302
 H    2.9582674599    4.5546247166    0.8989387025
 H    0.4087011642    3.8798241737    0.1987143782
 H    1.4497803243    3.2840758218   -2.2404178029
 H    2.0447996436    4.8175280790   -1.5419354593