18

 C    0.2970239377    0.9253572917   -0.2717092075
 O   -0.4144486782    0.0286178771    0.5686276664
 C    0.4035440497   -0.6589073100    1.4428346126
 C    0.0269378244   -2.0637019588    1.8046506942
 O   -0.8593638089   -2.7110818387    0.9093439409
 C   -0.2033445929   -2.7455521884   -0.2777375252
 N    0.9925132233   -2.3162251098   -0.3337199089
 C    1.3055046787   -1.8052938665    0.9834576702
 C    2.7275147206   -1.9439382071    1.4546420486
 H    1.0201668910    0.3887922282   -0.8979656692
 H   -0.4427745300    1.4161507594   -0.9078264972
 H    0.8257924062    1.6902689953    0.3155385869
 H    0.8178267987   -0.0675700437    2.2628127720
 H   -0.0630946566   -2.4187326505    2.8236060463
 H   -0.7711421141   -3.1666187316   -1.0977392894
 H    3.4066336969   -1.4186358916    0.7755595406
 H    2.8511077751   -1.5215052897    2.4564125220
 H    3.0294067584   -2.9956971552    1.4869572568