14

 C   -0.1736975102   -1.1836317113   -0.5077565747
 C   -0.0837450095   -0.0409946238   -0.1474849647
 C    0.0270371300    1.3544332762    0.2742564256
 C    1.4207969616    1.9159047423    0.1492193807
 C    2.1227665207    2.6394320837    1.0913776056
 N    3.3126592807    2.9571670856    0.5249616174
 N    3.4441851346    2.4863189472   -0.7288336662
 C    2.2979075241    1.8545841659   -0.9594526509
 H   -0.2510876470   -2.1954617721   -0.8198137688
 H   -0.6769301800    1.9560094692   -0.3179203657
 H   -0.3097761064    1.4463559533    1.3140415531
 H    1.8696816486    2.9412876743    2.0958150987
 H    4.0714810668    3.4753917603    0.9334127883
 H    2.1343773061    1.3641209793   -1.9077997283