21

 C   -0.0714587484    1.4085443282    0.2996968352
 O   -0.0844474562    0.0086001121    0.4313982222
 C   -1.1933295567   -0.5886945639   -0.2029409902
 C   -1.0752754816   -2.0959253592   -0.1009341162
 C   -1.4773986885   -2.7337620097    1.2197824418
 C   -2.3742362219   -2.8825151879    0.0265188446
 C    0.0050408230   -2.6888786369   -0.8461245507
 C    0.9038336858   -3.1794695605   -1.4811276899
 C    1.9973206208   -3.7681715543   -2.2409379405
 H    0.8193205167    1.7775132696    0.8138911303
 H   -0.0276183310    1.7210412091   -0.7560527405
 H   -0.9615028338    1.8730917154    0.7551098502
 H   -2.1325670584   -0.2586505515    0.2744321374
 H   -1.2384205593   -0.2860421379   -1.2623021171
 H   -0.9085996816   -3.5957434647    1.5457374352
 H   -1.7790475449   -2.0615115525    2.0153698890
 H   -3.3022035974   -2.3209947508    0.0015796813
 H   -2.4141451503   -3.8436046281   -0.4713064260
 H    2.5177911331   -4.5381108927   -1.6600807104
 H    1.6418447680   -4.2357893429   -3.1663031530
 H    2.7383697826   -3.0098872313   -2.5177858328