23

 C   -0.0100322864    1.4522227795    0.0362718096
 C    0.0014155940   -0.0687278516    0.0384809736
 C    1.1167691474   -0.6422394211   -0.8328049279
 C    1.1038988488   -2.1687130532   -1.0370077297
 C   -0.3172400926   -2.7420949015   -1.1431582611
 C   -1.1987803365   -2.2407811245    0.0034753962
 C   -0.5250555330   -2.1802956337    1.4197077513
 C   -0.5262930324   -0.6532726207    1.3390086178
 C   -1.3589687494   -0.7042982726    0.0502961369
 H    0.9186978282    1.8549854626    0.4576656486
 H   -0.1072174487    1.8426727729   -0.9834483800
 H   -0.8432937484    1.8483286379    0.6254276637
 H    1.0222111514   -0.1564841897   -1.8149253146
 H    2.0937972594   -0.3299194145   -0.4409182296
 H    1.6796329794   -2.4169835402   -1.9353149955
 H    1.6242761120   -2.6562626636   -0.2062475731
 H   -0.7753808986   -2.4489281288   -2.0977652457
 H   -0.2708456669   -3.8379453993   -1.1404477048
 H   -2.1540219307   -2.7699966334    0.0221377076
 H   -1.2177128500   -2.5267142388    2.1915816845
 H    0.4298802448   -2.6928289537    1.5665314074
 H   -0.6622095329   -0.0003422315    2.1946481533
 H   -2.2608702791   -0.1597107405   -0.2069499783