13

 O    0.0670976991    1.3189124876    0.1012436929
 C    0.0603053312   -0.0169661523    0.0576949522
 N    0.0899615672   -0.5847544120   -1.1528398547
 C    0.0826281344   -1.9123944459   -1.1741452194
 C    0.0461686214   -2.6894335144   -0.0078881023
 C    0.0177841788   -1.9591722069    1.1917461485
 N    0.0244159401   -0.6334838699    1.2382550291
 C    0.0385188087   -4.1076222716   -0.0373353048
 C    0.0320203408   -5.3115327921   -0.0622012751
 H    0.0939677858    1.6216564093   -0.8170437918
 H    0.1064296868   -2.3892350510   -2.1503974292
 H   -0.0113351013   -2.4816179296    2.1446013257
 H    0.0262648218   -6.3732355513   -0.0832829309