22

 C    0.8994092592    1.4122486074   -0.5234781388
 C    0.2049999458    0.1459802939    0.0016568775
 C    0.1070252918   -1.0093199355   -1.0401036278
 N    1.0303906066   -2.1005164049   -0.6696448184
 C    2.4254380307   -1.6711343820   -0.5019297387
 C    1.5315532384   -1.7977744687    0.6804407803
 C    0.8641579686   -0.5482988012    1.2390333560
 C    1.7966892666    0.3083409115    2.0865214630
 O    1.0272785034    1.3507040698    2.6759740587
 H    1.9201334599    1.2342821542   -0.8758002067
 H    0.3354538960    1.8189091948   -1.3696376160
 H    0.9381454003    2.1772936049    0.2563058366
 H   -0.8064582824    0.4503389278    0.2853829291
 H   -0.9010981293   -1.4372015428   -1.0434050453
 H    0.3198651047   -0.6702091819   -2.0599215907
 H    3.1605459079   -2.4453899229   -0.7046948849
 H    2.7169867908   -0.6815521185   -0.8394851477
 H    1.6541709477   -2.6457304094    1.3500829284
 H    0.0599380610   -0.8794043299    1.9078664275
 H    2.2600867949   -0.3224936246    2.8616615645
 H    2.6113024349    0.7142043425    1.4690497166
 H    1.6139318624    1.8900535855    3.2143590169