17

 C    0.1902299013    1.5405361990    0.0681039265
 C   -0.0337522551    0.0322166329   -0.1025799338
 C   -1.4728484580   -0.3678385407   -0.0155378358
 O   -1.8959852735   -1.6031653183   -0.5943556990
 C   -2.5778616117   -0.4069036601   -0.9793065103
 C   -3.6010065283   -0.0209130265    0.1477983761
 N   -3.5244371605   -1.0579601698    1.2042148735
 C   -2.4980145480    0.0097054268    1.1317022445
 H    1.2536532655    1.7835671511   -0.0103991079
 H   -0.3439107933    2.1083195133   -0.7003993695
 H   -0.1565031122    1.8922433502    1.0451690372
 H    0.3480646421   -0.3031320164   -1.0729571369
 H    0.5327631226   -0.5159833677    0.6621483257
 H   -2.6349841205   -0.1674303889   -2.0347365416
 H   -4.4559050121    0.6323560645    0.0363057953
 H   -4.1810741411   -0.7725165512    1.9323398568
 H   -2.3174868873    0.6907194618    1.9527968991