21

 C    0.7787112007   -0.1740437764    1.3291209495
 C   -0.0037293254   -0.0801143672    0.0136346851
 C   -1.4092015094   -0.6683180479    0.0609342535
 C   -2.3546799949    0.0392215488    1.0348605241
 O   -2.5861717698    1.3702416016    0.6227372475
 O   -2.0330874069   -0.5911116116   -1.2663898531
 C   -2.2492163662   -2.0159374493   -1.3042470639
 C   -1.5479664417   -2.2150011939    0.0570050736
 O   -0.3070367369   -2.8818555109    0.0299468095
 H    1.7914146910    0.2172050733    1.1928875675
 H    0.3108853423    0.4106827661    2.1272305610
 H    0.8625732687   -1.2118396869    1.6620224735
 H   -0.1110844679    0.9676370454   -0.2872083773
 H    0.5457199084   -0.5922756271   -0.7806229429
 H   -3.2980656946   -0.5287478259    1.0950954714
 H   -1.9288598599    0.0781022265    2.0423894488
 H   -2.8472865249    1.3078347595   -0.3054862425
 H   -3.3149777098   -2.2738357998   -1.3415672223
 H   -1.7260822889   -2.4885139915   -2.1440803626
 H   -2.1922580067   -2.6066640784    0.8547282704
 H   -0.4706409373   -3.8298996043    0.0237035792