20

 C    0.2914950936    1.1794780694    0.4178677808
 O    0.1777754589   -0.1952867946    0.1369798792
 C    0.5403997343   -0.5526817205   -1.1868682627
 C    2.0638662163   -0.6840400153   -1.3628029357
 O    2.4060390537   -2.0421016226   -1.0922168149
 C    1.2240345373   -2.7831317664   -0.8046235000
 C    0.0719658791   -1.9971354938   -1.4417647541
 C   -1.3222449925   -2.3426087778   -0.9284329755
 H    1.3276985002    1.5420452284    0.3436648253
 H   -0.3315752578    1.7834389401   -0.2607733896
 H   -0.0547325234    1.3296814938    1.4433728796
 H    0.1047784017    0.1648173747   -1.8980757243
 H    2.3672794604   -0.4318357850   -2.3887753729
 H    2.6056298700   -0.0215845537   -0.6765699129
 H    1.3414028540   -3.7900528584   -1.2181874273
 H    1.0748831164   -2.8689467909    0.2827113245
 H    0.1166890556   -2.1558045127   -2.5268571189
 H   -1.4016544751   -2.1428947110    0.1420396655
 H   -2.0886319690   -1.7503259041   -1.4387066335
 H   -1.5487737237   -3.3993967294   -1.1039865123