19

 C    0.1417317557    1.6329488114   -0.1285706575
 C    0.0639944183    0.1299854056    0.0253456070
 C   -1.3332698959   -0.4623895571    0.3995839160
 C   -0.7046609805   -1.0611073195    1.6715053592
 O   -1.1604873991   -1.5557698628    2.6623344456
 C    0.7052011311   -0.6749370789    1.2374863633
 C    1.2874157713   -1.6975651725    0.2026323349
 C    0.8479369013   -0.7612614356   -0.9615369281
 O    0.0573015694   -1.2907998171   -2.0003929816
 H    1.1793461760    1.9749869918   -0.2083014198
 H   -0.3881730229    1.9577784960   -1.0316437359
 H   -0.3138557109    2.1456454786    0.7258377991
 H   -2.1052563831    0.2834402927    0.6113399281
 H   -1.7349632628   -1.1902646668   -0.3093847094
 H    1.3961591636   -0.2625413843    1.9731210003
 H    2.3623526807   -1.8666159260    0.2894255823
 H    0.7796897085   -2.6656524036    0.2001917037
 H    1.7108325292   -0.2121142484   -1.3662871060
 H    0.6145711201   -1.8343489637   -2.5663448209