23

 C    0.2113955098    1.5715756535   -0.1197253199
 C    0.0986042062    0.0716838387    0.0664161636
 O    0.9415417979   -0.6636965576   -0.8510324446
 C    1.4094318703   -1.5403152703    0.2022454833
 C    2.8928446012   -1.7497376326    0.1728981088
 C    3.4810594207   -2.9807263013    0.8240527844
 C    3.4652761424   -2.8588288974   -0.6760587522
 C    0.7460251756   -0.6421487805    1.2873402392
 C    1.6643540496    0.1716322012    2.1916923048
 H    1.2407314984    1.9175357315    0.0034304004
 H   -0.1171798893    1.8423712425   -1.1282705606
 H   -0.4263455387    2.1002480914    0.5971185225
 H   -0.9523539884   -0.2303283595   -0.0625583159
 H    0.9131769907   -2.5220016315    0.1302266271
 H    3.4828539509   -0.8407287785    0.2306330728
 H    4.4269847593   -2.8794262170    1.3438210193
 H    2.7971960102   -3.6874288976    1.2832430095
 H    2.7678313438   -3.4783875351   -1.2299195197
 H    4.4018688763   -2.6746484827   -1.1898146114
 H    0.0210866489   -1.1809467797    1.9036568438
 H    2.4115265551    0.7390104346    1.6300213636
 H    1.0872980041    0.8853894798    2.7890122455
 H    2.2009556450   -0.4838888220    2.8850143959