14

 C    0.0759029053    1.4614309156    0.0040811823
 N   -0.0038146838    0.0091745712    0.0040080718
 N    0.0319900129   -0.5990814904   -1.1920877356
 C    0.0550984295   -1.8952625028   -1.2049321618
 C    0.0560278930   -2.7274581569   -0.0089728468
 N    0.0663801526   -4.0123675874   -0.0950503018
 C    0.0474781595   -1.9042801861    1.1943252260
 N    0.0249248842   -0.6062454722    1.1893944502
 H    1.1154167603    1.7980911402   -0.0785849450
 H   -0.4911622634    1.8411826632   -0.8459528191
 H   -0.3481469968    1.8248670356    0.9392818603
 H    0.0734312196   -2.3709249190   -2.1804919088
 H    0.0667200009   -4.4315547241    0.8381226402
 H    0.0594978162   -2.3711321570    2.1764278182