16

 C    0.0460316680    1.5796211723   -0.0477561218
 C   -0.0383218740    0.0473884775    0.0608784274
 C    0.6415006159   -0.4746695388    1.2959046264
 C   -0.0205639051   -1.0412905693    2.3386182482
 C    0.7129432522   -1.5015463570    3.4941691550
 O    0.2982913843   -2.0256781837    4.5072092623
 N    2.0937837627   -1.2625700479    3.3195261633
 N    2.7174001498   -0.7040517722    2.2780681557
 N    2.0244043418   -0.3132247043    1.2844905266
 H    1.0887521477    1.9066681341   -0.0413626950
 H   -0.4183210863    1.9213389854   -0.9768334894
 H   -0.4694960534    2.0614563295    0.7887762667
 H   -1.0826741627   -0.2787859414    0.0569937064
 H    0.4512102921   -0.4018128496   -0.8108790125
 H   -1.0969414925   -1.1665191523    2.3399777072
 H    2.7128002397   -1.5480079121    4.0687807734