18

 C   -0.0016709844    1.3364580701   -0.0228254874
 O    0.0139226861   -0.0712521626   -0.0781118181
 C   -1.2648545930   -0.6419031832    0.1124468878
 C   -1.1185000791   -2.1273783839    0.0738352338
 N   -0.3986225419   -2.9416736896    1.1077729701
 C   -0.8596196442   -3.9718701336    0.1205602774
 C   -2.2072544775   -3.2290136661   -0.1143149347
 O   -2.1167668085   -3.2472523847   -1.5668530753
 C   -0.7365208373   -3.0519531351   -1.1368433657
 H    1.0232217050    1.6805064385   -0.1803914616
 H   -0.6467697324    1.7679732151   -0.8042258107
 H   -0.3543231054    1.7022634901    0.9542147205
 H   -1.6915341871   -0.3320476324    1.0807462579
 H   -1.9628909992   -0.3288275314   -0.6821765993
 H    0.6094370218   -2.7920023333    1.0232429683
 H   -0.6727999025   -5.0406670449    0.2219896746
 H   -3.1781076120   -3.3521060273    0.3634701865
 H    0.0460997215   -2.9556715758   -1.8899916041