18

 O    0.0449656658    1.4231418637   -0.0940136724
 C    0.0393504803    0.0149760732    0.0051693004
 C    0.6880425913   -0.5552644848    1.2855230313
 C    0.0751075470   -1.9604860441    1.4150711782
 C   -1.3789574342   -1.7790740166    0.9520120546
 N   -2.2444082254   -1.0383857753    1.8777521866
 C   -2.3357317286    0.1094225370    1.1223210599
 O   -2.9350518868    1.1364446023    1.2771969100
 C   -1.4046545584   -0.5085453684    0.0381486651
 H    0.9603416328    1.7189826006   -0.1190362557
 H    0.5376082453   -0.4355519925   -0.8706298198
 H    1.7808623579   -0.5667465782    1.2356382921
 H    0.3992977109    0.0762791051    2.1322759923
 H    0.5771325080   -2.6618809912    0.7376991396
 H    0.1481887881   -2.3767459847    2.4243341383
 H   -1.8395056596   -2.6896145935    0.5593115179
 H   -2.6525201315   -1.2868699285    2.7674741447
 H   -1.8683596929   -0.5917968041   -0.9445441731