15

 C    0.2185132309    1.5283232474    0.1567782301
 C    0.0149344073    0.0081637955    0.0925328233
 O    0.5411551236   -0.6657458893    1.2290804565
 C   -1.4980769748   -0.3413766452    0.1227911342
 O   -2.3625691848    0.3864685620   -0.2723898192
 C    0.5555144284   -0.5446295569   -1.1517592311
 C    1.0243612052   -1.0193804568   -2.1598447729
 C    1.5615785506   -1.5652521285   -3.3827684788
 O    2.5544396652   -2.2522846135   -3.4401053124
 H    1.2767165728    1.7778018805    0.0455017830
 H   -0.3525069759    2.0174451109   -0.6345537692
 H   -0.1355874497    1.8890735741    1.1253907747
 H    1.4994449109   -0.7110604769    1.1410320084
 H   -1.6890873044   -1.3438882885    0.5567732509
 H    0.9817479846   -1.3000177247   -4.2891230274