20

 C   -0.0335587713    1.4806180614    0.0703130019
 C    0.0735228761   -0.0277337814    0.0490825893
 C    0.6600303411   -0.7133925994   -1.1515139174
 C    1.4462731874   -0.6717666780    0.1432828991
 C    1.4544490578   -2.0786432921    0.6786811789
 O    2.0520655895   -2.5035091411    1.6431673945
 N    0.6282336800   -2.8126769594   -0.1454724283
 C    0.2744791725   -2.1732044449   -1.4089450534
 C   -1.1857625326   -2.3957987748   -1.8046114421
 H    0.7998128048    1.9448592237   -0.4672764467
 H   -0.9629908097    1.8154138619   -0.4031916406
 H   -0.0224034049    1.8630823961    1.0961985621
 H   -0.7250545906   -0.5485172371    0.5716299781
 H    0.9460880674   -0.1107627077   -2.0057596094
 H    2.3219805878   -0.0579887167    0.3092842963
 H    0.5473057409   -3.8072541691   -0.0033051486
 H    0.9136568773   -2.5609624547   -2.2178614256
 H   -1.8641739920   -2.0011551999   -1.0433470289
 H   -1.3999549482   -1.8965717413   -2.7549181522
 H   -1.3992439435   -3.4621813756   -1.9338691068