15

 C    0.0060637275    1.4246446899   -0.1234698756
 C   -0.0515429442   -0.0571508344    0.0983575943
 N   -0.1760394431   -0.5724293464    1.2468522885
 O    0.0507820887   -0.7024783850   -1.1116039979
 C    0.0169309117   -2.0998247082   -1.1143875714
 C    0.1444110904   -2.5916904422   -2.5447522390
 O    0.2566136698   -1.9018994980   -3.5187203688
 C    0.1177847574   -4.0683731122   -2.6453732913
 N    0.0954185315   -5.2225155766   -2.7086300840
 H    0.9455159558    1.6958196449   -0.6145300439
 H   -0.8070246084    1.7384443881   -0.7850092514
 H   -0.0744144072    1.9387179466    0.8327946943
 H   -0.2006429630   -1.5906238927    1.2463033048
 H    0.8377872380   -2.5420422612   -0.5265901170
 H   -0.9222222347   -2.4990413726   -0.6979705617