21

 C   -0.0679570293    1.5152062489    0.0173232786
 C    0.0164800989   -0.0070496744   -0.0080044576
 C    0.8972287502   -0.5518043397   -1.1518752996
 O    1.3516109636   -1.8440515021   -0.7213051568
 C    0.9289941553   -2.0525153407    0.6170971706
 C    0.7594158787   -0.6432588852    1.1847541899
 O   -0.2938185906   -2.7587535705    0.6775656772
 C   -1.2871837541   -2.1945618460   -0.1750208879
 C   -1.3853108201   -0.6637459512   -0.0539929242
 H    0.9264822470    1.9640087587    0.1153028590
 H   -0.5244310362    1.9044135044   -0.9001409459
 H   -0.6766094449    1.8608504326    0.8594561577
 H    0.3546429926   -0.6595262762   -2.0987310095
 H    1.7660843000    0.0980548879   -1.3251000915
 H    1.6637991860   -2.6869118972    1.1163439217
 H    1.7338096449   -0.1699237702    1.3481329115
 H    0.1921865174   -0.6366059944    2.1175960496
 H   -1.0693210949   -2.4711481148   -1.2154047934
 H   -2.2304922100   -2.6709932633    0.1049406469
 H   -1.9263191626   -0.3908525019    0.8599992040
 H   -1.9664979918   -0.2768137649   -0.9001595902