18

 C   -0.0046981654    1.4748193341   -0.0922945986
 C    0.0059861667   -0.0258715250   -0.0283792792
 N    0.6403848717   -0.8519860850   -1.1134635615
 C    0.1040772548   -1.8603639562   -0.1458091533
 C    0.5343933709   -1.0027844149    1.0838680799
 C   -0.8463900703   -1.1746422168    1.7484046376
 O   -1.3429037416   -0.2117169310    2.6512130219
 C   -1.1763366945   -1.0671787939    0.2472980820
 O   -2.3853673625   -1.1683548638   -0.4051067451
 H    1.0134070044    1.8625455035   -0.1984217938
 H   -0.5880397270    1.8159132682   -0.9551869001
 H   -0.4517005390    1.9255369572    0.8004052884
 H    0.0493637063   -0.8325716006   -1.9500937104
 H    0.2179257540   -2.9375091340   -0.2649796608
 H    1.5269157620   -0.9891428473    1.5274254957
 H   -1.0388256812   -2.1520915427    2.2017857412
 H   -0.9355811535    0.6368164855    2.4533402626
 H   -3.0260828056   -0.6247794274    0.0678990035