18

 O   -0.3323965697    1.2719204602    0.0688708441
 C    0.0197075470   -0.0983572186    0.1055694897
 C    0.5573899755   -0.5310965956   -1.2014401936
 N    1.0134667121   -0.8445640355   -2.2161213558
 C    1.0035120214   -0.4584460453    1.2427608306
 C    0.4503794626   -0.0000823042    2.6173474350
 C   -0.0070462167   -1.3209732190    3.2875972292
 O    0.0084301372   -2.3113730465    2.2660042868
 C    1.0994508040   -1.9858158127    1.4238741749
 H    0.4599276726    1.7839616910   -0.1319688140
 H   -0.9183468400   -0.6364002601    0.2818144591
 H    1.9778832875   -0.0143779976    1.0167978810
 H    1.2205107039    0.5006049439    3.2083704697
 H   -0.3699453638    0.7076605043    2.4839466365
 H    0.6809942070   -1.6026549554    4.0992916145
 H   -1.0195795545   -1.2795826388    3.6956663191
 H    1.0002232545   -2.5560787068    0.4966092220
 H    2.0596310392   -2.2522223233    1.8943060613