15

 O    0.1082189567    1.3771730761   -0.1803415867
 C    0.0262567875   -0.0336115002   -0.0372169600
 C    0.7132575150   -0.5218125875    1.2268326295
 C    0.0231307694   -1.2085646910    2.1415598843
 C   -1.4155888049   -1.5367587156    1.7964088503
 O   -1.4878672533   -1.9052201881    0.3865509348
 C   -1.4450699975   -0.5032079269    0.0033262329
 C   -2.0604878690   -0.1923811356    1.3857282203
 O   -2.7672810880    0.6351896090    1.8683678836
 H   -0.2682780243    1.7823956974    0.6103257250
 H    0.5169902883   -0.4357637494   -0.9309409512
 H    1.7574988522   -0.2562891016    1.3602626641
 H    0.4405861732   -1.5198435527    3.0928444495
 H   -1.9191858420   -2.2419451292    2.4576820045
 H   -2.0006096134   -0.2746585848   -0.9082455911