23

 C    0.0939663315    1.5435017891   -0.0029035697
 C    0.0086499932    0.0148671387   -0.0183087076
 C   -1.4328177157   -0.5021493055    0.0280044170
 C   -1.5226600447   -2.0267244903    0.0128742358
 C   -2.9435440556   -2.5686852328    0.0577384871
 O   -3.9138833745   -1.8391977647    0.1015196699
 C   -3.0833440660   -4.0554536955    0.0450238009
 C   -4.2454244371   -4.6544544872    0.8249587214
 C   -4.2992521131   -4.6366430456   -0.6630146687
 H    1.1325429164    1.8872536188   -0.0366855955
 H   -0.4293783566    1.9765939831   -0.8624630770
 H   -0.3648798331    1.9552111948    0.9027768362
 H    0.5063283199   -0.3709017340   -0.9184352999
 H    0.5702396906   -0.3921230249    0.8335741629
 H   -1.9377954440   -0.1228907566    0.9240579157
 H   -2.0013927250   -0.1018599258   -0.8194809619
 H   -1.0353820165   -2.4430666122   -0.8815359708
 H   -0.9723813004   -2.4640779133    0.8594302179
 H   -2.1625139628   -4.6267775495    0.0049008819
 H   -4.0667902010   -5.5941510668    1.3347265437
 H   -4.8668405697   -3.9415425615    1.3545678320
 H   -4.9566539161   -3.9117431080   -1.1291008765
 H   -4.1588264396   -5.5637037102   -1.2067409650