18

 O   -0.0114420380    1.4514408112    0.0092349467
 C   -0.0252163449    0.0403560729    0.0022850855
 C   -1.4618598062   -0.4525585108    0.0134802289
 O   -2.0862603246   -0.0097234714    1.1912977512
 C   -3.4355091088   -0.4461517097    1.2720970503
 C   -4.2204169630    0.0136569650    0.0424867689
 C   -3.4593450371   -0.4329169460   -1.2068280767
 O   -2.1087464519    0.0027536150   -1.1473305916
 H    0.9062126879    1.7370692570    0.0043364067
 H    0.4560568320   -0.3744036116   -0.8965431441
 H    0.4730028886   -0.3834036318    0.8875580406
 H   -1.4542486699   -1.5639104619    0.0074807495
 H   -3.4690475416   -1.5475285416    1.3497500128
 H   -3.8408337794   -0.0303103801    2.1981026432
 H   -5.2321795203   -0.4070479824    0.0499702133
 H   -4.2986097495    1.1054982481    0.0490674183
 H   -3.4944820462   -1.5334054023   -1.2955740436
 H   -3.8823571370   -0.0072547995   -2.1203764698