16

 N    0.0795360519    1.3575153730   -0.0788789851
 C    0.0651051496   -0.0132469844   -0.0538360563
 N   -1.1200661976   -0.6284433999   -0.0300425442
 C   -1.1017134926   -1.9627011738    0.0275914466
 C    0.0773403162   -2.6921061297    0.0442370158
 N    1.2692258624   -2.0782082969    0.0237352029
 C    1.2805183081   -0.7535906136   -0.0096762309
 C    2.6169026117   -0.0529752806    0.0204715104
 O    2.7700900850    0.9164259314   -1.0240349388
 H    0.8929571842    1.7799455226   -0.5051614624
 H   -0.8119441151    1.7827346166   -0.2839522055
 H   -2.0676659895   -2.4612060392    0.0551547098
 H    0.0756760495   -3.7769150740    0.0757829559
 H    2.7249572247    0.5208108091    0.9484301307
 H    3.4068755193   -0.8117772065   -0.0100804623
 H    2.7230973520    0.4461168258   -1.8636901866