20

 C   -0.0073840505    1.4200001558    0.0284385180
 N    0.0581437536   -0.0283447972   -0.0172954798
 C    0.7335730395   -0.6553361348   -1.0342765233
 N    1.1932483419   -0.0232221372   -2.0398542446
 C    1.8344638173   -0.7155018992   -3.1489036325
 C    1.0078489872   -0.4825179328   -4.4207615115
 C    3.2618375441   -0.1756192040   -3.3044212665
 C    0.8299005532   -2.1016126738   -0.8444585552
 N    0.9225685745   -3.2440817374   -0.6916310840
 H    0.9856709076    1.8789014680    0.1185996571
 H   -0.4626622206    1.7971186100   -0.8904447508
 H   -0.6222625440    1.7143882414    0.8809375607
 H   -0.0275476127   -0.5343276403    0.8485282703
 H    1.8923946385   -1.8008685778   -2.9693178586
 H    1.4819851231   -0.9681388053   -5.2795305791
 H   -0.0016487472   -0.8892247152   -4.3104445715
 H    0.9227500282    0.5887171814   -4.6285072677
 H    3.8503692927   -0.3621701163   -2.4013722470
 H    3.7643662095   -0.6591195866   -4.1480705574
 H    3.2432383640    0.9043213512   -3.4813679565