22

 C    0.9460624492    1.0088179581   -0.4938598872
 C    0.0276066148   -0.0032793410    0.1694341196
 O    0.7517988906   -0.6786774839    1.1777815580
 C   -0.0100767791   -1.6418335567    1.8682164923
 C    0.8626533180   -2.3002172821    2.9394266305
 O    0.0572747315   -3.1529155798    3.7489259072
 C    2.0719095382   -3.0284017800    2.3482896192
 C    3.0126970985   -3.5949684685    3.4136287000
 H    1.8101165948    0.5084606756   -0.9403384470
 H    0.4124089485    1.5495346825   -1.2811824334
 H    1.3112429126    1.7335284586    0.2393299306
 H   -0.8514537482    0.4991960388    0.6072285805
 H   -0.3532129193   -0.7260558608   -0.5723252283
 H   -0.8861861557   -1.1828908196    2.3533296198
 H   -0.3882513284   -2.4132126699    1.1703628699
 H    1.2128880733   -1.5137726767    3.6191122096
 H   -0.1985823811   -3.9096821576    3.2092988844
 H    1.7036666233   -3.8397382326    1.7009456311
 H    2.6012903022   -2.3305721540    1.6915356073
 H    3.8332202315   -4.1586530062    2.9596001695
 H    3.4524556033   -2.7919020806    4.0152628430
 H    2.4736150015   -4.2597644537    4.0943336435