13

 O   -0.0330994764    1.4365911329    0.0560781389
 C   -0.0182540061    0.0673333404    0.0134534567
 C   -0.3079702110   -0.7785886316   -1.2056624244
 C   -1.1435211423   -0.9327358510    0.0366347327
 O   -0.4750051588   -1.7765865261    0.9867769001
 C    0.6038463857   -0.8153535476    1.1137009135
 C    1.9300385015   -1.3857218846    0.8789770985
 N    2.9852478778   -1.8080037826    0.6692600278
 H    0.6298058744    1.7745919302   -0.5570365824
 H   -0.7937413154   -0.2188065349   -1.9995639554
 H    0.3574774554   -1.5756750654   -1.5249686946
 H   -2.2200037665   -0.8458785400    0.1030997388
 H    0.5690580116   -0.3255044400    2.0927917396