23

 C   -0.2581335550    1.6202947800   -0.1245367963
 C    0.0774780670    0.1256303557    0.0362885759
 C    0.7619616028   -0.4673382274   -1.1602176598
 C    2.0100916277   -0.9321812313   -1.2664915809
 C    3.0944145953   -1.0208424542   -0.2409556899
 C    2.2493566475   -1.3988735314   -2.6785898651
 O    1.0187133756   -1.2198035460   -3.3621324626
 C    0.0617450207   -0.5998086501   -2.4985750446
 C   -1.2184047355   -1.4373409979   -2.4761832712
 H    0.6486863450    2.2071164201   -0.3005919096
 H   -0.9344945782    1.7931089326   -0.9673175447
 H   -0.7444491315    2.0064099290    0.7765783363
 H    0.7038278946   -0.0076355361    0.9243619261
 H   -0.8520865597   -0.4242435534    0.2359783324
 H    3.4350091434   -2.0567051375   -0.1157822010
 H    3.9740166069   -0.4394457573   -0.5463598822
 H    2.7742211007   -0.6528505884    0.7366056871
 H    3.0499923283   -0.8185841288   -3.1700235324
 H    2.5529347836   -2.4577266084   -2.7257673834
 H   -0.1850781688    0.3951172746   -2.9092548757
 H   -1.0278956214   -2.4190188970   -2.0316526753
 H   -2.0064484114   -0.9378831148   -1.9027035139
 H   -1.5819803578   -1.5835634019   -3.4971425895