16

 O   -0.0636935264    1.3810205068   -0.1077784545
 C   -0.0182389674   -0.0371348868   -0.1507251037
 C   -1.3884021846   -0.6227576251    0.0105186024
 N   -2.5273672503   -0.3780297520   -0.9997624906
 C   -3.2143969050   -1.2048223625    0.0957733550
 C   -1.9261770777   -2.1005172776    0.0440830808
 O   -1.7277224273   -2.8865444475   -1.0798912358
 C   -2.4550598910   -0.2917847127    1.0673532918
 O   -2.6268058240    0.4608839025    1.9809487875
 H   -0.3885549979    1.6348767876    0.7640119353
 H    0.4028787473   -0.3072578096   -1.1241589813
 H    0.6432763500   -0.4555739077    0.6235493251
 H   -2.8262876098    0.5996770101   -0.9912084677
 H   -4.2599695653   -1.4955890184    0.0244510146
 H   -1.6965610558   -2.6915688700    0.9308164260
 H   -1.9564334248   -2.3274584371   -1.8372766047