12

 C    0.0717395479   -3.7645842459   -0.0191237680
 C    0.0449395625   -2.5566541457   -0.0120517041
 C    0.0155896613   -1.1994893045   -0.0041138248
 C   -0.0166179915    0.0130115768    0.0030590406
 C   -0.0275939388    1.4179641167    0.0110154291
 C   -1.0965278679    2.2741408348    0.0299285348
 O   -0.6849364715    3.5415088075    0.0315229506
 N    0.7107081861    3.5725053161    0.0132410939
 C    1.0857339657    2.3226878146    0.0013355121
 H    0.0946876591   -4.8260514329   -0.0253321445
 H   -2.1625551489    2.1112998038    0.0431127393
 H    2.1379591860    2.0787941285   -0.0139329188