13

 N   -0.0526686471    1.2551559519    0.1697317643
 C   -0.0267792369    0.0140663321   -0.0420700745
 O   -1.1598880734   -0.7072961212    0.1946782424
 C   -1.0978817493   -2.0619807075    0.1119363667
 N    0.0365251234   -2.7437213779    0.1811492808
 N   -0.3646194571   -4.0316349807    0.0711858260
 C   -1.7053202898   -4.1621190113   -0.0474485481
 C   -2.2319681750   -2.8885730044   -0.0278004304
 H    0.8478830890    1.6622358875   -0.0759781981
 H    0.8003520121   -0.5949610793   -0.4122013406
 H    0.3295045876   -4.7574119639    0.1066397429
 H   -2.1754713055   -5.1286476547   -0.1360849429
 H   -3.2626938780   -2.5888389607   -0.1050737985