17

 N   -0.0122584943    1.3404884115   -0.1454876345
 C    0.0217081619    0.0937117398    0.0420431983
 O    1.1875207744   -0.6101504205    0.1045996589
 C    1.2816927194   -1.7441642765    0.9858373196
 C    0.0943165803   -2.6856260722    0.8578798020
 C   -1.2009414094   -1.9032363762    1.0729176247
 C   -1.2597203489   -0.7387351228    0.0554560867
 C   -2.4514317048    0.0833786533    0.2607333366
 N   -3.4368024609    0.6554713186    0.4477637968
 H    0.9364280768    1.7203052359   -0.1665886264
 H    2.2216932127   -2.2312129025    0.7185785729
 H    1.3678365138   -1.3762893048    2.0177109659
 H    0.0955182743   -3.1515645138   -0.1349141849
 H    0.1912374255   -3.4884512607    1.5958795580
 H   -2.0824920149   -2.5370593308    0.9493410507
 H   -1.2348927301   -1.4963821992    2.0900280203
 H   -1.3352841459   -1.1817841694   -0.9484848956