17

 C   -0.1853588131    1.5339532282    0.0260450544
 C   -0.0016654787    0.0279266813   -0.0347707202
 C    0.7396510924   -0.5950416226   -1.2222491669
 N    2.1443418600   -0.1146929484   -1.1466235612
 C    1.7175625918   -1.2831910372   -0.3443275800
 C    1.1159378743   -0.6236678679    0.9204682244
 O    1.9654312894    0.2503354759    1.6037376388
 C    0.5524310637   -1.5808119167    1.8706696366
 N    0.0787512001   -2.3581580202    2.5820700833
 H    0.7435152594    2.0561184577   -0.2143783446
 H   -0.9491254082    1.8534674592   -0.6906946170
 H   -0.5052050632    1.8465821150    1.0241381466
 H   -0.9483229101   -0.4934586280    0.1293502911
 H    0.3213700546   -0.9237644351   -2.1648601216
 H    2.6499025753   -0.4614753989   -1.9592687425
 H    2.2079225104   -2.2447887646   -0.4217072675
 H    2.4788240618    0.6848261024    0.9055896563