16

 N   -0.1195581191    1.2763077006    0.1136511821
 C   -0.0284460581    0.0223073400   -0.0317085412
 O    1.1736957884   -0.6236723655   -0.0902181906
 C    1.2373498939   -1.8050370493   -0.9052969126
 C    0.2595167966   -2.8860733046   -0.4540944385
 C   -1.1359834917   -2.2995199192   -0.2878245311
 N   -1.4208387112   -1.7650831929    1.0467864474
 C   -1.2532734127   -0.8259082223   -0.0890436306
 H    0.8150198262    1.6910895323    0.1366992054
 H    1.0414434331   -1.5244241979   -1.9494805167
 H    2.2732254147   -2.1438878184   -0.8346788894
 H    0.2571684593   -3.6900465533   -1.1976938606
 H    0.5834797444   -3.3111711021    0.5002353501
 H   -1.9447947244   -2.7904031591   -0.8227539935
 H   -2.4113607290   -1.8439421914    1.2625944923
 H   -2.1297102403   -0.2991093269   -0.4488855428