16

 N   -0.3117443637   -1.1731777983   -0.3195081032
 C   -0.1682622698   -0.0415653639   -0.1326514500
 C    0.0076882132    1.3986630073    0.0571124887
 O   -0.1635462587    1.8479236404    1.4222695566
 C    1.0840231515    2.6086195569    1.3705366322
 C    2.3275299186    1.9507598264    1.9949391123
 C    2.2777438457    0.4642327716    1.8254176209
 C    2.6317716920    1.2960203662    0.6251194404
 C    1.4281381915    2.0247157945   -0.0074819436
 H   -0.6982053600    1.9144194352   -0.6073127565
 H    0.9281538737    3.6710694446    1.5624126227
 H    2.9968871877    2.4395700073    2.6916243256
 H    3.1222877610   -0.0664488357    2.2528395780
 H    1.3372135122   -0.0669731614    1.9067294554
 H    3.5845354825    1.1828237934    0.1241701924
 H    1.6547194323    2.6471816655   -0.8702362619