19

 O    0.6341689329    0.5231017939   -0.6651327497
 C   -0.1931573730    0.3918614046    0.4742350869
 C   -1.5267659881   -0.3023948609    0.1613637994
 C   -1.4124233883   -1.7846448670   -0.2178023674
 C   -2.6851577152   -2.3822421890    0.4043123312
 C   -2.8493891640   -1.5352643904    1.6678612264
 O   -2.3394314792   -0.2363851613    1.3457192603
 C   -2.2857077296    0.5040682240   -0.9006923437
 O   -2.5437301224    0.1225368502   -2.0114829700
 H    0.8687740732   -0.3579908110   -0.9739968886
 H    0.2954962235   -0.1526264994    1.2964005726
 H   -0.3918457979    1.4087403220    0.8276048405
 H   -1.3706232422   -1.9141528404   -1.3003371798
 H   -0.5159447334   -2.2253165575    0.2337220406
 H   -3.5340296235   -2.2342187199   -0.2698872897
 H   -2.6022219682   -3.4500837931    0.6185469723
 H   -3.8894527825   -1.4257659629    1.9899096383
 H   -2.2738240524   -1.9546403777    2.5058762552
 H   -2.6226759797    1.4958638158   -0.5259746349