19

 C    0.0935969609    1.4693501743    0.0202821298
 N   -0.3341704089    0.1024273732   -0.2578322704
 C    0.4311535717   -0.6519947641   -1.1394692620
 C    0.6442438497   -1.9978694061   -1.1831914903
 C    0.2465268478   -3.1609083989   -0.3538136441
 O    1.4046622148   -2.2396226214   -2.3178894299
 C    1.6139848632   -1.0271727598   -2.8697197688
 C    2.4263422737   -0.9566346826   -4.1123385535
 N    1.0633704969   -0.0483760373   -2.2199887195
 H    1.0659754816    1.5346917160    0.5333335888
 H    0.1742664325    2.0145110653   -0.9210903765
 H   -0.6636727040    1.9547037055    0.6415185117
 H   -0.5714598195   -0.4110809441    0.5792302408
 H   -0.2155849243   -2.8165963936    0.5764058393
 H   -0.4794781747   -3.8115833995   -0.8583360039
 H    1.1100971791   -3.7805392036   -0.0846557058
 H    3.4375023325   -1.3441420670   -3.9475448376
 H    1.9745139217   -1.5506104435   -4.9137716949
 H    2.4923976154    0.0828603370   -4.4341953532