21

 C    0.2055233982    1.4740279918   -0.8522617595
 C    0.1058919769    0.0624410991   -0.5139932492
 C    0.0231179479   -1.1038425443   -0.2227446628
 C   -0.0360057785   -2.5062261465    0.0894937857
 O   -0.2287129350   -2.8828491481    1.4686229889
 C   -1.2742316149   -3.1779458262    0.5463394496
 C   -2.5934967056   -2.4602537415    0.7277376422
 C   -3.4458340201   -2.5958615030   -0.5417293224
 C   -3.3206082583   -2.9983222327    1.9683318020
 H    1.1871300226    1.7124611202   -1.2760233105
 H   -0.5543707400    1.7637164245   -1.5863715060
 H    0.0657236275    2.1006142725    0.0353926617
 H    0.7037855403   -3.1202594196   -0.4248642491
 H   -1.3616859151   -4.2423234046    0.3074169570
 H   -2.3662042051   -1.4004289556    0.8879767866
 H   -3.6647752329   -3.6478568415   -0.7605077280
 H   -4.4026963969   -2.0782624997   -0.4225096184
 H   -2.9355245751   -2.1692584000   -1.4108205498
 H   -4.2562314833   -2.4557119131    2.1372410392
 H   -3.5684135054   -4.0602144481    1.8514076602
 H   -2.6969343973   -2.8929421936    2.8606178726