22

 C   -0.2236981261    1.5021000519   -0.0361055326
 C    0.0314133244   -0.0128491484   -0.0417475305
 C    0.8243563622   -0.3810486646   -1.3034333606
 O    0.0135776286   -0.0907780773   -2.4322261772
 C    0.7406566267   -0.5190764354    1.2406229674
 C    0.1847279377    0.1025908002    2.5295979198
 C    0.6492129142   -2.0667990182    1.3364422195
 C    1.4799519408   -2.6225417901    2.4023997753
 N    2.1483283072   -3.0468320557    3.2446720340
 H    0.7050230821    2.0563054659    0.1476241428
 H   -0.6118012617    1.8073053321   -1.0098463643
 H   -0.9475283927    1.7948946632    0.7275389855
 H   -0.9411721749   -0.5205525555   -0.1196307367
 H    1.7593833084    0.2036651664   -1.3216108556
 H    1.1077943840   -1.4439989805   -1.3007662662
 H    0.5339205478   -0.2420344750   -3.2263378939
 H    1.8048765917   -0.2550810502    1.1679483421
 H   -0.8951400835   -0.0685652996    2.6139056334
 H    0.6641603374   -0.3392358695    3.4078599046
 H    0.3578192780    1.1797973760    2.5647705379
 H   -0.3919258542   -2.3604019006    1.5193079180
 H    0.9481175020   -2.5444422852    0.3989030872