17

 C    0.0514587991    1.3527423144   -0.0550456216
 O   -0.0009638767   -0.0592413645    0.1027906013
 C   -1.2855891808   -0.6144130876    0.0288764632
 C   -2.0009645495   -0.6984786397   -1.3676677746
 N   -2.0478646048   -2.1976877474   -1.3122781733
 C   -0.6433496752   -2.6310659817   -1.2351399519
 C   -1.2814362547   -2.1423760147    0.0009219812
 C   -2.1684415061   -0.0713412604    1.0770430342
 N   -2.8473040159    0.3770547120    1.8979126089
 H    1.1069166013    1.6267574430   -0.0188240057
 H   -0.3680456508    1.6665840313   -1.0208632094
 H   -0.4853237478    1.8698501655    0.7502061502
 H   -3.0081827385   -0.2817693199   -1.3757990483
 H   -1.4192854776   -0.2990577140   -2.2040054851
 H   -0.5275503074   -3.7060454925   -1.3276491517
 H    0.1293445397   -2.0367213840   -1.7150040759
 H   -1.5278333942   -2.7723853397    0.8472026984