14

 O    0.1538071779    1.5278429201   -0.0130656888
 C    0.0057929814    0.1577689670   -0.0862279086
 C   -1.3591750050   -0.5632137130   -0.0452819461
 C   -2.1624561224   -0.5011556807   -1.2919450896
 C   -2.2008180288    0.6500492921   -2.2498697845
 O   -1.3576909077    1.5106802902   -2.3587043909
 N   -0.9941681010   -1.4493567012   -1.2244514581
 C    0.2280881753   -0.6350074197   -1.4017413609
 O    1.0540646654   -0.7200788446   -2.2474446526
 H   -0.2345353377    1.8895840839   -0.8241900647
 H    0.6438305211   -0.2869841920    0.6878089104
 H   -1.7929133707   -1.0043586732    0.8452597743
 H   -3.0955469059   -1.0592638800   -1.2744383945
 H   -3.1021964621    0.6694077611   -2.8938333153