19

 O   -0.0188807688    1.1921659484   -0.2259251831
 C    0.1019476163   -0.2063962240    0.0449509591
 C    0.8418984831   -0.3991784955    1.3950869830
 C    2.1478764718    0.2496672814    1.3962510166
 C    3.2077531166    0.8168643232    1.3413631190
 C   -1.3266115126   -0.8015795025    0.0660775341
 C   -1.5345820926   -1.4796564005   -1.3102934838
 C   -0.1302536539   -1.6038548551   -1.8480461516
 C    0.7559295835   -0.9372790109   -1.1128788060
 H    0.8723361341    1.5637717533   -0.2181985007
 H    0.2208501836    0.0262985718    2.1928754723
 H    0.9530124011   -1.4697730316    1.6034459239
 H    4.1529992288    1.3006500905    1.3226673389
 H   -1.4029396038   -1.5477578907    0.8628547744
 H   -2.0514494714   -0.0128862780    0.2761845280
 H   -2.0396812437   -2.4484568248   -1.2238865446
 H   -2.1529252345   -0.8701937635   -1.9821677593
 H    0.0986872085   -2.1557507213   -2.7538714253
 H    1.8184758439   -0.8526420102   -1.3127047548