19

 O   -0.0956735175    1.3627676896   -0.1650763279
 C   -0.0487105920   -0.0116151091   -0.0000336497
 C   -0.3202626721   -0.9772558223   -1.1191501164
 C   -1.2139474209   -0.9826439652    0.1038520475
 C   -0.5161774959   -1.7319213405    1.2466020608
 C    0.6546085508   -0.6901876445    1.1917771405
 C    2.0768506881   -1.1555537103    1.0252081119
 C    2.5951308230   -2.3831359029    1.6424799492
 O    2.3067276416   -2.3345560801    0.2429142774
 H    0.5388095865    1.6096328477   -0.8459847476
 H   -0.7692773495   -0.5113219125   -1.9912574578
 H    0.3434885329   -1.8106290777   -1.3288271909
 H   -2.2753303634   -0.7830027800    0.0319364077
 H   -1.0584915667   -1.7066775698    2.1936641705
 H   -0.2354995942   -2.7634892354    1.0177572624
 H    0.6058068241   -0.0177592631    2.0553610127
 H    2.7969226382   -0.3580641685    0.8262690926
 H    3.6508407749   -2.4597939125    1.8984067587
 H    1.9272552119   -3.0076919730    2.2339541984