13

 N    0.0287200828    1.4491822892    0.1497536986
 C    0.0045682474    0.0458089022    0.0314746105
 C   -1.1322227136   -0.6885047766   -0.0056759935
 O   -1.1445277298   -2.0397610592   -0.0152061910
 C    0.0210789128   -2.8090852149   -0.0310414242
 O   -0.0886803025   -4.0071624507   -0.0590992870
 C    1.2503372907   -2.0367572336   -0.0076330392
 C    1.2409298809   -0.6851982463    0.0321722315
 H    0.7003732707    1.8828364660   -0.4724285756
 H   -0.8785790862    1.8737146556    0.0035234122
 H   -2.1337992361   -0.2742622795   -0.0123320353
 H    2.1683747320   -2.6102614311   -0.0128799296
 H    2.1733390410   -0.1283186912    0.0714875225