19

 C    0.1199043466    1.6427843895   -0.0237099718
 C    0.0068969617    0.1188603031    0.0782105827
 N    0.6508224061   -0.5324740871   -1.0787769630
 C    1.3288803256   -1.7570662800   -0.6373961021
 C    1.4732962697   -1.5338898029    0.8528316067
 C    0.7383351948   -0.4997082311    1.2546893680
 C    0.5779098902    0.0115465398    2.6498326537
 C    0.5615109769   -2.9930401461   -0.9222554804
 N   -0.0545085811   -3.9398718567   -1.1707130138
 H    1.1703022919    1.9451980398   -0.0621817137
 H   -0.3693488514    1.9990950128   -0.9353480426
 H   -0.3638248789    2.1328953673    0.8274958997
 H   -1.0651260389   -0.1395460660    0.1608803512
 H    0.0141595834   -0.6950822539   -1.8481558027
 H    2.3003650814   -1.8657251913   -1.1403906785
 H    2.0763444648   -2.1826187512    1.4746976656
 H    1.1424973060   -0.5929802431    3.3636501045
 H    0.9175874898    1.0500726220    2.7367464301
 H   -0.4769265687   -0.0003347949    2.9515538661