19

 C   -0.1248517021    1.4625090389    0.0218831456
 C    0.0476153469   -0.0516895686    0.0283225123
 C    0.8650816647   -0.5805954774   -1.1517917659
 C    2.1478171204   -0.5185622515   -0.3716508478
 C    1.2271682199   -0.5571280526    0.9154031066
 C    1.1642489789   -2.0990065789    0.7844528280
 C    1.5550372342   -1.8899960186   -0.6849990025
 C    2.0235016901   -2.8623608953   -1.6090777279
 C    2.4176220798   -3.7024195646   -2.3766720505
 H    0.8323971325    1.9676820539   -0.1476711286
 H   -0.8146209658    1.7798549743   -0.7676422562
 H   -0.5288948246    1.8130291372    0.9778645556
 H   -0.9159164893   -0.5424761688    0.2174471562
 H    0.7200111998   -0.4029620933   -2.2101049748
 H    3.1264388629   -0.1204083228   -0.5954923769
 H    1.4409685553   -0.0826280660    1.8711311351
 H    1.9720563234   -2.5958671806    1.3274552195
 H    0.2094450669   -2.5884640530    1.0076214514
 H    2.7650868759   -4.4403887521   -3.0558651691