14

 C   -0.3414488948   -0.8792755581   -0.8847541720
 C   -0.0709146169    0.0837796905   -0.2206973849
 C    0.2236911792    1.2633192886    0.5826779151
 N    1.5117474637    1.8648215093    0.2620909193
 C    2.1407900491    1.9364013568   -0.9374311454
 C    3.2684057723    2.7073070665   -0.7451961371
 C    3.2231504577    3.0623000916    0.6181305338
 N    2.1543111886    2.5541037047    1.2269841597
 H   -0.5754562734   -1.7389370125   -1.4632585578
 H   -0.5745446328    2.0068058243    0.4552610440
 H    0.2588846838    1.0117477366    1.6466302404
 H    1.7485023249    1.4304468638   -1.8042842746
 H    4.0157504851    2.9614936849   -1.4789711540
 H    3.9246150035    3.6583382531    1.1834518834