19

 O   -0.1834385147    0.4697079698    1.0637091559
 C   -0.1085211922    1.3652570144    0.2644704193
 C   -1.2714237524    1.9478371007   -0.5464447083
 C   -0.8433059618    3.3684233334   -0.9442011207
 C   -1.4217257848    4.4945798906   -0.0576706661
 O   -0.3729044614    5.4291265896    0.1240441514
 C    0.7942202227    4.6522679320    0.3259118849
 C    0.7062574825    3.4785033678   -0.6757549193
 C    1.1671420690    2.1211774276   -0.1236172174
 H   -1.4040325964    1.3056415056   -1.4262844828
 H   -2.2011923342    1.8957171999    0.0260997251
 H   -1.0663857901    3.5759654318   -1.9919508945
 H   -2.2685769833    5.0189796450   -0.5069636637
 H   -1.7458336757    4.0839117796    0.9146572710
 H    1.6619184864    5.2986443792    0.1732228171
 H    0.8277234872    4.2672197391    1.3601859698
 H    1.2364955258    3.7392452013   -1.5930757906
 H    1.8490615193    2.1837718274    0.7284766956
 H    1.6738395342    1.5243182353   -0.8924662565