19

 C    0.0014356584    1.5948701922    0.0527856386
 C   -0.0252798626    0.0656556584    0.0659000859
 O   -1.3513012969   -0.4353142136    0.2145539143
 C    0.6639366093   -0.4981115572   -1.1704260896
 C    1.9964840688   -1.1576614608   -1.0865220892
 O    2.5908149038   -1.2086607784    0.1742616177
 C    0.7666128243   -2.0152815150   -1.3910566293
 C    0.2291225151   -2.9616403795   -0.3826270694
 O   -0.2897858238   -4.0120165833   -0.6792335229
 H    1.0306504818    1.9666905877    0.0254461894
 H   -0.5228484379    1.9879140568   -0.8274132528
 H   -0.4899433937    1.9869402459    0.9466907735
 H    0.5007352394   -0.2862236914    0.9561596450
 H   -1.8537896514   -0.1941171931   -0.5716371350
 H    0.4764421719    0.0651320887   -2.0822266326
 H    2.6914218155   -1.0109373838   -1.9129633877
 H    3.1257041634   -2.0077321736    0.2279470598
 H    0.6558722905   -2.3720997327   -2.4099371301
 H    0.3505784043   -2.6609531873    0.6761494543