20

 C   -0.1558546472    1.5328910766   -0.1443515250
 C   -0.0163369307    0.0203245180   -0.0488840964
 C    1.2324953123   -0.5537337404   -0.8333426472
 C    1.9226181482   -0.5895135519    0.5091172274
 C    2.9820850037   -0.1811766914    1.1986399568
 C    2.5683874861    0.0781560114    2.6464882371
 C    1.0139036753    0.2559915800    2.5564581278
 C    0.6382867296   -0.5336574279    1.2862426126
 H    0.7898623128    2.0343458676    0.0889563546
 H   -0.4496437651    1.8320211875   -1.1561860731
 H   -0.9157998971    1.9092253889    0.5489291358
 H   -0.9629536093   -0.4626411094   -0.3083620456
 H    1.0241485459   -1.5453546240   -1.2488201116
 H    1.6724034908    0.0711061969   -1.6158960968
 H    3.9782274475    0.0215869847    0.8218804054
 H    2.8376097211   -0.7574660281    3.3085671222
 H    3.0602965001    0.9655677489    3.0603421925
 H    0.4977366293   -0.0877458105    3.4574670521
 H    0.7814372378    1.3191659827    2.4326988863
 H    0.2155576388   -1.5192699195    1.5176717451