20

 C   -0.4489545182    1.2954357432    0.0518611335
 C    0.2607209354   -0.0568463016   -0.0918566483
 C    0.8500596577   -0.5757897450    1.2118145148
 C    2.0478259814    0.1943218055    1.7457122131
 C    0.0012883652   -1.1876642394    2.2759447680
 O   -1.1491242583   -1.8653625560    1.7057804496
 C   -0.2965266449   -2.7713246053    1.0665780118
 N   -0.5656694485   -3.8031626646    0.4084838350
 C    0.9520472210   -2.0899005081    1.5148554113
 H    0.2285225992    2.0839494734    0.3943377910
 H   -0.8641202153    1.6148898026   -0.9086172416
 H   -1.2747591835    1.2257563623    0.7671740312
 H   -0.4454193579   -0.7877072420   -0.4931703006
 H    1.0716642162    0.0219079302   -0.8267380716
 H    1.7973104885    1.2465333541    1.9102810598
 H    2.3994342439   -0.2163935970    2.6976039688
 H    2.8808861231    0.1529686619    1.0360001241
 H   -0.0569368727   -0.9185670148    3.3226643978
 H   -1.5747880723   -3.9517142069    0.3527546179
 H    1.8772328500   -2.5685752826    1.8013533644