20

 C   -0.0442739679    1.4947480921    0.0244901491
 C    0.0002760280   -0.0157921575   -0.0042263068
 C   -1.3254845564   -0.8118494651    0.2002166477
 C   -0.6463696060   -1.5947744977    1.3788176775
 O   -0.6046152078   -3.0031995783    1.3524153974
 C    0.6965728127   -0.8677688816    1.0928776262
 N    1.7259229581   -1.4130455284    0.1240984513
 C    1.0486556404   -2.1099941351   -0.9881639826
 C    1.0160261674   -0.6372895460   -0.9861596318
 H    0.9645888012    1.9187197389    0.0780931198
 H   -0.5242055198    1.8916838608   -0.8787084315
 H   -0.6100200763    1.8607671924    0.8881134879
 H   -2.1732037482   -0.1948252632    0.5116469703
 H   -1.6347174770   -1.4303784927   -0.6459169156
 H   -1.0382290855   -1.2398477397    2.3430113864
 H   -1.4780276867   -3.3333250108    1.5860559995
 H    1.2071638445   -0.4326439700    1.9531953540
 H    1.7686578603   -2.5733110533   -1.6579238860
 H    0.1716837598   -2.7121132827   -0.7904847362
 H    1.5847333490   -0.0470239722   -1.7008060364