15

 C   -0.1754545744    1.4935294405    0.0126028457
 C   -0.0206998431   -0.0148980471    0.0023525001
 O   -1.3425375762   -0.5907376358    0.0121986026
 C   -1.3943160495   -1.9384970087    0.0051137954
 O   -0.4356164802   -2.6600491797   -0.0082702312
 C   -2.8499724279   -2.3793646883    0.0157898931
 O   -2.8981150130   -3.7822606270    0.0112780090
 H    0.8108616215    1.9669756350    0.0055091124
 H   -0.7283596679    1.8360113372   -0.8666268336
 H   -0.7106797451    1.8257572303    0.9065844081
 H    0.5118901298   -0.3669627880   -0.8868048587
 H    0.5294559041   -0.3771489086    0.8765864971
 H   -3.3241735063   -1.9342942166    0.9049524661
 H   -3.3386379144   -1.9282195308   -0.8624597479
 H   -3.8227819374   -4.0456219124    0.0168567319