18

 C   -0.0534382834    1.5499282611    0.0302607614
 C   -0.0182140887    0.0095274011    0.0395366335
 C    0.7215065128   -0.5207857448    1.2827690867
 C   -1.3920698943   -0.5710660223   -0.0705061773
 C   -2.0086579688   -1.3592201062   -0.9932020048
 C   -3.3469979156   -1.5763451099   -0.5238154952
 C   -3.4438099858   -0.9031831041    0.6496868807
 O   -2.2659393548   -0.2860327189    0.9418559488
 H    0.9611008393    1.9586083824    0.0764960786
 H   -0.5355236959    1.9282012779   -0.8759151754
 H   -0.6118769020    1.9276378861    0.8921542986
 H    0.5230266186   -0.3276186624   -0.8527420396
 H    0.1956019314   -0.2299032807    2.1972047088
 H    0.7895520683   -1.6124554076    1.2657347457
 H    1.7365643187   -0.1134822115    1.3298090062
 H   -1.5641935334   -1.7406977048   -1.8994697559
 H   -4.1239333840   -2.1543686563   -0.9991720220
 H   -4.2345841425   -0.7646370891    1.3683091112