25

 C    0.1933686615    1.6050035736    0.1390905800
 C    0.0905701205    0.0900573772    0.0460142700
 C    1.0691286978   -0.6640513476   -0.8973977979
 C    1.2670013874   -1.7601182754    0.1989169049
 C    0.3680201176   -2.9753225721   -0.0558734404
 C    2.7233826283   -2.1591335802    0.4530228567
 C    2.9474454304   -3.0305989099    1.6845268102
 O    4.3514072772   -3.1735580436    1.8576029434
 C    0.6314187805   -0.7648394991    1.2259751511
 H    1.2206732847    1.9152829691    0.3632367066
 H   -0.1006990277    2.0842618702   -0.8017581437
 H   -0.4536079359    2.0014327756    0.9300793048
 H   -0.9438344503   -0.1904284587   -0.1794588171
 H    0.6856121777   -0.9957665009   -1.8669889720
 H    1.9863695994   -0.0900119252   -1.0665157260
 H    0.7490223987   -3.5762304616   -0.8900368844
 H    0.3016107991   -3.6252639057    0.8232448006
 H   -0.6522219202   -2.6678573468   -0.3087000262
 H    3.1248358548   -2.6824858661   -0.4248931911
 H    3.3300841132   -1.2540135624    0.5785852663
 H    2.4859291969   -2.5553717087    2.5660182726
 H    2.4672324075   -4.0123252699    1.5552881596
 H    4.5029125166   -3.7468339022    2.6145132280
 H    1.3967944132   -0.2250646568    1.7945266421
 H   -0.0991567689   -1.1713742429    1.9318036218