19

 C    0.1576977502    1.4543354679    0.1592989736
 N    0.1051491208    0.0115017819    0.0245127584
 C    0.6775960939   -0.6106690973   -1.0626528172
 O    1.1085676509   -0.0182639303   -2.0383408285
 N    0.7250993003   -1.9884498217   -0.9641497533
 C   -0.2322889592   -2.8906530860   -0.2998094965
 C    0.1016401740   -3.9626815271   -1.3625438582
 O   -1.0548649650   -4.4871063216   -1.9625199361
 C    0.8856366945   -2.8582778447   -2.1358446834
 H    0.9882110139    1.7882898895    0.7954545394
 H    0.3012094611    1.8709431456   -0.8380218784
 H   -0.7792031678    1.8336936578    0.5790226204
 H   -0.0103708039   -0.5310900027    0.8649027142
 H    0.0050462153   -3.1365232252    0.7410664985
 H   -1.2761848965   -2.5620947244   -0.3734110531
 H    0.7546208703   -4.7553234593   -0.9770773959
 H   -0.7889715770   -5.1203190034   -2.6370136221
 H    0.3464250297   -2.4952502330   -3.0177643078
 H    1.9245707044   -3.0718430558   -2.4034552341