17

 C    0.0598617204   -3.7789380186   -0.0419282341
 C    0.0484008438   -2.5703750169   -0.0274433528
 C    0.0327482984   -1.2123841244   -0.0085459846
 C    0.0309085293    0.0013575310   -0.0005844582
 C    0.0014293915    1.4154183508    0.0469232214
 C    0.2781465515    2.2860496244   -1.1642693657
 C    1.1749088237    2.4371782671    0.0207122253
 C    0.4926687122    3.2688302868    1.1099470762
 C   -0.7001500501    2.2600716120    1.1321929507
 H    0.0729718039   -4.8401330856   -0.0573251466
 H    0.7014718412    1.7602166192   -2.0127581323
 H   -0.4318257377    3.0691174073   -1.4230007663
 H    2.2328364965    2.2128506960   -0.0359688632
 H    1.0425792034    3.2730429027    2.0526997857
 H    0.2599203922    4.3027168976    0.8359810286
 H   -1.6864833584    2.6447771031    0.8560198176
 H   -0.7803143117    1.7307065776    2.0824938083