17

 O    1.7577804304    3.5529339915   -1.4908114442
 N    0.8623894694    3.1860341819   -0.6977672935
 C    1.0956407897    2.0519859112    0.0249332458
 C    0.1057522708    1.5895382235    0.9444546776
 O   -0.9869517224    2.0294236228    1.2413890462
 C    2.3937975456    1.3339478288   -0.1799987961
 C    3.2261779123    0.9811337304    1.0855147512
 N    2.7188638423   -0.4622980207    0.9900888294
 H    3.3689383241   -1.2222521868    1.1899926072
 H    1.8654194799   -0.5585820582    1.5542882354
 C    2.3313632639   -0.1930645721   -0.4684486574
 H    0.4413548485    0.6235039373    1.4814052112
 H    2.9158664334    1.9343952850   -0.9343304971
 H    4.3107894237    0.9682908629    0.9516093607
 H    2.9528481952    1.4492130704    2.0307329839
 H    1.3670408101   -0.6317168769   -0.7232262672
 H    3.1248482832   -0.5879294411   -1.1079329931