18

 C   -0.1114467542    1.4911795884    0.0676012498
 C   -0.0224347533   -0.0174434247    0.0346328735
 C   -1.0792909613   -0.7233630422   -0.7962270431
 C   -1.1978070253   -2.1987936801   -0.5337804477
 C   -0.5913900235   -2.8397605179    0.4614647116
 C    0.3086977009   -2.1780773621    1.4671565535
 C    0.6517118712   -0.7469436655    1.1229264644
 O    1.3085600533   -0.5350189473   -0.1326701572
 H    0.7275566480    1.9125657749    0.6268890947
 H   -0.0831436204    1.9007049471   -0.9486091212
 H   -1.0456992002    1.8203986619    0.5351056459
 H   -2.0507497304   -0.2395368546   -0.6159880605
 H   -0.8622930780   -0.5465587577   -1.8597381409
 H   -1.8376510615   -2.7531346630   -1.2160051863
 H   -0.7412863761   -3.9098500087    0.5804239541
 H   -0.1615042962   -2.1965857738    2.4617697767
 H    1.2404894335   -2.7512155002    1.5757972861
 H    1.0731903034   -0.1621081744    1.9428787765