14

 O   -0.0895446251    1.4380505650    0.0140774995
 C    0.0035961533    0.0267311600    0.0372499710
 C    0.6534579258   -0.5305750579   -1.2654777882
 C   -0.0645695912   -0.1262629461   -2.4597719962
 C   -0.6733199781    0.2043525985   -3.4491267262
 C   -1.3573853472    0.5767420528   -4.5701705048
 N   -1.9385397467    0.8915315320   -5.5255925376
 C    0.7351143342   -0.4673716735    1.2052547149
 C    1.3796455452   -0.8469286172    2.1458970605
 H    0.7797556862    1.7998471354    0.2206696853
 H   -1.0320393879   -0.3288704735    0.0755114292
 H    1.6920414443   -0.1809233689   -1.3169375497
 H    0.6921343946   -1.6247915783   -1.2050243729
 H    1.9274642225   -1.1857057582    2.9911255652