16

 O   -0.0829735971   -0.0765188199   -0.3740621751
 C   -0.0800586881    1.1110968298   -0.1244850983
 C   -1.3482428172    1.9352128201    0.0510507983
 C   -1.4395372042    2.5394558440    1.4531607897
 O   -0.6835254524    3.7342426148    1.7106797367
 C    0.5389646684    4.0522485600    1.2416227729
 O    1.0832099388    5.0361687778    1.6644992759
 C    1.1829760108    3.2594808260    0.0967647722
 N    1.0719682186    1.8126872617    0.1127645590
 H   -1.4289205259    2.7229831711   -0.7072692548
 H   -2.1882939558    1.2524831572   -0.0905381247
 H   -2.4695482510    2.8436441297    1.6535220528
 H   -1.1597933900    1.7903515966    2.2028347788
 H    0.7922071146    3.6863124590   -0.8393850388
 H    2.2388889963    3.5228888100    0.1398642511
 H    1.9202814643    1.2795793421   -0.0098163256