19

 C   -0.1268967369    1.0460485701   -1.2474875009
 N   -0.1150306362    0.3565514796    0.0296954834
 C   -1.3260842784   -0.3667571873    0.3665781392
 C   -1.4365125708   -0.6774109458    1.8558758975
 O   -0.7364932833   -1.8469061825    2.2460441378
 C    0.6370727981   -1.8226934298    2.3290962824
 N    1.2332622093   -2.6856848949    3.0558844083
 C    1.4135809442   -0.8512746101    1.5715394209
 C    1.0875116558    0.0217029129    0.5900877520
 H    0.7683585866    1.6644610576   -1.3431063757
 H   -0.1586011300    0.3526246961   -2.1023420255
 H   -1.0032375400    1.7000727952   -1.3105612710
 H   -2.1770517847    0.2598170979    0.0738332177
 H   -1.4075339673   -1.3125420200   -0.1944249560
 H   -1.1177020293    0.1895318674    2.4478091098
 H   -2.4829695982   -0.8873849360    2.0923618073
 H    0.5388630990   -3.2740005422    3.5196564953
 H    2.4633924796   -0.8899680525    1.8324233505
 H    1.9071185124    0.5980753642    0.1696564071