20

 C    0.3162093660    1.4757076305   -0.2682776879
 C    0.0388144293    0.0047409514    0.0278271214
 O   -1.2999538071   -0.1894890851    0.4293872245
 C    0.6092007711   -0.9652652702   -1.0568168297
 C    1.8543921179   -1.1902762479   -0.1581980077
 C    1.0294631411   -0.6466737704    1.0377969927
 N    1.6704538277    0.1576669741    2.0454685152
 C    1.6355468814   -0.1277301196    3.3788702677
 O    1.0641428880   -1.0690879544    3.8827345128
 H    1.3555858504    1.6457691202   -0.5699644121
 H   -0.3159157244    1.8209745558   -1.0954777673
 H    0.0994866040    2.0908315378    0.6102110908
 H   -1.8771870795    0.2713532863   -0.1891316933
 H   -0.0151145100   -1.8589451671   -1.1239113353
 H    0.7731767752   -0.5604559475   -2.0582957912
 H    2.2462227488   -2.2045244651   -0.0673819093
 H    2.6793003192   -0.5210320082   -0.4221295957
 H    0.5129111170   -1.4513961691    1.5625062028
 H    2.2129916704    0.9562520325    1.7556073027
 H    2.2065032235    0.6182845259    3.9679675890