16

 O   -0.1455196800   -0.0496387242   -0.5370027796
 C    0.1322878311    0.8298114982    0.2355413921
 C    1.2646539576    1.8459095463   -0.0043320874
 N    1.3435468542    2.8487950381    1.0490445795
 C    2.6984061238    2.8334236791    1.6419226608
 C    3.3871321548    1.6826456153    0.9604599821
 C    2.6033694147    1.1233100679    0.0449282787
 C    1.0508091828    2.4639742503   -1.3937050950
 O    1.0286261310    3.6522753408   -1.5801937710
 H   -0.3943732367    0.9896253776    1.2006525704
 H    1.1331967745    3.7560161725    0.6463306990
 H    3.2331775380    3.7804043626    1.4802441108
 H    2.6516821004    2.6849694792    2.7305070863
 H    4.3901038189    1.3617823413    1.2142946146
 H    2.8133229275    0.2666164468   -0.5810817137
 H    0.9062382775    1.7294772582   -2.2091999076