14

 C   -0.0622239689    1.4939937964    0.0009837726
 N   -0.0236551273    0.0351988339    0.0056447908
 C   -0.0127060755   -0.6696533676    1.1899624361
 O   -0.0330816742   -0.1701910637    2.2856430298
 C    0.0033539329   -0.6751115704   -1.2514835815
 C   -1.2104075127   -0.4256547718   -2.0622706618
 N   -2.1739347895   -0.2281213794   -2.6659766402
 C    1.2125496429   -0.3613266710   -2.0465869427
 N    2.1720078161   -0.1129005575   -2.6378477504
 H    0.8230709728    1.9015601409   -0.4972890824
 H   -0.9612192011    1.8543440238   -0.5090002873
 H   -0.0775388945    1.8149265065    1.0417557437
 H    0.0173984106   -1.7638387374    1.0185717346
 H    0.0304414384   -1.7502012825   -1.0273716113