23

 C   -0.0260147353    1.4704729185   -0.2036678691
 C   -0.0051219030    0.0195763003   -0.0793472636
 C    0.0227994503   -1.1799120719    0.0244573741
 C    0.0214072457   -2.6337598460    0.1481444654
 C   -1.3900071043   -3.2507293949    0.0787139596
 C   -1.3742314414   -4.7772103368    0.2227335137
 C   -2.7556564610   -5.3935070289    0.1586024264
 C   -3.3844307913   -5.7219252243   -1.1731114642
 C   -2.9387957185   -6.8319525046   -0.2515111376
 H    0.9886394118    1.8808590636   -0.2588167020
 H   -0.5584224649    1.7872092991   -1.1076053180
 H   -0.5240767356    1.9387371790    0.6528176968
 H    0.6458329521   -3.0717122421   -0.6428657970
 H    0.4959085089   -2.9233845657    1.0959640105
 H   -2.0098806694   -2.8088820048    0.8680744684
 H   -1.8584166401   -2.9723677517   -0.8721071090
 H   -0.7487447727   -5.2131902303   -0.5687602195
 H   -0.8932939859   -5.0483319135    1.1732701541
 H   -3.4392285479   -5.0317634194    0.9235483631
 H   -4.4479915174   -5.5549884064   -1.3032119914
 H   -2.7962142611   -5.5418954017   -2.0675547297
 H   -2.0535761457   -7.3954200200   -0.5288931907
 H   -3.6982492534   -7.4216124476    0.2501662898