19

 C   -0.2970009891    1.4610132408   -0.0079135969
 C   -0.0121390151   -0.0372657899   -0.0217079688
 O   -1.1742288010   -0.7781950079   -0.3304356174
 C    1.2871536711   -0.4262718698   -0.8042942858
 C    2.0229173417   -0.5024389473    0.5495836061
 C    0.6610343758   -0.5690536385    1.2711990817
 O    2.8647298001   -1.6379352030    0.7280588059
 C    4.1410744539   -1.4451244296    1.1081555886
 O    4.9113294168   -2.3421762607    1.2734465872
 H    0.5867167708    2.0387889662    0.2822024589
 H   -0.6004291847    1.8069638035   -1.0040503320
 H   -1.1035627152    1.6866916222    0.6962728889
 H   -1.5720912255   -0.4030495751   -1.1238630443
 H    1.1797371646   -1.4264535164   -1.2295884380
 H    1.6718077098    0.2633199087   -1.5599218582
 H    2.5851009935    0.4091078445    0.7811834720
 H    0.5338237113    0.0023638621    2.1931523041
 H    0.3721443856   -1.6091575546    1.4358813292
 H    4.3894121455   -0.3740008551    1.2479670285