15

 O    0.1540692049    1.4070512272   -0.0826505086
 C    0.0849312992    0.0173441545   -0.0591716076
 C   -1.3146347815   -0.6126626077    0.0344626295
 O   -2.0222914358   -0.0867519317   -1.0941488795
 C   -1.1854198739   -1.2302756882   -1.3026914893
 C    0.2403273172   -0.7246033951   -1.4602660453
 O    0.4231030765    0.0988333420   -2.5991277969
 C    1.6205875043    0.7205936683   -2.7105795151
 O    1.8714640764    1.4602503622   -3.6118360991
 H   -0.5516226688    1.7058146965   -0.6729787338
 H    0.7964583456   -0.3460398271    0.6849935632
 H   -1.8955144571   -0.9162888912    0.8968086414
 H   -1.6478666727   -2.1165971341   -1.7180734729
 H    0.9838795468   -1.5279041969   -1.4248100555
 H    2.3233365389    0.4573377314   -1.8990213704