14

 C    0.3035370336   -0.3320110973   -1.0917212081
 C    0.1382035235    0.4655245988   -0.2081408650
 C   -0.0204939114    1.4268912055    0.8857438117
 N    1.1861725243    2.2001102165    1.1834062782
 C    1.4930801304    3.2805649276    0.3946112802
 N    2.7227893757    3.7780497598    0.2689118730
 N    2.4733367531    4.8304297825   -0.5149383782
 N    1.2143025026    4.9832269087   -0.8629526494
 N    0.5622770398    3.9999255784   -0.2911336181
 H    0.4373577106   -1.0291053847   -1.8817327588
 H   -0.8162123652    2.1381801555    0.6494326533
 H   -0.3187698535    0.9018668324    1.7995461424
 H    1.9956915877    1.6427380631    1.4173549666
 H    3.1978932586    5.4595283831   -0.8248593779