12

 C    0.0368732020   -1.1665564109   -0.0002045536
 C   -0.0086827977    0.0345343884    0.0204071668
 C   -0.0389752288    1.4769554028    0.0336091616
 C    0.5275316942    2.1680478363    1.2482269647
 N    1.2688409727    2.2018263824   -0.0058933705
 C   -1.1165017462    2.0929512421   -0.7027505793
 C   -2.0292881069    2.5994193638   -1.2965609302
 H    0.0665867157   -2.2279956058   -0.0195887903
 H    0.0860252941    3.1141158489    1.5453290391
 H    0.8687367296    1.5301665418    2.0581970261
 H    2.0134714466    1.5080108339    0.0076085827
 H   -2.8305073252    3.0477022863   -1.8302309971