18

 O   -0.5117613893    0.6408014176   -0.6861477477
 C    0.1085202512    1.0682430413    0.2531385897
 C    1.3465340888    1.9360328216    0.1389472931
 C    1.4717673162    2.6290870526   -1.2174866416
 O    2.7146591018    3.3103255375   -1.3101173683
 C    3.0919531206    4.0607650840   -0.1929859947
 C    2.2360369009    5.1410357234    0.4095645483
 C    2.4696644395    3.8340051724    1.1638079992
 N    1.3986813841    2.8657437869    1.2657422423
 H   -0.1863328727    0.8457304187    1.3035998546
 H    2.2040137470    1.2485408924    0.2385141528
 H    1.4564684385    1.9058004779   -2.0348987783
 H    0.6255802606    3.3190454934   -1.3626882379
 H    4.1613127348    4.2370916839   -0.2336790416
 H    2.7242631907    6.0429929137    0.7622170896
 H    1.2409662762    5.2972326391    0.0062357667
 H    3.1241250081    3.8724897833    2.0319664235
 H    0.5052797029    3.3318760802    1.3841151802