23

 C    0.3378918551    1.5214075038   -0.1933914591
 O    0.2049278867    0.1311127807   -0.0240169546
 C    0.6604619658   -0.6053207467   -1.1403004564
 C    0.4703934207   -2.1062790381   -0.8882551552
 C    0.9026199631   -2.9465061363   -2.1217095616
 C    2.2959684708   -3.5296991206   -1.7706249161
 C    2.3436091423   -3.3989444044   -0.2694414235
 C    1.3581601132   -2.6466889635    0.2261387104
 C    1.1102824156   -2.3268720697    1.6677439857
 H    1.3890632993    1.8185816947   -0.3363137322
 H   -0.2392601997    1.8835512038   -1.0593463224
 H   -0.0448703162    2.0014410651    0.7106963877
 H    0.0936489351   -0.3092575481   -2.0404202339
 H    1.7244792103   -0.3858417034   -1.3372932076
 H   -0.5920747659   -2.2524808671   -0.6548252556
 H    0.1904250989   -3.7631895039   -2.2700570585
 H    0.9101810911   -2.3602088617   -3.0460668987
 H    2.4069941089   -4.5660048952   -2.1109579598
 H    3.1116222090   -2.9671614933   -2.2473144603
 H    3.1199334381   -3.8620760052    0.3318775597
 H    1.8570844405   -2.7953375304    2.3152597338
 H    1.1168417472   -1.2458971430    1.8345087810
 H    0.1187206602   -2.6794573674    1.9808637372