16

 C    0.0641977314    1.4641902052   -0.0197237041
 N    0.0117955886    0.0094323425    0.0011305813
 C   -0.0458167588   -0.6738447358    1.2013727794
 N   -0.0553268735   -0.0701056449    2.3239001492
 C    0.0210914403   -0.6654017348   -1.2082357970
 N   -0.0236911293   -1.9975226800   -1.3082029935
 N    0.0054699142   -2.1949286522   -2.6273287485
 N    0.0646918056   -1.1216632322   -3.3890126211
 C    0.0763371643   -0.1181329235   -2.5097282949
 H    0.9818879279    1.8128393588   -0.5065593788
 H   -0.7983139509    1.8762706213   -0.5554478457
 H    0.0480259482    1.8073284394    1.0130346865
 H   -0.0802789063   -1.7544494027    1.0529927350
 H   -0.1004438114   -0.7469746720    3.0815100166
 H   -0.0167985784   -3.1230671148   -3.0160349049
 H    0.1216865779    0.9070302057   -2.8348237296