22

 C   -0.0311987741    1.4741538835    0.2976855271
 C    0.1440588732   -0.0297251389    0.1053728648
 C    0.8136649313   -0.4631410384   -1.2093851484
 C    1.1427888797   -1.9413628697   -0.9590110859
 C    1.6508733259   -1.9623159402    0.4980942290
 C    0.9718742202   -0.7594554322    1.2166745506
 N    1.9629791178    0.0782768848    1.8831373620
 C    1.7531194144    0.6680324606    3.0887831741
 O    0.7324704146    0.5893962264    3.7414707360
 H    0.9279821975    1.9987689458    0.2391678046
 H   -0.6846490478    1.8883675973   -0.4768928463
 H   -0.4733701491    1.6975692941    1.2729854656
 H   -0.8514662925   -0.4942576822    0.1255544256
 H    0.1783908640   -0.3005473129   -2.0850881288
 H    1.7375307264    0.1113156710   -1.3693957508
 H    0.2292817592   -2.5404772507   -1.0518400935
 H    1.8711465105   -2.3546174456   -1.6621676905
 H    1.4496339985   -2.9091618596    1.0051400404
 H    2.7388467234   -1.8285926624    0.5175031474
 H    0.3019263934   -1.0823331211    2.0147872837
 H    2.8498327289    0.2375182578    1.4311441437
 H    2.6423880644    1.2378098925    3.4269062094