19

 C   -0.1228767900    1.6400794494    0.0003366709
 C   -0.0552434977    0.1192247231   -0.0027317796
 C    1.1435745299   -0.5808685418   -0.6844117773
 C    2.0970940253   -0.3721619764    0.5290995744
 O    2.4865034525   -1.7693318695    0.6216125316
 C    1.0652462760   -1.8225951907    0.2709677258
 C    0.4033741453   -3.1515081838    0.1059495392
 C    0.6705568530   -0.6021472056    1.1618552811
 O    0.3098779003   -0.7121619025    2.4849011677
 H    0.8460494646    2.0878644079    0.2480783274
 H   -0.4238634061    2.0267396776   -0.9790135211
 H   -0.8559935064    2.0017906298    0.7308190451
 H   -1.0286824385   -0.3178782298   -0.2546612202
 H    1.4352055919   -0.5948741536   -1.7322496382
 H    2.8533598730    0.3904433079    0.7091054432
 H    0.4417266225   -3.7122271201    1.0446339319
 H   -0.6460261823   -3.0234047017   -0.1771956391
 H    0.9044170562   -3.7370413420   -0.6707092446
 H    0.2848115305    0.1676286118    2.8769417518