21

 C    0.2570837593    1.4976251446    0.0402146232
 O    1.1999992910    0.4456914803   -0.1693234589
 C   -0.1808650642    0.0969203923   -0.0145167984
 C   -0.5429996298   -0.6809546551    1.2234133603
 C   -2.0843730964   -0.7610664473    1.5132498471
 C   -2.2490296333   -2.2932255981    1.5793487781
 C   -1.0001418089   -2.7199554915    2.4046870601
 C   -0.2424861926   -2.1979806539    1.1492591775
 C   -1.4454876156   -2.7550735616    0.3310597125
 H    0.3253828509    1.9999209627    1.0048542362
 H    0.0901802885    2.1551589159   -0.8121855884
 H   -0.6494955391   -0.2401176173   -0.9413104887
 H   -0.0020487291   -0.2335370785    2.0639725586
 H   -2.3580829125   -0.2628051443    2.4473746896
 H   -2.6813554405   -0.3155283603    0.7102066761
 H   -3.2459311827   -2.6771996291    1.7980772458
 H   -0.8160315671   -2.2215693986    3.3619630912
 H   -0.9226108426   -3.8032499050    2.5227150950
 H    0.7875942207   -2.4805476266    0.9326618369
 H   -1.4081698172   -3.8423329164    0.2331303945
 H   -1.6851114887   -2.3049796423   -0.6368867186