17

 C   -0.1836878471    1.4378872515   -0.0652431082
 C   -0.2055718671   -0.0155084827   -0.0541007454
 C   -0.2573490368   -1.2195221200   -0.0436429270
 C   -0.2786263340   -2.6582016627   -0.0327378920
 N   -1.3701936042   -3.3080072262    0.0131456189
 N    1.0322503772   -3.2004215059   -0.0785538185
 C    1.3742874512   -4.5386403574   -0.0820889217
 C    2.8718243435   -4.7885748694   -0.1370118138
 O    0.5550530847   -5.4356180007   -0.0447660535
 H    0.8410838805    1.8227497418   -0.0963927400
 H   -0.7169869869    1.8299067286   -0.9380808665
 H   -0.6681099020    1.8426927155    0.8299526051
 H   -1.1745092078   -4.3105615819    0.0127771994
 H    1.7803144508   -2.5251329414   -0.1116343989
 H    3.3741076476   -4.3396884293    0.7263937449
 H    3.0452363834   -5.8639490105   -0.1360546527
 H    3.3071898073   -4.3520510293   -1.0420864300