15

 N    0.1164042810    1.4533326112    0.4120208110
 C    0.0491808504    0.1014565979   -0.0841238640
 C   -1.3855454238   -0.5871293229   -0.0119071476
 N   -1.2649480976   -0.7374280038   -1.4720827647
 N   -1.6496738570   -1.4189163456   -2.5855615581
 C   -0.5738685170   -1.1863360184   -3.3444491688
 O   -0.5266390435   -1.6240307448   -4.6080365497
 N    0.4665441557   -0.4787444737   -2.7880926668
 C   -0.0424984702   -0.2359837026   -1.5885426494
 H    1.0710972100    1.7959323685    0.3879818884
 H   -0.4378590411    2.0780234143   -0.1661495126
 H    0.8058484354   -0.4992753088    0.4275046063
 H   -1.4129665320   -1.5351573197    0.5307033184
 H   -2.2021826627    0.0635298815    0.3087788576
 H    0.3327602424   -1.3571960031   -4.9563928601