17

 O   -0.1257437373    0.0531169775    0.6742223770
 C   -0.0567877193    1.1566216951    0.1690268267
 C   -1.2239282819    1.8453061560   -0.4090876257
 C   -1.4608646419    3.1717676107   -0.5213632249
 N   -0.6812524438    4.2239682187   -0.1152587234
 C    0.3875910041    4.0246006208    0.8528930516
 C    1.4860819517    3.1750144892    0.2583878379
 C    2.1184808480    2.0710119940    1.0609503440
 N    1.1894996205    1.7888224548   -0.0050715546
 H   -2.0238219981    1.1750383943   -0.6998896631
 H   -2.3970183026    3.4875044538   -0.9746449376
 H   -1.1446022303    5.1167529047   -0.0824254575
 H    0.7748316340    5.0052068775    1.1435292068
 H   -0.0004087790    3.5276351548    1.7568560877
 H    2.0763135042    3.6684702708   -0.5125172629
 H    3.1562969059    1.8008858658    0.8862649796
 H    1.7684923058    1.9184432815    2.0799941386