19

 C   -0.0437338372    1.5634848991   -0.0656986595
 C   -0.0266199722    0.0666638090   -0.0029573609
 C    0.5184990138   -1.0443804570   -0.8722516979
 O    1.1398470910   -1.7474125998    0.2003882926
 C    0.4581239315   -0.8603515558    1.1572633450
 C    1.3805199531   -0.3530599448    2.2332161893
 C   -0.8054197986   -1.6064831672    1.5769198614
 O   -1.5254383252   -1.8110006465    0.3563894956
 C   -0.9735145319   -0.9344553286   -0.5980146917
 H    0.9399078017    1.9908728871    0.1588589875
 H   -0.3307998949    1.9046724528   -1.0654833860
 H   -0.7653846954    1.9863608920    0.6432351785
 H    0.9992109387   -1.0589425049   -1.8448180740
 H    2.2374032172    0.1627742170    1.7924271146
 H    0.8581878842    0.3406022483    2.8999431177
 H    1.7583447541   -1.1879730663    2.8319227161
 H   -0.5716479059   -2.5813252965    2.0159242963
 H   -1.4087201666   -1.0210471413    2.2893861331
 H   -1.6561294776   -0.6706406066   -1.3978240977