19

 C   -0.1163245175    1.5312740564   -0.0120613430
 C    0.0032497092    0.0013451563    0.0122005529
 C    0.7327598352   -0.5212389867   -1.2304190842
 O    1.0104340770   -1.9085022961   -1.1323542620
 C    1.9405963275   -2.2075292294   -0.1002056858
 C    1.6331988348   -1.4672148784    1.1883080213
 C    0.7361093479   -0.4876954600    1.2369163985
 C    1.9398603441   -3.6559569010    0.1124692694
 C    1.9705895634   -4.8386595813    0.3178087870
 H    0.8716900366    2.0047886466   -0.0118030486
 H   -0.6539334700    1.8707254308   -0.9037240988
 H   -0.6608467319    1.8952471921    0.8649607501
 H   -1.0119820949   -0.4215716050    0.0161876750
 H    0.1231141035   -0.4009938399   -2.1305541016
 H    1.6667283867    0.0489436879   -1.3739065539
 H    2.9559286331   -1.9165990415   -0.4339201365
 H    2.1834092751   -1.7904789889    2.0662122271
 H    0.5237706965    0.0091413420    2.1812977451
 H    1.9878690035   -5.8864247040    0.4902233681