21

 C   -0.3147206839    1.4871958644   -0.0826175497
 C   -0.0359900503    0.0298117812    0.0901463250
 O   -0.7731377743   -0.8798728167   -0.7465744993
 C   -0.9327372348   -1.7989236969    0.3658497971
 C   -0.0602280288   -0.9338571552    1.2645493721
 C    1.2469188187   -0.6014276897    0.5490581062
 C    2.0584095770   -1.5809035335   -0.2703707587
 C    2.7904120671   -2.6061063237    0.5884967749
 O    3.5400443122   -3.4450206780   -0.2775311620
 H    0.2394723443    2.0735244617    0.6558826984
 H   -0.0048262864    1.8200026312   -1.0799474383
 H   -1.3826136955    1.6999639123    0.0282347999
 H   -1.9810537287   -1.8359770454    0.6834279044
 H   -0.5881210321   -2.8113219871    0.1233700379
 H   -0.2199963684   -0.7558259279    2.3200776874
 H    1.8413864604    0.0906138781    1.1449992661
 H    1.4129188040   -2.1017066962   -0.9834038175
 H    2.7995478495   -1.0356335545   -0.8670746064
 H    3.4466752800   -2.0897757057    1.3090954081
 H    2.0602327897   -3.1858857025    1.1759623574
 H    4.0013939603   -4.0961552959    0.2587777271