19

 C   -0.6348943131    1.2787165383   -0.0414396672
 C    0.1315943045   -0.0343274392   -0.0606021786
 C    1.5247849492   -0.1179796891   -0.7433928245
 C    1.9686468921   -1.1101007082    0.3644535850
 C    0.7733319820   -0.6119194104    1.2358868977
 C    1.1830804397    0.4214651281    2.2806202593
 O   -0.0570879401   -1.6056849378    1.8121197744
 H   -0.0217231367    2.1033153830    0.3374938882
 H   -0.9619594867    1.5507969500   -1.0511088008
 H   -1.5293661075    1.2073060794    0.5870467873
 H   -0.5078584690   -0.8290636515   -0.4600669346
 H    1.5558697300   -0.4684983914   -1.7771020113
 H    2.0648580398    0.8325190071   -0.6858282366
 H    1.8071968813   -2.1500914047    0.0701468067
 H    2.9765169947   -1.0031099325    0.7755746776
 H    1.7998855605    1.2157272280    1.8491724598
 H    0.3032616971    0.8786814965    2.7431570616
 H    1.7770259382   -0.0561249393    3.0706386308
 H    0.3512694639   -1.9035841563    2.6323420252