19

 C   -0.2032905219    1.5534330918    0.0462226392
 C    0.0399278439    0.0482927619   -0.0156462230
 C    0.9059355799   -0.4938672667   -1.1897467181
 C    2.2521480027    0.2641806169   -1.3253530214
 C    2.7345248218   -0.5242667069   -0.0925762880
 O    2.1764752187    0.0068724394    1.1197443699
 C    0.8566286870   -0.5358674130    1.1602979228
 O    1.0151954858   -1.8943796250    0.7906995699
 C    1.6814927231   -1.6391677271   -0.4260167114
 H    0.7227835177    2.1017975861    0.2337360456
 H   -0.6407767819    1.9250756306   -0.8859092982
 H   -0.8990958275    1.7963043245    0.8565657816
 H   -0.9220420468   -0.4763548158   -0.0289731768
 H    0.3357594101   -0.7229489827   -2.0899533428
 H    2.7945981981   -0.0451000374   -2.2247561322
 H    2.2573119288    1.3532258540   -1.2598876230
 H    3.7927666664   -0.7341200227    0.0664258410
 H    0.4526293405   -0.4427644945    2.1679374549
 H    1.9784209936   -2.5521572634   -0.9346265300