20

 C   -0.4118618028    1.5331930233   -0.4464803260
 C    0.0189245054    0.1200987164   -0.0326860221
 C    0.9625670265   -0.5186909704   -1.0313378467
 C    1.1621311337   -2.0139934891   -1.1800109579
 C    0.3997714779   -3.0713461946   -0.4006821948
 O    0.1815549578   -4.2197067678   -1.1856600097
 N    0.4774248491   -1.2395211084   -2.1958277820
 C   -0.7732295422   -1.4179711447   -2.7079753765
 O   -1.2908388387   -2.4973723704   -2.9348231300
 H    0.4562954224    2.1848987872   -0.5913634069
 H   -0.9776851446    1.5215594841   -1.3836307968
 H   -1.0460261822    1.9861540817    0.3207507907
 H    0.5355346458    0.1659120037    0.9343024961
 H   -0.8632657808   -0.5107212423    0.1131925414
 H    1.8398107032    0.0930484376   -1.2468224958
 H    2.1545093662   -2.3417405968   -1.4878532864
 H    1.0043400647   -3.3799612351    0.4598409828
 H   -0.5411643808   -2.6582829125   -0.0092678000
 H   -0.3754370323   -3.9289095975   -1.9277872447
 H   -1.2593225183   -0.4663392443   -2.9868189346