18

 C   -0.1291401119    1.3882900747    0.0092707267
 O    0.0197716325   -0.0113360797   -0.0261930487
 C    0.6513418912   -0.5263957966    1.1214927909
 C    0.7538886122   -2.0457174595    0.9655247200
 C    1.3914134184   -2.7030537235    2.1503640985
 C    2.6390568641   -3.2303721685    2.2752002640
 O    2.8396918383   -3.7134547601    3.5101137740
 N    1.6884027100   -3.5107228533    4.2632521447
 C    0.8484845176   -2.9171169363    3.4534516305
 H    0.8432639155    1.9013462383    0.0764576371
 H   -0.6233299701    1.6882293235   -0.9178035995
 H   -0.7462468475    1.7121051915    0.8623833588
 H    1.6571402988   -0.0904198642    1.2467188394
 H    0.0773968288   -0.2728565693    2.0298101266
 H   -0.2546901424   -2.4419473202    0.8030372727
 H    1.3264610595   -2.2638318650    0.0587387257
 H    3.4656653881   -3.3354616596    1.5890546085
 H   -0.1359163929   -2.6589189322    3.8199416201