16

 O   -0.2908832566    0.2447972926   -0.2416381223
 C   -0.1430370995    1.4392101698   -0.1860045290
 C    1.1951775366    2.1060900879    0.0299858223
 C    1.5563365263    2.9679575266    1.1920136763
 C    0.6986574983    2.8828904609    2.4266013541
 O   -0.3972182532    1.9674338544    2.2978498853
 C    0.8002099037    1.5092811018    2.9484837684
 C    1.7563143939    0.7346330125    2.0547167257
 N    2.2102130612    1.6467053861    0.9732452253
 H   -0.9725572581    2.1415944125   -0.4163558166
 H    1.6183926494    2.3972018903   -0.9361075176
 H    2.1717481311    3.8535171555    1.0616984267
 H    0.5180278762    3.7608002730    3.0389236066
 H    0.6811509503    1.2499797148    3.9980544941
 H    2.6377099716    0.4479364751    2.6385381515
 H    1.3061498386   -0.1646565539    1.6302958393