23

 C   -0.0238177313    1.3916901833    0.0603596259
 O    0.0119532440   -0.0140880563    0.0239344706
 C   -1.2771308806   -0.5950301581    0.0152738173
 C   -1.1292231354   -2.1248889602   -0.0418748812
 C   -0.4015361991   -2.5209075217   -1.3481955034
 C   -0.3292990464   -2.6223635536    1.1792522016
 C   -2.5399603020   -2.7381513599   -0.0604081917
 C   -2.6746861542   -4.2402447259    0.1358743117
 O   -3.5230262109   -2.0491533586   -0.2249456173
 H    1.0098141968    1.7467671173    0.0613598137
 H   -0.5437020847    1.8098799148   -0.8159807921
 H   -0.5290651326    1.7641207783    0.9655752081
 H   -1.8369825964   -0.3036611803    0.9180801162
 H   -1.8571465618   -0.2400455649   -0.8482893419
 H    0.5548326173   -1.9954064699   -1.3977622978
 H   -0.2067432263   -3.5960017483   -1.3956130679
 H   -0.9894098379   -2.2396741583   -2.2281739399
 H   -0.8596489396   -2.4129534739    2.1148732449
 H   -0.1387622987   -3.6978507020    1.1285218530
 H    0.6313711129   -2.1042694083    1.2166638032
 H   -2.5284149173   -4.4855249298    1.1938987223
 H   -3.6790642131   -4.5476397473   -0.1579773946
 H   -1.9275597127   -4.8033157664   -0.4297529709