17

 O   -0.0057157110   -0.0418552654    0.1048485591
 C    0.0126122972    1.1586878953    0.0306126989
 C    1.2839982892    1.9743664375   -0.1120147659
 C    1.2735531691    2.9246489707   -1.3405403723
 C    0.1738484922    3.8901407401   -1.2447531791
 N   -0.6730987179    4.6709869085   -1.1466857491
 C    2.6227610601    3.6318954875   -1.4896223129
 C    2.7672755913    4.9380644872   -2.1727945826
 N    2.9618863403    4.8271276387   -0.7135623431
 H   -0.9260334922    1.7542299466    0.0672325897
 H    1.4134681327    2.5764931382    0.7966075838
 H    2.1290043930    1.2864183658   -0.1926652286
 H    1.1055974938    2.3216918330   -2.2430150455
 H    3.4395710774    2.9166466750   -1.5642064195
 H    3.6673453365    5.1486426723   -2.7423424053
 H    1.8686357110    5.4290659008   -2.5351643143
 H    2.1372620774    5.1892676183   -0.2370067533