16

 C    0.4423893346    1.4769272418    0.2895756017
 O    1.1753114488    0.3495144561   -0.1959470692
 C   -0.2021597063    0.1674170326    0.1300901761
 C   -0.4948254967   -0.6914766561    1.3082726670
 C   -1.8515447791   -0.9520200551    2.0196298535
 C   -0.7029214509   -1.5524005791    2.8635732102
 C   -0.0809315917   -2.1637287039    1.5889923244
 O    0.0831681591   -0.3170167894    2.6246663290
 H    0.7090282758    1.8060164954    1.2908861874
 H    0.2506583465    2.2619944986   -0.4402857711
 H   -0.8557227925   -0.0023211449   -0.7270489734
 H   -2.3269186619   -0.0672670382    2.4447043265
 H   -2.5585214758   -1.6373772294    1.5452607747
 H   -0.7214110549   -1.9390124013    3.8816365961
 H   -0.6277753991   -2.9585886719    1.0757526226
 H    0.9950581043   -2.3313233151    1.6281500347