17

 O   -0.1354312161   -0.0334963729    0.1048763331
 C   -0.0286292243    1.1688876063    0.0515610223
 C    1.2598364516    1.9094555882    0.0089609484
 C    1.1605060295    3.2514992264   -0.0578048330
 C    2.2750636856    4.2541417901   -0.0791514338
 O    3.4679544609    3.8516867922    0.5488527384
 C    4.2585509524    2.8999601181   -0.1363611451
 C    3.7424242951    1.4876543041   -0.1054557970
 C    2.4703694435    1.0877036824   -0.0083575089
 H   -0.9280731076    1.8245709600    0.0310639700
 H    0.1587717077    3.6804594992   -0.0915059283
 H    2.4576320262    4.5731553695   -1.1220078979
 H    1.9505184895    5.1511706622    0.4621373761
 H    4.4324483576    3.2168316275   -1.1799864241
 H    5.2338102844    2.9314923364    0.3627747903
 H    4.5157106697    0.7237643491   -0.1581489392
 H    2.2612106341    0.0226391311    0.0248186786