17

 C   -0.2774498995    1.1802314662    0.5690115529
 O   -0.4263995017    0.2727831038   -0.5075578479
 C   -1.4166479531   -0.6800859624   -0.2954337782
 C   -1.5880099151   -1.6984522082   -1.4646091121
 C   -1.3464998934   -2.8318594275   -0.4607726048
 O   -0.0630519605   -2.6556751189    0.0994987235
 C   -1.1208264328   -1.8621103178    0.6591019896
 C   -1.4347507323   -2.0446067975    2.0859177860
 O   -1.9970284709   -1.2143113790    2.7595931500
 H    0.5142468596    1.8785117673    0.2901674378
 H   -1.2060214695    1.7402883025    0.7535000414
 H    0.0043984499    0.6685699006    1.4990889590
 H   -2.3742596025   -0.2197278190   -0.0104929734
 H   -2.5858235515   -1.6861853510   -1.9054172068
 H   -0.8260831858   -1.6272881770   -2.2423754853
 H   -1.7852618127   -3.8223745947   -0.4172996945
 H   -1.1134159781   -3.0281798374    2.4922441428