19

 C   -0.1136755281    1.5967869588    0.1995925254
 C    0.0205023357    0.0857137988    0.0670619205
 C    0.9707926210   -0.4991675022   -1.0420262808
 C    1.7246749603   -1.2544903794    0.0518946163
 C    2.2939900788   -0.3290259095    1.0835482195
 C    0.8221451680   -0.6882915774    1.1307669546
 O    2.1407233883   -2.5834943713   -0.0969999700
 C    3.4448261075   -2.7966833770   -0.3933561912
 O    3.8861355992   -3.8887313690   -0.5829618863
 H    0.8594875309    2.0853145656    0.3147048016
 H   -0.5951825224    2.0243365097   -0.6863620570
 H   -0.7228348443    1.8608958927    1.0706528206
 H   -0.9726414679   -0.3602662525   -0.0396896182
 H    0.4480032018   -1.1702221467   -1.7260898525
 H    1.5587215145    0.2188853044   -1.6236176815
 H    2.8851235544   -0.8147668066    1.8535398123
 H    2.6354433436    0.6685142757    0.8187379029
 H    0.4053695509   -1.1854644598    1.9979262514
 H    4.0308519379   -1.8603695745   -0.4276263478