19

 N    0.1371421232    1.4069112030   -0.1781507662
 C   -0.0092584043    0.0079807729   -0.0566955549
 C   -1.0857868260   -0.8416556197   -0.1806431286
 C   -0.6086937181   -2.1811683618   -0.0088264812
 C   -1.4217323147   -3.4397790892   -0.0782226371
 C   -1.8412439014   -3.7930718411   -1.5062425658
 O   -2.6221189153   -4.9788792408   -1.4527292175
 C    0.7444160227   -2.0930869727    0.2207201780
 N    1.0992674223   -0.7623548055    0.1858189628
 H   -0.6562795540    1.8031279772   -0.6671378920
 H    0.1957607186    1.8668517498    0.7265789824
 H   -2.1094874425   -0.5396470764   -0.3480317798
 H   -0.8534464953   -4.2825636090    0.3304760551
 H   -2.3317993715   -3.3530653291    0.5280073607
 H   -2.4116453051   -2.9569060973   -1.9407895604
 H   -0.9414275956   -3.9298653541   -2.1264019118
 H   -2.8818980669   -5.2068584747   -2.3498289057
 H    1.4755216231   -2.8613129692    0.4159986933
 H    2.0331089408   -0.3945496723    0.2382954685