18

 C    0.0783052132    1.5215540381   -0.2662499828
 C    0.0834826112    0.0145349224   -0.0270106721
 C    0.6948297336   -0.8065493795   -1.1902355380
 C    1.4462206247   -1.9617060694   -0.5220267394
 C    2.7834419136   -2.3199181370   -1.1438486006
 O    3.2115577220   -1.8284443339   -2.1561407243
 C    1.6466963519   -1.5159241381    0.9442299201
 O    2.3195459997   -2.0780926568    1.7800638254
 N    0.9272435389   -0.3693238549    1.1001952445
 H    1.0946012528    1.8872512068   -0.4419378334
 H   -0.5335087871    1.7617925976   -1.1413880587
 H   -0.3402847078    2.0612722289    0.5899130655
 H   -0.9503274149   -0.3158860854    0.1559260094
 H   -0.0704159934   -1.1388712759   -1.8936758189
 H    1.4120771362   -0.1983880144   -1.7494118899
 H    0.8621824448   -2.8916481902   -0.4760139389
 H    3.3549617223   -3.0782257515   -0.5715505421
 H    0.8375649083    0.0425817429    2.0166633743