18

 C   -0.1279843351    1.6305324424    0.2536261127
 C    0.0352863814    0.1410561410    0.0143525535
 C   -1.3071602510   -0.5819260429   -0.1855215242
 O   -1.1496296285   -1.9812746411   -0.2950193351
 O    0.8944449267   -0.0673350105   -1.0897546521
 C    1.7581360208   -1.1533070742   -0.7961533972
 C    1.7031329327   -1.2742241965    0.7095773236
 N    2.4469441503   -1.9919167698    1.4294240119
 O    0.6967150894   -0.4619734832    1.1476629985
 H    0.8537242670    2.0867535168    0.3949216856
 H   -0.6082889483    2.0938713921   -0.6123949479
 H   -0.7405455710    1.8154194577    1.1393348715
 H   -1.9921589321   -0.3081279498    0.6301556568
 H   -1.7423050179   -0.2373685644   -1.1281179141
 H   -0.9253121177   -2.3180655773    0.5787289609
 H    1.4168408778   -2.0825244061   -1.2660577785
 H    2.7681279950   -0.9211947543   -1.1436786708
 H    2.2011870906   -1.9039501996    2.4162756950