13

 C   -0.0448109354    1.4383576100    0.0290098143
 N   -0.0871903754   -0.0203219288   -0.0400464760
 C    0.5994169496   -0.6287019377   -1.0523032751
 N    1.1776201918   -0.0076222000   -2.0361722823
 O    1.6639573350   -1.0554554337   -2.8839257990
 C    1.3698322161   -2.2743293455   -2.3542240104
 O    1.6381293545   -3.3375790574   -2.8352981340
 N    0.7080989788   -1.9926450221   -1.1610831237
 H    0.9650601611    1.8266081809    0.2099070555
 H   -0.3993089467    1.8466136485   -0.9193280379
 H   -0.7112679245    1.7663013805    0.8284638494
 H   -0.0149725761   -0.4903139271    0.8509542757
 H    0.2406368712   -2.6945001977   -0.6139680963