18

 C    0.0532458692    1.5186681604    0.0612090096
 C   -0.0674284647    0.0410935332   -0.0896982732
 C    0.6978013503   -0.9951572624   -0.8284730413
 C   -0.5055523502   -1.9171680941   -1.0949299709
 C   -0.4347334552   -3.0157978775   -0.0048355121
 C   -0.4840539421   -1.8329106497    0.9754351642
 N    0.7334049924   -0.9633539445    0.6820163411
 C   -1.2572700406   -0.9515993264   -0.0697210925
 O   -2.5758425270   -0.5642471141   -0.0987954037
 H    1.1086785893    1.8048239710    0.1059072106
 H   -0.4114231836    2.0407662423   -0.7818560551
 H   -0.4317463708    1.8626986749    0.9811319303
 H    1.6440549109   -0.9304587418   -1.3532032357
 H   -0.8287563712   -2.0916700518   -2.1197501547
 H   -1.3519950317   -3.6130560793    0.0373490032
 H    0.4387657667   -3.6722927503    0.0213024702
 H   -0.6956981047   -1.9257466845    2.0399569471
 H   -3.1369690770   -1.3466495152   -0.1476563271