16

 O    0.0934495622    0.0311343774    0.1037006655
 C   -0.0038566537    1.2342298041    0.1029375054
 C   -1.2728047349    2.0988818343   -0.0187689813
 C   -0.7381170357    3.5048169937   -0.0753673676
 C    0.5948435544    3.4607830371    0.0583681864
 N    1.0444882324    2.1384867975    0.2064742699
 C    1.5724877767    4.5612781655    0.1134350579
 C    2.6665800599    4.5872518817    1.1027057521
 O    2.9195571245    4.2243912011   -0.2540977566
 H   -1.8384303284    1.7948857954   -0.9067315509
 H   -1.9240649480    1.9113032258    0.8438420622
 H   -1.3330844731    4.4004566327   -0.1710852267
 H    2.0103589631    1.8726931450    0.0931570119
 H    1.2150191734    5.5122330321   -0.2771775455
 H    3.0744781351    5.5470297016    1.4151940432
 H    2.7510614221    3.7808822348    1.8287047142