19

 C    0.7039442873    1.2587318279    0.2666332797
 C   -0.1478344560    0.0422363819   -0.0891470933
 C    0.3616732774   -0.7242642758   -1.3208031047
 C    1.2350500015   -1.8200757906   -0.7075528635
 O    2.0428755755   -2.5206422438   -1.2651316525
 C    0.8927815440   -1.8439184890    0.7464169629
 C    0.9470430994   -3.1147186340    1.5432698750
 C    1.9971413313   -2.0604272785    1.7659197811
 O   -0.1388754202   -0.9274503627    0.9836618495
 H    1.7603757520    0.9870407536    0.3644242565
 H    0.6204600667    2.0255156934   -0.5107915668
 H    0.3706208374    1.6882032768    1.2149873985
 H   -1.1926355396    0.3445682598   -0.1997709999
 H   -0.4594497392   -1.2097445136   -1.8605360166
 H    0.9242074056   -0.1200764616   -2.0350227601
 H    0.1782691931   -3.2319871490    2.2985729042
 H    1.2264370006   -4.0141190835    1.0052685422
 H    2.9962100992   -2.2374327536    1.3825297465
 H    1.9279404240   -1.4618525578    2.6669752712