19

 C    0.2181509124    1.4759555950    0.3190191183
 C    0.1244581362   -0.0043269613    0.0121427495
 C    0.5441954417   -0.6156682046   -1.3177591549
 C    1.1565726875    0.1942365865   -2.4470761198
 O    2.1748567328   -0.5257982893   -3.1205426379
 C    1.3516509373   -0.8804031724   -0.0808801806
 O    2.6385563982   -0.2779022355   -0.0730792019
 C    3.2133459884   -0.0853828869    1.1364179344
 O    4.3039067017    0.3819252028    1.2583584268
 H    1.1459528593    1.9206119900   -0.0459583380
 H   -0.6166297808    2.0216099941   -0.1322633733
 H    0.1759431949    1.6439827352    1.4006290268
 H   -0.7270610034   -0.4916883317    0.4808768120
 H   -0.0454787794   -1.4597836637   -1.6634855709
 H    0.3881952528    0.4081939615   -3.1969290118
 H    1.5295753928    1.1583912110   -2.0816657309
 H    2.9028097831   -0.6205251226   -2.4957694456
 H    1.3483401361   -1.8723750798    0.3612098915
 H    2.5654715283   -0.4117437085    1.9713953163