18

 O    0.0498633162    0.2203282903    1.0748756935
 C   -0.0553005390    1.1888960690    0.3567453408
 C   -1.4002102194    1.5572370023   -0.2631364202
 C   -1.4094314409    1.7725251754   -1.7966787553
 C   -0.7311841001    3.0693395735   -2.2157604030
 O   -1.3650882023    4.0339434389   -2.5743279147
 C    0.8059419327    3.1299362840   -2.1650713358
 N    1.5191204326    2.1567991922   -1.3647001429
 C    1.1687285715    2.0627971127    0.0476241094
 H   -2.0943708800    0.7561299298   -0.0002489469
 H   -1.7597929992    2.4744104744    0.2240484851
 H   -0.9323768248    0.9166682532   -2.2897279100
 H   -2.4447672375    1.8326450843   -2.1390210654
 H    1.1546262103    3.0497232999   -3.2028539009
 H    1.0675355477    4.1440171484   -1.8385033894
 H    1.5705615402    1.2460012088   -1.8023741609
 H    0.9961930969    3.0809611012    0.4211925857
 H    2.0040274751    1.6373712217    0.6121413208