15

 O   -0.0054120947   -0.0565453381    0.0037512028
 C   -0.0198543341    1.1600475064    0.0073291385
 C    1.1955725317    1.9571714433    0.0008879198
 C    2.2334229367    2.5643480042   -0.0048032614
 N   -1.1920692502    1.8760536801    0.0178811277
 C   -2.5115703039    1.2297713274    0.0255257777
 C   -3.4543004915    2.4675972999    0.0355423922
 N   -2.5915010714    3.6640519860    0.0329125387
 C   -1.3875719569    3.2598837685    0.0232186018
 H    3.1566369851    3.0916312475   -0.0097641851
 H   -2.6242480102    0.5965167370   -0.8581470091
 H   -2.6117102654    0.5918441673    0.9073529683
 H   -4.1109044383    2.4950244690   -0.8395579293
 H   -4.0987372924    2.4900605803    0.9197746943
 H   -0.5191761545    3.9076747010    0.0189177829