15

 O    0.0021497805   -0.0305570376   -0.0225385764
 C   -0.0144129508    1.1808015821   -0.0228084135
 N   -1.1305829883    2.0297392773   -0.0022361539
 C   -0.7117086010    3.3494639290    0.0868577682
 C    0.6261574096    3.3677521591    0.0680831528
 C    1.1310520124    4.7661470476   -0.0482499778
 O   -0.0729819515    5.5447289939    0.0544737195
 C   -1.2576961381    4.7334935307   -0.0147290659
 N    1.0782773639    2.0599337519   -0.0332335787
 H   -2.0585884033    1.6602873519    0.1068990004
 H    1.8119089239    5.0786396347    0.7554407768
 H    1.6352604809    4.9630169464   -1.0085583750
 H   -1.7938388395    4.9161416030   -0.9604387865
 H   -1.9240238000    5.0275709208    0.8078659103
 H    2.0187293714    1.7160230291    0.0496803397