21

 C   -0.0599548545    1.4112097487   -0.3449075748
 C    1.2416713448    2.0258215054    0.2397033801
 C    2.0231821164    0.8596568180    0.9014433416
 C    1.4892740986   -0.3809355766    0.1712451933
 C   -0.0143523204   -0.1025895420   -0.0177170336
 O   -0.7994953711   -0.4786377207    1.1094183571
 C   -0.5570017382    0.2003855732    2.3271256038
 C    0.8529405217    0.0276408188    2.8924309162
 O    1.8504276250    0.8517660799    2.3200437060
 H   -0.9723359531    1.8618209162    0.0538326274
 H   -0.0963755528    1.5430219276   -1.4300623301
 H    1.8476607995    2.4727048318   -0.5547405687
 H    1.0573784288    2.8048713575    0.9828198279
 H    3.1012953097    0.9810143857    0.7592473170
 H    1.9652098786   -0.4220487967   -0.8158390958
 H    1.6927136237   -1.3283838794    0.6743701179
 H   -0.4358925560   -0.7015367769   -0.8288045774
 H   -0.7831119538    1.2752348180    2.2469230347
 H   -1.2696566824   -0.2335427084    3.0370022662
 H    0.8368898240    0.3079189811    3.9517973427
 H    1.1257858515   -1.0375666014    2.8392056386