18

 C   -0.5432047836    1.4251737612    0.0117088063
 C    0.1702335239    0.0877776618    0.0329365963
 C    1.0364402398   -0.2267735997   -1.2412678090
 C    2.3060279195   -0.7231172704   -0.6072574719
 C    2.2014854081   -0.4937454706    0.7293578872
 N    3.3391553715   -0.8486602685    1.3757436579
 C    4.2242651058   -1.3309651196    0.4075193637
 C    3.6106966470   -1.2580696024   -0.8240579797
 O    1.0650833988    0.0601479550    1.2056410842
 H    0.1739693218    2.2396211578   -0.1291499103
 H   -1.2630386744    1.4523023601   -0.8128660265
 H   -1.0839802402    1.5958961035    0.9467582772
 H   -0.5482537492   -0.7245381170    0.1943781265
 H    0.5210490239   -0.9551205915   -1.8768144726
 H    1.1810024997    0.6794393431   -1.8464370214
 H    3.5112647748   -0.7956526122    2.3636623189
 H    5.1976724190   -1.6922887707    0.6941577553
 H    4.0574614936   -1.5631490499   -1.7581835823