18

 C   -0.2481015989    1.5000033144    0.0277860693
 C    0.0010173394   -0.0098541759    0.0047088419
 O    0.6668989508   -0.4124539561   -1.1842975926
 C    0.7995615226   -0.5021564767    1.2150159715
 O    2.0502308282    0.1482386426    1.1488481802
 C    0.0374927155   -0.5165219986    2.5638533440
 O   -0.1309299154   -1.9450503871    2.4829562668
 C    0.7914247109   -2.0399989030    1.3780481062
 H    0.6994838357    2.0443486467    0.0698028473
 H   -0.7823591023    1.7950346426   -0.8786328509
 H   -0.8495495746    1.7962547448    0.8935477634
 H   -0.9580752652   -0.5404188544    0.0005776405
 H    1.5723673270   -0.0880708009   -1.1026755146
 H    2.6446728660   -0.2511767011    1.7918701740
 H    0.6640186298   -0.2155758577    3.4167674058
 H   -0.9206588150    0.0120232201    2.6186924275
 H    0.3981185475   -2.6284628452    0.5437478753
 H    1.7644245480   -2.4537244744    1.6864647842