16

 C   -1.1061501772    0.2434329327    0.1401073791
 C    0.2650286110    0.1276160262   -0.4609484466
 N    1.1937479320    0.9703499710   -0.5417227459
 O    0.4970411874   -1.0937861334   -1.1135736319
 C    0.5596248897   -2.2295547417   -0.3807515391
 O    0.4839792164   -2.2788598857    0.8159522893
 C    0.7886904456   -3.4359413635   -1.2889280216
 C   -0.2191725052   -3.5781174376   -2.3305417188
 C   -1.0589007820   -3.7073063967   -3.1789820658
 H   -1.2078526352   -0.4640531175    0.9666269055
 H   -1.2806859887    1.2561133813    0.5076630506
 H   -1.8641888329   -0.0040291362   -0.6098642909
 H    0.9146029710    1.8482045409   -0.1043062519
 H    1.7819283920   -3.3214956327   -1.7418696742
 H    0.8173032559   -4.3173100842   -0.6431869225
 H   -1.7961668399   -3.8196262029   -3.9349296753