23

 C    0.5255502981    1.4269060054    0.1689575623
 C   -0.0372680498    0.0197634197    0.0087927957
 O   -1.4435313499    0.0626724660   -0.1896272509
 C    0.7298703965   -0.8981300370   -0.9993957467
 C    1.1832111443   -1.8162730484    0.1802932271
 C    0.7836296047   -3.2843245484    0.0480726823
 C    2.6811817984   -1.6728376303    0.4677282840
 O    3.0745535523   -2.2074707499    1.7218360625
 C    0.2955157814   -0.9758402721    1.1499943397
 H    1.6005382734    1.4126585161    0.3726003864
 H    0.3728984497    2.0127293289   -0.7470853657
 H    0.0246707295    1.9421633502    0.9946216945
 H   -1.6209802159    0.6564835681   -0.9277768805
 H    0.0472940451   -1.3917024556   -1.6954480569
 H    1.5362347032   -0.4232341877   -1.5686375530
 H    1.3429112956   -3.7799268593   -0.7553487522
 H    0.9632686282   -3.8351574367    0.9798691424
 H   -0.2825474658   -3.3803341557   -0.1782012962
 H    3.2564382486   -2.1236997546   -0.3588230276
 H    2.9551242916   -0.6129197717    0.5075262751
 H    2.9573672196   -3.1614655330    1.6876500488
 H    0.8125147805   -0.5623059918    2.0192168746
 H   -0.6014955791   -1.4994002321    1.4872345942