14

 C   -0.0058858652    1.5121115372    0.0335830204
 C   -0.0365215892    0.0129980366   -0.0092103946
 C   -1.1360305827   -0.7336651391    0.1973568814
 C   -1.0762855202   -2.1809845830    0.1372952301
 N   -2.0870594798   -2.9257431295    0.3253900878
 O    0.1669362511   -2.7446217020   -0.1424065647
 N    1.3129742067   -1.9886883949   -0.3584572502
 C    1.1897199091   -0.7118111422   -0.2906859388
 H    0.6944955586    1.8674052744    0.7984850014
 H    0.3336208589    1.9239770643   -0.9239835870
 H   -0.9932507239    1.9230291484    0.2539595391
 H   -2.1083367412   -0.3079149529    0.4156546705
 H   -1.8317641080   -3.9107180729    0.2394636674
 H    2.1175421359   -0.1740870444   -0.4680494025