17

 C   -0.0870259284    1.3865230080   -0.0028654544
 O    0.0720455896   -0.0170126406   -0.0169433219
 C    0.7120744864   -0.5538284883    1.1227277880
 C   -0.2791582304   -0.7732746184    2.2703523418
 O    0.3525869129   -1.4373778729    3.3727241281
 C    1.2361849634   -2.4102842249    3.0328765768
 N    1.7013114250   -2.7135605275    1.8985623729
 C    1.3103878470   -1.9080373672    0.7446868564
 H    0.8799357451    1.9006597753    0.1040451378
 H   -0.5315799102    1.6665115478   -0.9607298164
 H   -0.7521042063    1.7302461724    0.8024897454
 H    1.5127049665    0.1194378178    1.4681393685
 H   -0.6736452764    0.1630674985    2.6703276295
 H   -1.1178857359   -1.3819625313    1.9094122547
 H    1.5395462792   -2.9558066096    3.9244781758
 H    0.5776268509   -2.4613412435    0.1434753934
 H    2.1894256315   -1.7681754856    0.1074448034