17

 O   -0.0099133979   -0.0958303009    0.0980203333
 C    0.0237768459    1.1136697565    0.0950204361
 C    1.2296038423    1.8993237613    0.1129046121
 C    2.2265475907    2.5819136700    0.1291094817
 C    3.4211422046    3.4100322525    0.1419797336
 C    3.1669456741    4.8634351833   -0.3151335101
 C    4.4381657860    5.6750560091   -0.2850543628
 C    4.4689935829    7.0694998058    0.1704249691
 O    4.9363551843    6.0139833220    1.0128382566
 H   -0.9080386681    1.7156186519    0.0770847743
 H    3.8358153325    3.4259784629    1.1578909995
 H    4.1883532548    2.9456667564   -0.4917246090
 H    2.7548296813    4.8636816290   -1.3307020261
 H    2.4221313561    5.3239668301    0.3411352944
 H    5.2158663184    5.3528104556   -0.9811059544
 H    5.2367521466    7.7454266405   -0.2028337736
 H    3.5445652555    7.5483802941    0.4907416452