16

 C   -0.0093655432   -1.2101563136    0.0175611130
 C    0.0257939085   -0.0105805687   -0.0297785501
 C    0.0777835888    1.4461150919   -0.0780157510
 C    1.4775828309    1.9931392357   -0.0268251405
 O    2.4166614166    1.7373295115   -1.1115321743
 C    3.1826339210    2.5579162996   -0.1830550041
 C    1.9693647199    3.4551179479    0.2260739284
 N    2.0881289222    3.2109682878    1.6997187474
 C    2.5560548381    1.9188565944    1.0989169628
 H   -0.0430216565   -2.2707889414    0.0523164580
 H   -0.4105365925    1.8133380289   -0.9894135783
 H   -0.4670351535    1.8751456528    0.7727586619
 H    4.2134064577    2.8117262338   -0.4320475306
 H    1.6118282990    4.3868012894   -0.2138763151
 H    2.8803217702    3.7318382381    2.0830860557
 H    2.8804892829    1.0540417020    1.6770778668