15

 O   -0.1106280237    1.4264242657    0.0969222878
 C   -0.0184723794    0.0178247873    0.2408027337
 C   -1.3370953756   -0.5767342147   -0.2557487419
 C   -1.3791268739   -2.0617753160   -0.1067704108
 N   -1.4757789697   -2.8844844485   -1.1424078035
 N   -1.4735408598   -4.1017807677   -0.5460237435
 C   -1.3760271884   -3.9668661191    0.7903458820
 N   -1.3128449463   -2.6907175089    1.1093594896
 H    0.6985699053    1.8159224467    0.4400541264
 H    0.8158898677   -0.3936126442   -0.3493849270
 H    0.1386176620   -0.2755436310    1.2886360152
 H   -2.1514952302   -0.1238171523    0.3204380233
 H   -1.4850808624   -0.3163230568   -1.3065788592
 H   -1.5469629134   -4.9352750375   -1.1054459663
 H   -1.3569030423   -4.8045579831    1.4714941342