15

 C    0.0046289976    1.6309727243    0.1508171766
 C   -0.0543727246    0.0980422662    0.0053270121
 C    0.6972755126   -0.5750345858    1.0674044706
 C    1.3200127382   -1.1001014949    1.9499579442
 C   -1.4685837289   -0.4268641142   -0.0370619426
 N   -2.5096992666    0.3082656066    0.2475097019
 O   -3.5882424629   -0.5699172095    0.0763852950
 C   -3.0563219932   -1.7343609188   -0.2971602351
 N   -1.7671153184   -1.7286633188   -0.3919779517
 H    1.0460581806    1.9591094068    0.1417164665
 H   -0.5297114349    2.1120140624   -0.6717811507
 H   -0.4535038761    1.9475606265    1.0897169230
 H    0.3993886793   -0.1846101687   -0.9545103981
 H    1.8694436389   -1.5757294700    2.7243293959
 H   -3.7393295615   -2.5503876321   -0.4829454979