21

 C   -0.0525057991    1.4651998995   -0.1379951091
 N   -0.0071381250    0.0269475250    0.0695461978
 C   -1.2076497971   -0.6571109489    0.1626107861
 O   -2.2787439319   -0.0699146710    0.2159846064
 N   -1.1007712882   -2.0356256053    0.2292114756
 C    0.1787354203   -2.7134196102    0.2730264971
 C   -2.3300213147   -2.7887068205    0.1846017141
 C   -2.4247731561   -4.1528466099   -0.4420477482
 C   -2.5927263003   -3.9849074763    1.0577631033
 H    0.9385392671    1.8835280005    0.0561633889
 H   -0.3646723604    1.7429092861   -1.1536028302
 H   -0.7690523297    1.8989979371    0.5596946415
 H    0.7721577787   -0.4512411334   -0.3514221009
 H    0.8723904550   -2.1766493519    0.9261608875
 H    0.0560000452   -3.7138507513    0.6925431875
 H    0.6433335986   -2.8280597978   -0.7186948224
 H   -3.1564163039   -2.1096164972    0.0296342246
 H   -3.2945356286   -4.3782079182   -1.0495056994
 H   -1.5141693089   -4.6324332463   -0.7851310182
 H   -1.7950459824   -4.3561839191    1.6926195794
 H   -3.5808218587   -4.0873436909    1.4925736287