21

 O   -0.3305824523    1.5893550877    0.2164455998
 C   -0.0976906803    0.1982129578    0.3896386372
 C   -1.3204977127   -0.5509749890   -0.1257546976
 C   -1.5868483898   -0.2026407917   -1.6115590883
 O   -2.2891705559   -1.2230627407   -2.3203225185
 C   -1.9907878234   -2.5387846381   -1.8791284959
 C   -2.5041717811   -2.7398662798   -0.4290481901
 C   -1.1654207187   -2.0786898324    0.0050496306
 C   -0.5511668487   -2.6611630330   -1.3054635373
 H    0.4633109377    2.0652260765    0.4762846772
 H    0.7977541726   -0.1267767893   -0.1663009297
 H    0.0655250147   -0.0501759803    1.4506515720
 H   -2.1782596085   -0.2369239544    0.4827738302
 H   -2.1808510618    0.7079671893   -1.7061279288
 H   -0.6240508591   -0.0094162199   -2.1082436907
 H   -2.3210073224   -3.2149244290   -2.6702520737
 H   -3.4381775179   -2.2366391468   -0.1658477437
 H   -2.5528073136   -3.7964182600   -0.1517039351
 H   -0.7264356333   -2.3653305603    0.9650159351
 H   -0.2711987401   -3.7104639606   -1.1854659249
 H    0.2604245449   -2.1286236659   -1.8069416779