17

 O   -0.2237846578    1.3774994115    0.0008173448
 C    0.0407786860    0.0042848461   -0.0786113322
 C    0.8867862095   -0.3259820406   -1.3264089155
 C    0.1689706738    0.0388961668   -2.6061277490
 C    0.4657902705   -0.6803426422   -3.8669016496
 N   -0.8311265502   -0.8732471443   -3.1886764303
 C    0.7384434352   -0.4731608975    1.1775486139
 O    1.0138510761    0.2808546363    2.0792099300
 H    0.1164563791    1.6610191704    0.8641769311
 H   -0.9052198746   -0.5651721051   -0.1471867502
 H    1.8294665436    0.2309258738   -1.2547823728
 H    1.1344855314   -1.3967364001   -1.3331065516
 H   -0.1228131837    1.0842104214   -2.6629960594
 H    0.4119237849   -0.1617801923   -4.8197446578
 H    1.1961538665   -1.4855539741   -3.8329818046
 H   -0.8211248935   -1.7606973616   -2.6893930780
 H    0.9862057032   -1.5538873284    1.2239760013