18

 C   -0.0070969077   -1.1617452149   -0.0692245885
 C    0.0163409369    0.0379561068    0.0066825643
 C    0.0150408579    1.4796142506    0.0493010763
 C   -1.1773060398    2.1274108095   -0.6511033469
 C   -1.1296577921    3.6676313197   -0.6830664264
 C    0.2395690068    4.1943161754   -1.0272866432
 C    1.3517180727    3.5201506264   -0.7267010231
 C    1.3269292001    2.2170695234   -0.0176300113
 N    0.6035593294    2.0714774270    1.2683548691
 H   -0.0159763089   -2.2222353411   -0.1208203938
 H   -1.1906221821    1.7456980780   -1.6786038563
 H   -2.1063456102    1.7892186844   -0.1807041288
 H   -1.8685082254    4.0304559394   -1.4055614566
 H   -1.4553037405    4.0756466242    0.2850038928
 H    0.3037913675    5.1587027760   -1.5225328746
 H    2.3277965935    3.9173169773   -0.9892069444
 H    2.2375051472    1.6274230893   -0.0543685049
 H    0.1342579648    2.9486321787    1.4859991262