18

 C    0.1200625069    1.3312171972   -0.1237750294
 O   -0.2207173564   -0.0152305809    0.1827442763
 C    0.6121262305   -0.6406282221    1.0373968024
 N    0.3859099816   -1.8372103698    1.3647259777
 C    1.2632016221   -2.5112843827    2.2713213667
 C    0.5729671531   -3.5389262828    3.1663184157
 C    1.4012245233   -4.0107061551    2.0140477630
 C    2.4081720115   -1.8187344177    2.8107965558
 C    3.3532365406   -1.2087417470    3.2401936047
 H    1.1036967800    1.3976425455   -0.6045169604
 H   -0.6411784224    1.6901185553   -0.8174287971
 H    0.1139475032    1.9618774521    0.7736047525
 H    1.4547490221   -0.0371019264    1.3959743526
 H    0.9621138052   -3.6590897518    4.1700689159
 H   -0.5051198474   -3.5773347710    3.0707433982
 H    0.8895670163   -4.3717691515    1.1304632536
 H    2.3663614071   -4.4589444587    2.2164896281
 H    4.1934506728   -0.6905455226    3.6312013334