17

 C    0.0751388745    1.5389863507    0.0447271189
 C    0.1199838239    0.0348554295   -0.0924571666
 O    1.1343690500   -0.5546236311   -0.3850335677
 C   -1.1910427532   -0.7491093794    0.1164823776
 C   -2.1012551545   -0.2189815074    1.2522319782
 C   -2.0335288922   -0.6821219523   -1.1732110572
 O   -1.7959410792    0.0236092642   -2.1144961559
 C   -0.9078120429   -2.2407388257    0.3572917938
 O   -1.7797502417   -3.0143273938    0.6634974615
 H    1.0575507446    1.9491314140   -0.1907086425
 H   -0.6730267735    1.9457811309   -0.6431353204
 H   -0.2124212030    1.8335080388    1.0593223486
 H   -2.4692195087    0.7869126370    1.0373327761
 H   -2.9529568432   -0.8918070637    1.3722819701
 H   -1.5552074799   -0.1958632409    2.1996656328
 H   -2.9191807691   -1.3511557663   -1.1367185214
 H    0.1407127080   -2.5481047647    0.2029402440