23

 O    0.3961958487    0.7411227268   -0.8885884758
 C    0.0711353302   -0.2646427581    0.0395615487
 C    0.0031691110    0.0519903584    1.5520987614
 C   -1.1524262603   -0.9790978463    1.6537547688
 C   -1.3787428313   -0.8639149703    0.1176073805
 C   -2.4713472889    0.1391019090   -0.3044178403
 C   -2.7016124747   -0.1769834421   -1.7888469539
 C   -2.6996057547   -1.7164471934   -1.8156569481
 C   -1.6774793962   -2.1300208187   -0.7225262984
 H   -0.1298867363    1.5205400377   -0.6828490681
 H    0.7851313895   -1.0730669403   -0.1516072256
 H    0.9040424282   -0.1078642490    2.1485963748
 H   -0.3533475468    1.0730165409    1.7272820424
 H   -0.7905907331   -1.9711679637    1.9400646150
 H   -1.9999256384   -0.7211621016    2.2941649945
 H   -3.3863960518   -0.0581622262    0.2699430055
 H   -2.2085820149    1.1867220108   -0.1167843257
 H   -3.6213710088    0.2597597009   -2.1889409737
 H   -1.8604479064    0.2125349922   -2.3726549457
 H   -3.6972826674   -2.0901082277   -1.5591520024
 H   -2.4525207354   -2.1222039405   -2.8003966672
 H   -0.7524733464   -2.5160308027   -1.1645491103
 H   -2.0763752557   -2.9309555662   -0.0911448663