19

 C    0.0904807078    1.4412359211    0.1611957924
 C    0.2724297455   -0.0665742275    0.0188746303
 C    0.6185603365   -0.5018335826   -1.3892383645
 O    0.7440382701    0.2565566650   -2.3244103761
 C    0.8125099525   -1.9795961281   -1.5994917127
 C   -0.0242761349   -2.9601489697   -2.4704219212
 C    0.9982288743   -3.7590255162   -1.6307526402
 C    2.1015835897   -2.7463261337   -2.0125948299
 O    0.6604902531   -2.9160879688   -0.4561373608
 H    1.0021798098    1.9734791747   -0.1225292468
 H   -0.7103171873    1.8015128341   -0.4898853243
 H   -0.1572914042    1.7042034663    1.1930655492
 H    1.0582549162   -0.4535356011    0.6821412636
 H   -0.6259060602   -0.6226631760    0.3203984904
 H   -1.0653044710   -3.0696042330   -2.1653081887
 H    0.1097315783   -2.9149470399   -3.5526197259
 H    1.0704095479   -4.8331839014   -1.4642479925
 H    2.4145034035   -2.6831360592   -3.0562624554
 H    2.9277198325   -2.6679751842   -1.3053640768