16

 O    0.0196262353    1.4129074140    0.0255557834
 C   -0.0031530421   -0.0015154537   -0.0175781119
 C   -1.4164471272   -0.4810823991    0.0177987969
 C   -2.5334183976    0.2513047016   -0.0359039721
 C   -3.7857261286   -0.6002401022    0.0258418326
 C   -3.2354051478   -2.0217088622    0.0548335895
 O   -2.4815112684   -2.3905072814   -1.1025905955
 C   -1.7656095432   -1.9365686583    0.0701254401
 H    0.9309381010    1.7009268421   -0.0763863106
 H    0.4858316670   -0.3848794328   -0.9306147577
 H    0.5507255284   -0.4395092937    0.8328310234
 H   -2.5541729315    1.3277411168   -0.1471225390
 H   -4.3819381786   -0.3906986931    0.9236928269
 H   -4.4434264612   -0.4385263125   -0.8369984590
 H   -3.7916876825   -2.8288407110    0.5240044036
 H   -1.1142202029   -2.6775395145    0.5263993893