12

 O   -0.0616557459   -0.0088159104    0.0033727884
 N   -0.0253179160    1.2047271383    0.0069283733
 O    0.9837436838    1.9004529490    0.0027380733
 C   -1.3231579178    1.9437795174    0.0173975579
 C   -1.3147179318    3.3358784091    0.0205266806
 N   -2.4659108470    4.0107730772    0.0298228138
 C   -3.5835026166    3.2828838448    0.0357630875
 C   -3.5624878515    1.8863289804    0.0324773596
 N   -2.4154718155    1.2096531640    0.0231237101
 H   -0.3860000813    3.8923408615    0.0155323802
 H   -4.5253034426    3.8244853262    0.0433574929
 H   -4.4811270276    1.3070498525    0.0374226525