23

 C   -0.4248234150    1.4505733148   -0.0079438918
 C   -0.0218840313   -0.0401611074   -0.0110498377
 C    0.6666474111   -0.4627886222   -1.3250274054
 C    2.0202485603    0.1745476869   -1.6555884812
 C    3.1831024623   -0.3079739062   -0.7917121827
 O    4.3652925362    0.1456973515   -1.4487307810
 C    3.1545810346    0.2126840532    0.6531706448
 C    2.0289386256   -0.2696299912    1.5362192016
 C    0.7287563358   -0.3833043330    1.2589328138
 H    0.4514119161    2.1051745273   -0.0238372099
 H   -1.0432439721    1.6884238610   -0.8806025505
 H   -0.9992844928    1.6960383833    0.8905808161
 H   -0.9592511390   -0.6111164649    0.0223411798
 H    0.7831261811   -1.5541236651   -1.3189177495
 H   -0.0264686913   -0.2355945754   -2.1445936769
 H    2.2783090566   -0.0652316844   -2.6928860837
 H    1.9679335581    1.2688802443   -1.6010267323
 H    3.1645726784   -1.4109009263   -0.7657600254
 H    5.1227459727   -0.1304878577   -0.9229765524
 H    4.1041697353   -0.0708045086    1.1265576576
 H    3.1648683935    1.3116696937    0.6122481550
 H    2.3333945881   -0.5325508231    2.5475396063
 H    0.0898187056   -0.7184994000    2.0750331255