21

 C    0.1903187498    1.6148617838    0.4424317152
 C    1.4483742268    1.6786314268   -0.4653013828
 C    1.3562686024    0.1451474790   -0.6556644518
 C    2.0387219142   -0.5580165299   -1.8745737395
 C    3.1870096447   -1.0399106870   -0.9029279125
 C    2.1791871180   -0.7775042053    0.1944144923
 C    1.4890753266   -1.4050206300    1.1435223999
 C    0.0444924902   -0.9187826981    1.1784559475
 C   -0.0520751205    0.1294395509    0.0309111884
 H    0.4193437226    1.7188491982    1.5065301158
 H   -0.6089880738    2.3169236863    0.1940269272
 H    1.2562284724    2.2119476181   -1.4021194266
 H    2.3682758171    2.0754118691   -0.0251668397
 H    1.4598719065   -1.4023147136   -2.2573481395
 H    2.3360354116    0.0901655347   -2.7042562439
 H    3.5677564454   -2.0577960757   -1.0131845694
 H    4.0290173461   -0.3405634477   -0.9132741817
 H    1.8224666118   -2.2569597035    1.7268723953
 H   -0.6267985948   -1.7730894381    1.0151701917
 H   -0.2558129945   -0.4821070582    2.1409313364
 H   -0.9312112925   -0.0108344499   -0.6018247623