16

 O    0.2088244249    1.3737442988    0.2437847095
 C    0.0328753900   -0.0049670104    0.0781296996
 C   -0.4545920428   -0.7692225684    1.2967938861
 C   -1.3662095931   -0.5908357728    0.1235795721
 C    1.0462897261   -0.7107502559   -0.7719931514
 O    0.9777171967   -1.8914028193   -1.0124158234
 C    2.1917223076    0.1752073651   -1.2931400028
 C    3.1930228499   -0.5688778698   -2.0450972348
 N    4.0004252280   -1.1351930808   -2.6451379467
 H   -0.2918670012    1.8328151168   -0.4392892577
 H   -0.0207836536   -1.7477867450    1.4628883986
 H   -0.6272909869   -0.1597681305    2.1756327025
 H   -2.1748780568    0.1261268263    0.2133086428
 H   -1.5503120447   -1.4462142890   -0.5155676003
 H    1.7723271373    0.9710786521   -1.9199080734
 H    2.6538086285    0.6932284728   -0.4455288306