19

 C   -0.0808029959    1.5600114415    0.0937753375
 C    0.1057566763    0.0468054520    0.0399186304
 N    0.8833555514   -0.3667109668   -1.1491171385
 C    1.5732470171   -1.3989123042   -0.8243029411
 N    2.3800211859   -2.1154124033   -1.6557803165
 C    1.4120510365   -1.8741665148    0.6184276285
 O    2.5992895489   -2.3482218311    1.2111448966
 C    0.8475863722   -0.5816196637    1.2469933696
 O    1.9376857932    0.2092284630    1.7252962229
 H    0.8767494160    2.0872203121    0.1493860448
 H   -0.5893098430    1.8976984135   -0.8127711370
 H   -0.6783697500    1.8526368107    0.9627547252
 H   -0.8935416923   -0.4138241330   -0.0096533806
 H    2.6264619083   -1.6850128978   -2.5339433377
 H    3.1087021625   -2.6399653619   -1.1951269473
 H    0.6705913782   -2.6834395621    0.6527842878
 H    2.9812799011   -1.5711019381    1.6482901282
 H    0.2079120640   -0.7624799298    2.1133813796
 H    2.3323536196    0.6488946538    0.9621002173