25

 C   -0.5418701621    1.8360836892    0.5793446756
 C   -0.0608280173    0.4144144831    0.2359234964
 C    0.6795132171   -0.2188725280    1.3239160399
 C    1.2823852986   -0.7167035782    2.2421927163
 C    2.0348739749   -1.3473572381    3.3290292560
 C    1.7694501912   -2.8702969939    3.3886792756
 C    0.3075653785   -3.2359937550    3.6502075485
 C    3.5487278982   -1.0503841370    3.2130166300
 C    3.8974660844    0.4363712601    3.2973689562
 H    0.3054492052    2.4869044611    0.8121205575
 H   -1.0885763716    2.2695049012   -0.2636770001
 H   -1.2038082138    1.8222556300    1.4495206715
 H   -0.9248888702   -0.2087316711   -0.0290675125
 H    0.5685120863    0.4494970871   -0.6628944328
 H    1.6860652982   -0.9145987651    4.2798583840
 H    2.1034057835   -3.3205335301    2.4459566033
 H    2.4030958718   -3.2912156243    4.1792611469
 H    0.1746499858   -4.3217782727    3.6839025012
 H   -0.0369479421   -2.8284994398    4.6075091921
 H   -0.3424118214   -2.8378381771    2.8656845900
 H    4.0610105664   -1.5965538183    4.0147833760
 H    3.9149402775   -1.4661571607    2.2664407516
 H    4.9767696221    0.5924760249    3.2055568843
 H    3.4028500238    0.9998339114    2.5009609558
 H    3.5795044148    0.8634999515    4.2553022868