16

 O    0.3253284335    1.0650866925    0.7675276816
 C   -0.0206031538    0.2977717033   -0.3756627951
 C   -1.3761923906   -0.2505633727   -0.3262243492
 C   -2.4858654502   -0.7144822553   -0.2475583683
 C   -3.8330244446   -1.2537108666   -0.1581878600
 C   -4.5733474401   -1.5464903229   -1.5107093379
 C   -4.5719631736   -3.0279505308   -1.0613824018
 O   -4.9570107618   -4.0694959799   -1.5147640611
 N   -3.9388565624   -2.6978710715    0.1143909226
 H    0.1746501407    0.5148222066    1.5431803901
 H    0.0757572336    0.9769975273   -1.2299259435
 H    0.6943883289   -0.5235377670   -0.5432466477
 H   -4.4315486040   -0.6524221782    0.5356557130
 H   -5.5617815781   -1.0954415151   -1.6063716698
 H   -3.9797477504   -1.3492705562   -2.4032910215
 H   -3.5544500071   -3.2644802635    0.8562271585