22

 C   -0.1408823715    1.5305027946   -0.0401264498
 C   -0.0209966214    0.0264237264    0.1385470347
 O   -1.3066301156   -0.5447650559   -0.0372040069
 C   -1.3529249485   -1.9609142389   -0.0003072082
 C   -1.3129062213   -2.4953894436    1.4322419100
 C   -2.6603338135   -2.3402697491   -0.7435232221
 C   -2.6869752143   -1.8161354941   -2.1917516287
 C   -2.8657588368   -3.7907355968   -0.7229032017
 N   -3.0184044943   -4.9366515250   -0.7239077642
 H    0.8352600012    2.0067264491    0.0909028090
 H   -0.5144117605    1.7719698841   -1.0392804150
 H   -0.8328707478    1.9499836642    0.6954929245
 H    0.6809486210   -0.3980473556   -0.5977803451
 H    0.3772958533   -0.2055115739    1.1377677747
 H   -0.5046713257   -2.3733164982   -0.5716468811
 H   -1.3741282517   -3.5866283421    1.4438969789
 H   -0.3830812290   -2.2069691654    1.9292293611
 H   -2.1496316345   -2.0902658022    2.0103979798
 H   -3.4864340945   -1.8818422821   -0.1846540574
 H   -1.8875560304   -2.2728284615   -2.7828055323
 H   -3.6404065674   -2.0498649880   -2.6711598423
 H   -2.5444286368   -0.7352865862   -2.1818277779