18

 C   -0.0178492558    1.6024102121    0.1726276078
 C   -0.0321632937    0.0655520141   -0.0228254492
 C    0.7714145915   -0.5910567790    1.0250922964
 N    1.4170298489   -1.0896549992    1.8430293657
 C   -1.3929513836   -0.4723504840   -0.0576931197
 C   -2.5219461165   -0.8914286368   -0.0891196276
 C   -3.8639951658   -1.3933586307   -0.1227441705
 C   -4.3022339615   -2.3371703205   -1.2329892759
 C   -4.1354986537   -2.8634934691    0.1600744124
 H    1.0092410936    1.9750704562    0.1689048131
 H   -0.5748164451    2.0735092302   -0.6399314067
 H   -0.4878674710    1.8688835182    1.1212966202
 H    0.4635044926   -0.1586075039   -0.9778928591
 H   -4.6187448540   -0.6973427673    0.2313414878
 H   -5.3048035083   -2.2060470220   -1.6238263819
 H   -3.5578473896   -2.6062890886   -1.9726646934
 H   -3.2770910315   -3.4896393779    0.3708332727
 H   -5.0220491166   -3.0974609118    0.7381832378