21

 C    0.0482558571    1.6101699608    0.0316218930
 C    0.0811300672    0.0898547868    0.0004305447
 C    0.7614271722   -0.6578727745   -1.1509600802
 C    2.2436608295   -0.7902874693   -0.7297247858
 C    3.4149273023   -0.8937968286   -1.6457457997
 O    2.3928499475   -0.0918708357    0.5139945824
 C    1.1099596222   -0.6607848121    0.8961610633
 C    1.2418897586   -1.7731805506   -0.2158108480
 C    1.1035255656   -3.2599147981   -0.2353720059
 H    1.0614058518    2.0129031093   -0.0394422045
 H   -0.5420399804    2.0066263924   -0.8017843670
 H   -0.4027160430    1.9768426119    0.9609474646
 H   -0.9136959883   -0.3380098304    0.1699716182
 H    0.4436870535   -0.7459042104   -2.1838186002
 H    3.7182873387    0.0969304785   -2.0012137284
 H    4.2702876116   -1.3527158735   -1.1396055094
 H    3.1623469008   -1.5029054490   -2.5188850745
 H    0.9923602256   -0.7810230779    1.9722609275
 H    0.0816954418   -3.5748943808    0.0064888633
 H    1.3403851109   -3.6554372038   -1.2292106471
 H    1.7799037049   -3.7374351651    0.4826992537