21

 C    0.4323609825    1.1546156628   -0.2318316615
 O   -0.2681223685    0.0700678286    0.3414473583
 C    0.5037009815   -0.6412027005    1.2630895789
 C    0.1864661404   -2.0575096302    1.6381795342
 C   -0.2629563554   -2.9182077332    0.4438677913
 C   -1.6350524062   -2.6909011776   -0.1806137766
 C    1.0270462896   -2.4938980908   -0.3381194581
 C    1.4926633121   -1.7048276188    0.8938950295
 O    2.7795812818   -1.7510717749    1.4081113111
 H    1.3223480780    0.8197701650   -0.7853883366
 H   -0.2494981993    1.6531871461   -0.9245876042
 H    0.7531803883    1.8782307820    0.5334163530
 H    0.8350754166   -0.0402710741    2.1143130439
 H    0.0359687280   -2.3222674509    2.6789701346
 H   -0.1644850999   -3.9713297140    0.7269253189
 H   -1.7582258024   -1.6523438043   -0.4918847224
 H   -1.7737731377   -3.3381485996   -1.0543095227
 H   -2.4309413379   -2.9284100738    0.5344482084
 H    1.6851706070   -3.3363706544   -0.5592204702
 H    0.8698265262   -1.9084641453   -1.2492403112
 H    3.3001965650   -1.0552845020    0.9918142315