17

 C   -0.0122164862    1.5321891072    0.0044291487
 C    0.0779814886    0.0261405882   -0.1097379702
 C    0.6893451428   -0.7419287116   -1.2394696412
 O    0.0583247504   -1.7023727080   -1.9871177503
 C    1.9804760812   -0.1072864854   -1.7466017396
 N    2.5094350881    0.0270731775   -0.3454149743
 C    1.3622238559   -0.7551458678    0.1692812830
 C    1.4833261627   -1.7573769596    1.1658907110
 N    1.5893324206   -2.5917544192    1.9635462203
 H    0.9441202039    1.9972963615   -0.2422131144
 H   -0.7829486336    1.9297427628   -0.6640551845
 H   -0.2702379374    1.8210455927    1.0277890304
 H   -0.7774470824   -0.5151814866    0.2964947448
 H   -0.8878661434   -1.6761961626   -1.8120364110
 H    2.5470434579   -0.8248515669   -2.3465519900
 H    1.8978966324    0.8405431321   -2.2880418946
 H    3.3724988886   -0.4956723744   -0.2356736382