18

 O   -0.0298087961    1.4763304038    0.0598336793
 C    0.0399735543    0.0816965875   -0.1316603470
 C   -1.3339346547   -0.5671547179    0.0111112636
 C   -1.3286317204   -2.1396923594   -0.1154127539
 C   -2.5218369714   -2.4922855260    0.7872483097
 C   -2.5861465640   -3.2447585221    2.1519829353
 O   -2.8130294977   -1.9534864482    2.8570353353
 C   -2.4603488244   -1.3192934447    1.6999784846
 N   -1.8337952038   -0.2681876069    1.3978194317
 H   -0.5123698492    1.5976186364    0.8880032977
 H    0.4345270287   -0.0883913828   -1.1401459422
 H    0.7312438528   -0.3937789522    0.5849024876
 H   -2.0063039191   -0.1153276012   -0.7305321309
 H   -1.4235204242   -2.4876556494   -1.1461727671
 H   -0.3893928537   -2.5284946840    0.2953898896
 H   -3.4614190144   -2.5931286625    0.2386519957
 H   -3.4277819120   -3.9207227036    2.3064461967
 H   -1.6479876904   -3.6864707468    2.4965408243