15

 O   -0.0230669940   -0.0679550090   -0.2509153921
 C   -0.0274997798    1.1285953129   -0.0778276560
 N   -1.1194742055    1.9419190382    0.0078353051
 C   -0.8697929106    3.3655219717    0.1445549221
 C    0.6541948973    3.4459596030    0.4149107956
 N    0.9672666383    3.6525634534    1.8413371705
 C    1.6404772956    2.6385683893    2.1984459717
 O    1.9180930707    1.6574224724    1.3082723942
 C    1.2078168010    2.0342152650    0.1062547133
 H   -2.0427590467    1.5552794509   -0.1106928973
 H   -1.1402318989    3.9088647912   -0.7694807062
 H   -1.4250556588    3.7990294813    0.9811217832
 H    1.1061723130    4.2495337806   -0.1712492157
 H    2.0459591061    2.4696827177    3.1896272897
 H    1.8926316824    1.9408866316   -0.7368995581