17

 C   -0.0202979909    1.4933133523   -0.0061296247
 C   -0.0015610855    0.0375501397    0.0293643351
 C    0.0301753390   -1.1658894269    0.0606825309
 C    0.0391044744   -2.6239978910    0.0968217845
 C   -1.3718586979   -3.2224712738   -0.0220300439
 C   -1.3522363024   -4.7468032542    0.0761007318
 N   -2.5396610145   -5.3507981016   -0.2258566885
 O   -0.3634096148   -5.3790429031    0.3935647502
 H    0.5677257670    1.8800659593   -0.8460344403
 H   -1.0408297436    1.8776892627   -0.1144363510
 H    0.3965307996    1.9208693318    0.9126886499
 H    0.6656765338   -3.0211725242   -0.7101158385
 H    0.4965694423   -2.9862316578    1.0235341827
 H   -2.0118906650   -2.8282371976    0.7770128471
 H   -1.8390898963   -2.9170769507   -0.9652171873
 H   -3.3760185064   -4.8260859750   -0.4122278025
 H   -2.6115172888   -6.3471882499   -0.1010124956