16

 C   -0.0450981721    1.4147198507   -0.0179023355
 N   -0.0068304806   -0.0310220893   -0.0224995380
 C   -1.2141925491   -0.8350493499    0.0576705358
 C   -0.6894278636   -2.2388730704   -0.2293195785
 O   -1.3035472603   -3.1709677089   -0.6790001259
 C    0.8055498675   -2.2286815747    0.0254772195
 O    1.5242458153   -3.1256989110   -0.7587976017
 C    1.1638078330   -0.7420063099   -0.1736854579
 O    2.2595833518   -0.2734158546   -0.3661363779
 H    0.9779777960    1.7722877521   -0.1407886089
 H   -0.6614664247    1.7936852072   -0.8422723066
 H   -0.4548501067    1.7969018628    0.9249378336
 H   -1.6919497421   -0.7867971895    1.0482592346
 H   -1.9649213232   -0.5462698135   -0.6885660964
 H    0.9517353456   -2.4213061390    1.1071939097
 H    0.8861239831   -3.7841905921   -1.0688828760