22

 C    0.4124632046    1.4197281249    0.2014301623
 N    0.3892045747   -0.0119578882   -0.0234419272
 C    0.5033181610   -0.5651122844   -1.2667780005
 O    0.6567041074    0.1013206398   -2.2764135227
 C    0.4048481403   -2.0899032255   -1.3076459618
 C    1.3764666051   -2.6963876017   -2.3108994245
 C    2.8910089256   -2.7666104643   -1.9636943516
 C    2.9394436429   -4.1570479597   -2.6528054748
 C    1.3951198089   -4.2371061143   -2.5095419775
 H    1.2312786401    1.7057062908    0.8711314238
 H    0.5622960359    1.8951588542   -0.7685921696
 H   -0.5310748266    1.7748190734    0.6316978743
 H    0.2671436104   -0.6244051617    0.7651468127
 H    0.5590256355   -2.5239618806   -0.3113741818
 H   -0.6248848620   -2.3355492337   -1.6021886735
 H    1.2426683964   -2.1859655117   -3.2682594655
 H    3.5369865041   -1.9750988136   -2.3496593199
 H    3.0500831911   -2.8501407609   -0.8824073830
 H    3.2437223854   -4.0776719764   -3.7002722560
 H    3.5347732481   -4.9405467201   -2.1782025546
 H    1.1059101647   -4.7626534356   -1.5925666050
 H    0.8193281464   -4.6515084005   -3.3412444837