16

 N    0.0777718444    0.9960817086    0.7645548192
 C   -0.0187096497    0.0226210710   -0.1850654607
 O    0.8071459031   -0.1760979412   -1.0552490797
 C   -1.2800547495   -0.7984414237   -0.1130442565
 C   -2.6183696077   -0.1484976732   -0.0882701008
 N   -2.0781538834   -0.7643054799    1.1478442923
 C   -2.4918041380   -2.1346954487    1.2652150910
 N   -2.0753500731   -2.9811671472    0.4165826015
 C   -1.2270028950   -2.2626570878   -0.5517632094
 H    0.9491563086    1.4984950757    0.8231045390
 H   -0.4973416668    0.9195278807    1.5897695151
 H   -2.6862552217    0.9341296242   -0.0603351263
 H   -3.4394222306   -0.6609254407   -0.5835157576
 H   -3.1336464040   -2.3921782651    2.1024850561
 H   -1.5960181144   -2.4350241355   -1.5671346525
 H   -0.2017174022   -2.6432419772   -0.5150260608