23

 C    0.0999000621    1.2695405031    0.5441147952
 C   -0.0407416046   -0.1815361247    0.0762598687
 C   -1.4670128172   -0.5311618082   -0.3089446087
 C   -1.8220125688   -2.0230081170   -0.5103587475
 C   -2.7877502161   -1.7910725350    0.6452494813
 C   -4.2143376776   -2.2114961827    0.8047442076
 C   -3.1517260244   -2.6580137287    1.8058390238
 C   -2.7115134848   -4.1025169460    1.8808585571
 O   -2.3836528823   -0.4311691947    0.8176138990
 H    1.1255560651    1.4889597570    0.8550620945
 H   -0.1653825225    1.9714747876   -0.2544038598
 H   -0.5637012637    1.4602963708    1.3922937746
 H    0.6061522559   -0.3699077500   -0.7913282139
 H    0.2845730141   -0.8649312989    0.8705584364
 H   -1.8096703393    0.1175044183   -1.1273150047
 H   -2.2764070303   -2.2800035214   -1.4688995135
 H   -1.0014421845   -2.7142803139   -0.3002515487
 H   -4.9229258159   -1.4541614059    1.1229777469
 H   -4.6149129282   -2.9502803693    0.1157842807
 H   -3.1791621185   -2.1313975804    2.7570118189
 H   -2.6696885253   -4.5565320815    0.8848113684
 H   -1.7159236388   -4.1955376231    2.3293787950
 H   -3.4059788545   -4.6985175355    2.4833316387