23

 C   -0.8513140709    1.0420682208   -1.0890709924
 C    0.1409543836   -0.0594033174   -0.7485604471
 C    1.6253238695    0.0984071932   -1.1642321318
 C    2.0400676584   -0.6133668377    0.1481766964
 C    3.3020366221   -0.1694363945    0.8721402802
 C    0.6115458914   -0.2960370212    0.7391059573
 C    0.5552155179    0.9359760693    1.6195106088
 C   -0.1273206349    0.7762813880    2.9661946642
 O    1.0282353713    2.0007767611    1.2755354352
 H   -0.5044706954    2.0149019182   -0.7323406885
 H   -0.9833880088    1.1067973571   -2.1749781949
 H   -1.8366188451    0.8463475173   -0.6496498353
 H   -0.2400816162   -1.0189343093   -1.1158147693
 H    1.9411761511   -0.3500978903   -2.1102143334
 H    1.9234966716    1.1501286570   -1.1459931455
 H    2.0788202667   -1.6953586667   -0.0208387131
 H    3.2948462392    0.9066550840    1.0617248471
 H    3.4186767203   -0.6865902415    1.8319150200
 H    4.1847921275   -0.4007287092    0.2654487415
 H    0.1269314186   -1.1333525398    1.2481946422
 H    0.3732988134   -0.0033282659    3.5525963972
 H   -0.1101838242    1.7198564443    3.5129626723
 H   -1.1632722070    0.4450627431    2.8269753390