18

 C   -0.0877420337    1.4800619183    0.1919922474
 C   -0.0240233029   -0.0005601059    0.0003874155
 C   -0.0129236819   -0.7493528975   -1.1553969838
 C    0.0755493444   -2.1216623445   -0.7925849398
 C    0.1173009736   -2.1753225532    0.5776353271
 N    0.0645045562   -0.8849269893    1.0624069493
 C   -0.0031233399   -0.5276099284    2.4577743884
 C   -1.4297453758   -0.2375123930    2.9261871181
 O   -1.6936486385    0.4902072661    3.8445318592
 H    0.8044593314    1.8776354479    0.6927434754
 H   -0.1581854353    1.9667620970   -0.7832372791
 H   -0.9564332896    1.7998056876    0.7809251510
 H   -0.0561100138   -0.3457498325   -2.1560154755
 H    0.1141272208   -2.9685673039   -1.4601342480
 H    0.1887113499   -3.0101742842    1.2571325834
 H    0.3763158704   -1.3666292112    3.0533639086
 H    0.6239196656    0.3391731221    2.6846612166
 H   -2.2131913010   -0.7718981054    2.3428163164