19

 C   -0.1865348069    1.5049319460    0.1051905748
 C   -0.0547864214    0.0230124345   -0.0034240799
 C   -0.0861005654   -0.7217337240   -1.1120761528
 N    0.0739363072   -2.0912683048   -0.8546718560
 C    0.0682367272   -2.3125473826    0.6016640717
 C    0.1763841888   -0.8833053649    1.1933197981
 C    0.0272823356   -3.1513535104   -1.7247877721
 N    0.0356460839   -2.8115279962   -3.0782551946
 O   -0.0496829327   -4.3042634618   -1.3358299112
 H    0.7072767811    1.9562164396    0.5570610634
 H   -0.3365709059    1.9687705181   -0.8740047208
 H   -1.0329760468    1.7884429150    0.7446112791
 H   -0.2434838127   -0.3878275152   -2.1278799136
 H   -0.8622400134   -2.8113064728    0.8918116127
 H    0.8922342482   -2.9695635876    0.8853458364
 H    1.1622407610   -0.6986577532    1.6417961128
 H   -0.5594510765   -0.7171618301    1.9880773723
 H    0.6142374697   -2.0306170450   -3.3517091939
 H    0.1816271389   -3.6300251744   -3.6513273665