19

 C   -0.0006817690    1.4941535144   -0.0124491352
 C   -0.0432404907    0.0391157265   -0.0108352860
 C   -0.0838363820   -1.1659880003   -0.0231939986
 C   -0.0843895312   -2.6077073160   -0.0325273526
 O    0.8693063109   -3.1973072404   -0.8858161354
 C   -0.3816672274   -3.4369702607    1.2078212930
 C   -1.4499301562   -2.7693056073    2.0776763285
 C   -2.4254964882   -2.7780393633    0.8508791715
 C   -1.3359188903   -3.4466826121    0.0092874152
 H    0.6607697651    1.8806905193    0.7710189754
 H    0.3616652316    1.8770273743   -0.9729704185
 H   -0.9968285654    1.9182492373    0.1557222513
 H    1.7385050223   -2.9063840563   -0.5883482402
 H    0.3392742774   -4.1856697149    1.5146462010
 H   -1.7985466633   -3.4135890730    2.8875913190
 H   -1.1877622019   -1.7904739308    2.4892754988
 H   -3.2866814419   -3.4292063744    1.0131934119
 H   -2.7761238209   -1.8057094951    0.4940167499
 H   -1.4717659791   -4.2014926572   -0.7557257388