15

 C    0.0376884349    1.4537046609   -0.0065221325
 N   -0.0016974517   -0.0004019498   -0.0011530009
 C   -0.0480945536   -0.6809597037    1.2017937972
 O   -0.0581793942   -0.1355576533    2.2827505243
 C    0.0081220188   -0.6611218066   -1.2221795716
 C    0.0499908489   -0.1302882245   -2.4752745581
 O    0.0422491809   -1.1820534067   -3.3621437336
 C   -0.0037026890   -2.2764511824   -2.5870428661
 N   -0.0260745930   -2.0455121431   -1.3144722902
 H    0.9493722053    1.8116943973   -0.4977390283
 H   -0.8318649676    1.8600736640   -0.5351191741
 H    0.0247434347    1.7834312893    1.0311815763
 H   -0.0743622696   -1.7695931257    1.0573877281
 H    0.0850881410    0.8580772080   -2.8932405358
 H   -0.0176077060   -3.2329394139   -3.0853460846