23

 C    0.0343069391    1.6375600412    0.0382182225
 C    0.0082028141    0.1066200914    0.0122490556
 C    0.6707593305   -0.5233957621    1.2429010071
 C    0.6874040861   -2.0611631062    1.2400702731
 C    1.5080251141   -2.6836215910    2.3999939327
 C    0.7523960907   -3.9659801702    2.8355325301
 O    0.7776032156   -4.2147621827    4.2357594005
 C   -0.6298226046   -3.7468543592    2.2640848723
 C   -0.6654205395   -2.7222047656    1.4142685158
 H    1.0621334791    2.0145961884    0.0832429560
 H   -0.4372161385    2.0611618294   -0.8540451132
 H   -0.4979019004    2.0278011638    0.9129111040
 H   -1.0311331600   -0.2359975674   -0.0673051388
 H    0.5154313434   -0.2533564717   -0.8928575690
 H    1.7065707805   -0.1635428281    1.3115014618
 H    0.1659190156   -0.1731819073    2.1542453778
 H    1.1146500464   -2.3841542565    0.2776178071
 H    2.5516423931   -2.8718061652    2.1362470577
 H    1.5107707083   -1.9936374831    3.2535509259
 H    1.2121486154   -4.8638864130    2.4024304243
 H    0.3104162611   -3.4872790519    4.6619868003
 H   -1.4603710896   -4.3945615112    2.5235176329
 H   -1.5436875107   -2.4007998318    0.8640382836