17

 C    0.0208048179    1.5324549011   -0.0440792804
 C   -0.0183442576    0.0047821150    0.0598628717
 N   -1.3630299173   -0.5417287265    0.0325813490
 C   -2.1197490945   -0.8472437699    1.1277206498
 C   -3.3749866774   -1.2343693818    0.7052905024
 C   -3.3686537645   -1.1514108382   -0.7133650020
 O   -4.3836354831   -1.4486574371   -1.5789994895
 C   -2.1229445590   -0.7184267489   -1.1083982939
 H    1.0559603348    1.8879961274   -0.0227172582
 H   -0.4398286700    1.8716490119   -0.9761601834
 H   -0.5199785547    1.9915919539    0.7885024912
 H    0.5511469447   -0.4448633778   -0.7609686873
 H    0.4523515854   -0.3245815885    0.9914173540
 H   -1.7065285150   -0.7677679810    2.1210337947
 H   -4.1906000414   -1.5574349822    1.3353357791
 H   -5.1440526802   -1.7317114675   -1.0639259202
 H   -1.7210125781   -0.5346668600   -2.0905460569