21

 C    0.5517868678    1.5368165914    0.1875302862
 C   -0.0017631802    0.1260256989   -0.0266177042
 C    0.3395652606   -0.7894707614    1.1566682578
 O   -1.4336470926    0.2829815362   -0.1048248365
 C    0.5495081023   -0.4645464944   -1.3281444358
 C   -0.1482364236   -1.5668913317   -2.1082530643
 O   -1.4436456725   -1.9589115012   -1.7173158132
 C   -0.0448298201   -0.1702813254   -2.6869163665
 O   -1.2455934560    0.5346344902   -2.8231303689
 H    1.6409723109    1.5159740365    0.2857525653
 H    0.2942679801    2.1820720694   -0.6569232993
 H    0.1274850235    1.9708398209    1.0973937687
 H   -0.0740719384   -0.3763872553    2.0812267208
 H   -0.0795638248   -1.7887874031    1.0031768266
 H    1.4229540072   -0.8927198560    1.2758655585
 H   -1.7807686429   -0.6037858777   -0.2920151115
 H    1.6339322438   -0.5475853893   -1.3197710039
 H    0.4437924535   -2.3837476882   -2.5134510168
 H   -2.0433433705   -1.5168556440   -2.3385044067
 H    0.6234131290    0.0102258263   -3.5235456238
 H   -1.5335583370    0.7749902079   -1.9246367925