13

 O    0.0571565316   -0.0510982416    0.0847001452
 C   -0.0252321956    1.1291005602   -0.0345166655
 O    1.0895652150    1.9215613100    0.1457019706
 C    0.9908963291    3.2815209682    0.0862676167
 N   -0.1962111742    3.8647459768    0.1314122563
 C   -0.1919263809    5.2016325587    0.0831252960
 N    0.8681272948    5.9975114781    0.0083481892
 C    2.0554301749    5.3747014546   -0.0291437620
 C    2.1848776661    3.9970713463    0.0031338903
 H   -0.9197772183    1.7069648817   -0.2919604628
 H   -1.1665559331    5.6818833407    0.1149658368
 H    2.9346336735    6.0111032792   -0.0888884674
 H    3.1410351172    3.4921602872   -0.0312423636