21

 C   -0.0351678109    1.5645239366    0.0132382118
 C    0.0125572658    0.0350067833   -0.0103102255
 C    0.7059785066   -0.5014359466   -1.2739065672
 C    0.8130294586   -2.0320096777   -1.2605468161
 C    1.4902367780   -2.4987305562    0.0503851538
 N    0.8513418016   -1.9862383863    1.2670953928
 C    0.7190957997   -0.5265852240    1.2385134078
 C    1.5606534342   -3.9642543557    0.1119784175
 N    1.5921582869   -5.1189077032    0.1319114988
 H    0.9756936435    1.9889558469    0.0183015581
 H   -0.5555750485    1.9588792142   -0.8656254657
 H   -0.5548936838    1.9341048231    0.9036129912
 H   -1.0201051501   -0.3462281213   -0.0036003224
 H    0.1701674629   -0.1729804847   -2.1714318885
 H    1.7144482564   -0.0671234916   -1.3389446829
 H   -0.1846119495   -2.4844298663   -1.3185164788
 H    1.3808544256   -2.3947020960   -2.1239684851
 H    2.5246553683   -2.1244346299    0.0526719570
 H   -0.0654132710   -2.4142656037    1.3649375250
 H    1.7307741306   -0.0991979342    1.3011545878
 H    0.1935668552   -0.2199552666    2.1490880807