17

 C   -0.0267344767    1.5552789525   -0.1321921178
 C    1.4229746298    1.9769718544    0.0666413984
 C    2.1126151212    1.3962745582    1.2758673825
 C    1.2671433717    0.4389096630    2.1024216817
 N    0.6871578757   -0.5451586882    1.1710396032
 C    0.0014381124    0.0403939178    0.0044008939
 C    1.4088711127   -0.4487358419   -0.1164475125
 C    2.3214066625    0.7602299087   -0.0847927687
 H   -0.7066966168    2.0258554511    0.5892503535
 H   -0.3798002828    1.8281450066   -1.1336156465
 H    1.7444976139    2.9493774186   -0.2900532799
 H    2.9020755731    1.9660621753    1.7546340141
 H    1.8844004552   -0.0994399226    2.8303241238
 H    0.4641662713    0.9394395965    2.6564503882
 H   -0.8554503591   -0.5316764397   -0.3421299543
 H    1.7047251365   -1.3692910491   -0.6064203956
 H    3.2656380996    0.7755532489   -0.6117944341