19

 C   -0.1164655634    1.5362343430    0.0421874154
 C    0.0158901754    0.0077937774   -0.0182786915
 C    0.8411105890   -0.4922818695   -1.1912457490
 C    1.8470715480   -1.2840995929   -0.8154572723
 C    1.8854584794   -1.4022780800    0.6709865733
 N    2.1271905507   -0.0827781364    1.3362047600
 C    0.7460369171   -0.6005032052    1.1945683187
 C   -0.0459294722   -0.9592137628    2.4244775827
 H    0.8695370355    1.9915328024    0.1613864290
 H   -0.5765183040    1.9283922705   -0.8706374987
 H   -0.7434720312    1.8422805667    0.8867772376
 H   -0.9958873788   -0.4227318150   -0.0738391057
 H    0.6240215455   -0.1924862593   -2.2112608597
 H    2.5695250494   -1.7537702372   -1.4722969809
 H    2.2434953903   -2.3008801588    1.1636180912
 H    2.4296518109   -0.2576743054    2.2946079831
 H   -0.4517631238   -0.0631147656    2.9096591036
 H   -0.8904153892   -1.6112872180    2.1754395596
 H    0.5762008015   -1.4823949838    3.1587360836