15

 C   -0.0043551099    1.5693808647    0.0080989162
 C    0.0197184726    0.0401487946    0.0041907718
 O   -1.3142363813   -0.4999994519    0.0998251882
 C   -1.8056957791   -0.6671855601    1.3426742194
 N   -1.1914295713   -0.3551581572    2.4029660117
 C   -3.1895354521   -1.2837626541    1.2842905113
 O   -3.8108002657   -1.5201255127    2.2855500300
 C    0.5949832880   -0.4991039738   -1.2343962808
 N    1.0782803956   -0.8991193605   -2.2036145901
 H    1.0105688540    1.9555120580   -0.1160369349
 H   -0.6260860350    1.9427132684   -0.8086135312
 H   -0.4000819330    1.9167337211    0.9637778259
 H    0.5992678319   -0.3256342088    0.8578428391
 H   -1.7768769048   -0.5983091660    3.2046046046
 H   -3.5714358500   -1.4946261417    0.2671939988