22

 C   -1.5623739594    1.4326403113    0.8194118717
 O   -1.6221878019    0.0062361754    0.8411829359
 C   -1.0703483414   -0.6324466721   -0.2113781602
 N   -0.5167520247    0.0161725772   -1.1534852927
 C   -1.2376647709   -2.1273522951   -0.0601457206
 C   -2.7094330899   -2.5821232822   -0.1632501955
 C   -3.3003768530   -2.3149428330   -1.5522413528
 C   -2.8210514213   -4.0595166710    0.2143597341
 O   -4.1951860491   -4.4151694972    0.2218277817
 H   -2.0605071841    1.7637187734    1.7317694687
 H   -0.5247138636    1.7771387804    0.8007869493
 H   -2.0713264437    1.8293427414   -0.0633483824
 H   -0.1599302385   -0.6216004118   -1.8613390222
 H   -0.6342497092   -2.6272825264   -0.8256782669
 H   -0.8361232671   -2.4164944184    0.9186337585
 H   -3.2851077769   -2.0170444985    0.5791177622
 H   -2.7382297141   -2.8550807613   -2.3248170120
 H   -4.3374757340   -2.6531120544   -1.5939057371
 H   -3.2684281311   -1.2504968725   -1.8017543525
 H   -2.2560391709   -4.6698287646   -0.5111604260
 H   -2.3659104950   -4.2215696237    1.2049384441
 H   -4.2628658103   -5.3572025169    0.4008140247