13

 C   -0.2175857742    1.4355880601    0.3915625067
 C    0.0666696818   -0.0043706585    0.0163090128
 O    0.6870286329   -0.6408022624    1.1589005784
 C    1.0078707876   -1.9210797083    1.0053698585
 O    0.8324013161   -2.5909155129    0.0169793220
 C    1.6587459956   -2.5196467452    2.2583278311
 O    1.8653297618   -1.9194983431    3.2745648140
 H    0.7061055016    1.9624719512    0.6453005982
 H   -0.6885729233    1.9491063931   -0.4517268564
 H   -0.8924502319    1.4893046171    1.2499742896
 H   -0.8444155878   -0.5561493326   -0.2352830266
 H    0.7471582765   -0.0851535826   -0.8370631790
 H    1.9164532234   -3.5868349861    2.1045102106