21

 C   -0.0117111952    1.4883712938   -0.1572650819
 O    1.3527518425    1.6731650620    0.2699677525
 C    1.5012652294    0.2683108260    0.5575816962
 C    0.0844275263   -0.0455178753    0.0217535245
 C   -0.9093597528   -0.7179231675    0.9637971961
 C   -2.3589775841   -0.7800781131    0.4033006695
 C   -2.9374417457   -2.1405596815    0.8687374845
 C   -1.6978835666   -2.9401651313    1.1938364510
 C   -0.6095106801   -2.1756417944    1.2510635930
 H   -0.7226838369    1.9867826202    0.5169399893
 H   -0.1762572666    1.8556362461   -1.1772900959
 H    2.3424084353   -0.1761263927    0.0121099567
 H    1.6397633737    0.0831673033    1.6323912307
 H    0.1062668793   -0.5806890330   -0.9323441757
 H   -0.8949222305   -0.1552170217    1.9118035294
 H   -2.9689432779    0.0714367898    0.7151163021
 H   -2.3158427946   -0.7626347352   -0.6918100924
 H   -3.5710149954   -2.0328497375    1.7606529517
 H   -3.5656469575   -2.6127293535    0.1050134680
 H   -1.7250204917   -4.0053999940    1.3967983337
 H    0.3862410391   -2.5230517006    1.5070653566