18

 C   -0.0868651281    1.5891774483    0.0389728089
 C    0.0463301294    0.0742788957    0.0016317946
 C    1.1226666693   -0.5794858368   -0.9603294250
 C    1.7674505559   -1.2626103209    0.2506081738
 C    2.1913542760   -0.3482722177    1.3566896945
 C    0.7269839428   -0.6545314490    1.1827848098
 N    0.1632630413   -1.7619812271    1.9270990990
 C    0.7927867618   -2.7887383985    1.5053088247
 O    1.7376120113   -2.6569222814    0.5117801831
 H    0.8761532379    2.0769809085    0.2249019521
 H   -0.4715073123    1.9707233797   -0.9130730383
 H   -0.7761190281    1.9003815661    0.8306817136
 H   -0.9302717071   -0.3831653846   -0.1767812117
 H    0.6837538027   -1.2961698634   -1.6560092883
 H    1.7692531069    0.1064315841   -1.5171567116
 H    2.6680707191   -0.8165828440    2.2095262219
 H    2.5733971428    0.6359576379    1.1041998697
 H    0.6681179383   -3.8031526770    1.8665144692