21

 C   -0.1915184252    1.5373456594   -0.0122187719
 C    0.0815505602    0.0327617003    0.0169108022
 C    0.7430956256   -0.4759986196   -1.2633012756
 C    2.1823847218   -0.1377561986   -1.5562179384
 C    1.7997148310   -1.5622406495   -1.2264171582
 C    2.2388487824   -2.1784496421    0.1020770300
 C    1.2695341540   -1.8625047568    1.2634036078
 C    0.8739677815   -0.3956123517    1.2537353209
 O    1.1575630614    0.3688264244    2.1475278235
 H    0.7428347380    2.0992151336   -0.0952239744
 H   -0.8238579046    1.7965367522   -0.8670443023
 H   -0.6905749121    1.8605341305    0.9041633433
 H   -0.8787906421   -0.5000453636    0.1108421866
 H    0.0754561611   -0.4848916722   -2.1206609714
 H    2.4656497942    0.1082628841   -2.5735751228
 H    2.7340085626    0.4129704534   -0.7985176661
 H    1.7900624424   -2.2509969397   -2.0653441546
 H    2.3186622781   -3.2648205523   -0.0023034905
 H    3.2411437377   -1.8227313643    0.3663038577
 H    0.3584865289   -2.4615027343    1.1375245049
 H    1.7139436932   -2.1059159734    2.2309625095