21

 C   -0.2910892882    1.5872793814   -0.0103324603
 C    0.0246666976    0.0948287037    0.0017736566
 C    1.0644142948   -0.5538698241   -0.9895761272
 C    2.2381241274    0.3828826117   -1.3187958695
 C    2.9286847011    0.6397205310    0.0513270396
 C    2.3252355724   -0.4209088403    0.9693374995
 C    1.5557961562   -1.4535375713    0.1791210889
 C    0.8151334963   -0.5530457132    1.1396675881
 O    0.2621406426   -0.9266347622    2.3559412353
 H    0.6035558633    2.2091223691    0.0802853923
 H   -0.8053630987    1.8746498099   -0.9344212834
 H   -0.9561110022    1.8414647013    0.8231014541
 H   -0.9120565245   -0.4675679315   -0.0904958965
 H    0.6257368354   -1.0420989186   -1.8601864310
 H    2.9288007410   -0.1189260306   -2.0051192451
 H    1.9115842152    1.3058332260   -1.8079787211
 H    4.0139119423    0.5102694792   -0.0176828392
 H    2.7580452125    1.6572986810    0.4179937413
 H    2.8836280036   -0.7673356610    1.8331570131
 H    1.7171032238   -2.5226937861    0.1898475155
 H    0.3920046683   -0.2064571855    2.9821749692