23

 C   -0.1852585301    1.3802899982    0.0126531675
 O    0.2699635933    0.0513014396    0.0829381987
 C    0.7433530496   -0.5650362731   -1.0913388612
 C    0.7669145678   -2.0632444921   -0.8525979328
 C   -0.6056039563   -2.6576162452   -0.6084947153
 C   -1.4420834861   -3.1756225182   -1.7519627722
 C   -0.8320935233   -4.1389396720   -0.7619818883
 C    0.4342459127   -0.0418413435   -2.4694841428
 C    1.8449938966    0.0584388330   -1.9064753542
 H    0.5791567182    2.0743300553   -0.3667062923
 H   -1.0874549728    1.4798546430   -0.6067075764
 H   -0.4326021851    1.6748277787    1.0356929730
 H    1.2387241660   -2.5546554848   -1.7116400717
 H    1.4113467280   -2.2553232471    0.0154523264
 H   -1.1496077123   -2.1718255479    0.1950792300
 H   -2.5146238929   -3.0167565270   -1.7253708522
 H   -1.0175200384   -3.1450990949   -2.7504031376
 H    0.0014483321   -4.7476563549   -1.0987343036
 H   -1.4862373621   -4.6396659509   -0.0565680678
 H    0.2312538950   -0.7643294094   -3.2521020618
 H   -0.1173166036    0.8844086221   -2.5780887315
 H    2.1926035502    1.0477665500   -1.6290586833
 H    2.6210214536   -0.5869939790   -2.3041377806