20

 C    0.1823746415    1.2767528381    0.2799881232
 C   -0.1798063797   -0.2098841775    0.1440459137
 C   -1.6816486894   -0.3270555889   -0.0821493781
 O   -2.4835625755   -0.5673239871    0.7819305821
 N    0.4887712121   -0.7636012471   -1.0267445076
 C    1.8936445667   -1.1066293656   -1.0524826900
 C    2.3886058481   -1.7295046932    0.2689526035
 C    1.2859963268   -2.8274580199    0.1360026191
 C    0.8205472545   -2.1662967848   -1.1758434431
 H    1.2627703943    1.3875067279    0.4117221759
 H   -0.1062490488    1.8277065409   -0.6204029173
 H   -0.3213107524    1.7172564119    1.1443885259
 H    0.0460277742   -0.7252760699    1.0867683502
 H   -1.9860051196   -0.1435473401   -1.1373984892
 H    2.5183490932   -0.6551462388   -1.8158832568
 H    3.3948198572   -2.1432787408    0.1779413311
 H    2.3584325852   -1.0849411671    1.1524259803
 H    1.7135685699   -3.8170541876   -0.0371192262
 H    0.5440685649   -2.9069341542    0.9358370117
 H    0.4531135968   -2.6863302663   -2.0539472185