17

 O   -0.2543751933    0.5504894809    0.9353225630
 C   -0.0045738425    1.1948000413   -0.0362440093
 O   -0.8778806484    1.3925933467   -1.0604519881
 C   -1.4695331819    2.6979695498   -1.2141034910
 C   -0.4487849617    3.8368921394   -1.1335728067
 C    0.7831895760    3.4932736510   -1.9437603662
 C    2.1743005555    3.6935968749   -1.3805634142
 C    1.5794714273    2.3195343427   -1.4530931138
 O    1.2257004435    1.7431411354   -0.2094872441
 H   -1.9400607195    2.6604730107   -2.1999113536
 H   -2.2568059193    2.8205997381   -0.4605160307
 H   -0.9198412213    4.7594995221   -1.4896278150
 H   -0.1735219472    4.0133533964   -0.0886680838
 H    0.6698351526    3.5692904157   -3.0215082031
 H    2.9833484381    3.9374295100   -2.0593242964
 H    2.2577578976    4.1331926615   -0.3926662585
 H    1.9736470349    1.5911883335   -2.1540880785