18

 N   -0.3074047591   -1.1553551023   -0.0367552936
 C   -0.0755743154   -0.0222766726   -0.0217863903
 C    0.2243983470    1.4012684911    0.0105851647
 C   -0.1091567439    2.0825556763    1.3793782037
 C    1.3947395697    1.9753615552    1.7696025222
 C    1.7334728791    1.7202381390    0.2763446398
 C    2.0109281647    3.1625226355    2.4571990845
 C    3.3408733586    3.6818803071    2.1175705563
 O    2.1567473997    4.3518660833    1.6742920995
 H   -0.2113661062    1.8728358076   -0.8729750067
 H   -0.4077807210    3.1213176487    1.2216427961
 H   -0.8408392478    1.5830535002    2.0150216370
 H    1.5712091745    1.0792237568    2.3736468848
 H    2.4527098690    0.9358418920    0.0394180979
 H    2.0133152076    2.6491732756   -0.2246710466
 H    1.6427092472    3.3482389601    3.4683293487
 H    3.9241588049    4.2119512574    2.8685123708
 H    3.9227249414    3.1997014988    1.3334664813