22

 C   -1.3422976117   -0.6258649859   -0.3461624744
 C   -0.0068207662    0.0299368583    0.0327657274
 C   -0.1410169618    1.5564860244    0.0805291040
 C    0.5165068730   -0.5223766631    1.3706789448
 C    0.8210986437   -2.0464842744    1.3605479161
 O    2.1634034820   -2.1457315391    1.8807852686
 C    2.6038760087   -0.8629790118    2.0175538322
 C    4.0174593090   -0.7332549178    2.4718894902
 N    1.7998983594    0.0869389278    1.7639197981
 H   -2.1099176195   -0.4073358924    0.4061064481
 H   -1.7034511306   -0.2436068551   -1.3060931490
 H   -1.2636292862   -1.7146627069   -0.4351652983
 H    0.7391737314   -0.2270702642   -0.7333619865
 H   -0.8888727681    1.8575709928    0.8244074628
 H    0.8078431643    2.0225450453    0.3525456716
 H   -0.4630245210    1.9487882903   -0.8897635976
 H   -0.2252190367   -0.2805367892    2.1458557541
 H    0.1607490667   -2.6396123868    1.9973142563
 H    0.8159713975   -2.4732656268    0.3509039450
 H    4.1492518842   -1.2243914653    3.4412375297
 H    4.6906902212   -1.2270667839    1.7641877997
 H    4.2812622807    0.3202228734    2.5567134972