21

 C   -0.1276613664    1.3954740980   -0.0180017167
 C    0.1054253095   -0.1215944506    0.0368230875
 C    0.7930427091   -0.6226558228   -1.2251392002
 C    0.5779241695   -2.0113047175   -1.6920216018
 N    0.0018088128   -0.8768068540   -2.4398005961
 N    0.8135739535   -0.5310980273    1.2499675493
 C    2.1671667770   -0.0615609045    1.5061453865
 C    0.2301049434   -1.3811750516    2.1456636306
 O    0.7351188667   -1.7910534789    3.1694932309
 H    0.8148434184    1.9437879484   -0.1073434540
 H   -0.7371965014    1.6488645217   -0.8902042644
 H   -0.6437470245    1.7415755336    0.8817637632
 H   -0.8739563257   -0.6156228023    0.0880920205
 H    1.7495990969   -0.1503264465   -1.4405837071
 H    1.3702233078   -2.5453607200   -2.2078623044
 H   -0.0872387522   -2.6440976700   -1.1091130874
 H   -0.9916115740   -0.7993746566   -2.2295909003
 H    2.2041936233    1.0300532559    1.5821098749
 H    2.4839207812   -0.4968760105    2.4538491893
 H    2.8562943532   -0.3820572696    0.7175269683
 H   -0.7938443583   -1.6655983250    1.8311122415