17

 C   -0.1308650151    1.3993234810   -0.2325186009
 C   -0.2216484299   -0.1177214123   -0.2343786271
 O    0.2860545207   -0.8041903074   -1.1042964674
 N   -0.9125767146   -0.6691468200    0.8079664792
 C   -1.1213851820   -2.1030547588    0.8958299773
 C   -2.2570326273   -2.6049763434   -0.0217022826
 C   -2.3507153001   -4.1123001679   -0.0152277277
 O   -3.3253560471   -4.7418546293    0.3074845162
 H    0.9120140725    1.6862766405   -0.3844543689
 H   -0.7037204840    1.7899447880   -1.0787391262
 H   -0.5005314181    1.8606043554    0.6869281023
 H   -1.3887378426   -0.0690036777    1.4598247437
 H   -0.1843858885   -2.5905441756    0.6111333665
 H   -1.3339305307   -2.3554129510    1.9386866191
 H   -3.2236902057   -2.1855344207    0.2700712860
 H   -2.0147614813   -2.2841500597   -1.0426932945
 H   -1.4164961863   -4.6296271212   -0.3369378949