25

 C    0.4917353288    1.5096996250    0.3808181503
 C    0.2956364173    0.0331643360    0.0764693068
 O    0.6201137477   -0.7066965089    1.2350315804
 C    0.4306213487   -2.1131481588    1.1150901562
 C    1.6130031997   -2.8036244581    0.3936178141
 C    2.5871745176   -3.1468648485    1.5273536294
 C    1.6563657020   -3.6528932212    2.6443549608
 C    2.2919246113   -3.7163891212    4.0319025019
 C    0.4369890840   -2.7026339707    2.5481490688
 H    1.5322710081    1.7105893300    0.6517095536
 H    0.2365932220    2.1178079071   -0.4923459200
 H   -0.1434986536    1.8156424209    1.2169430655
 H   -0.7497375118   -0.1658210283   -0.2166715207
 H    0.9269430654   -0.2649760034   -0.7762793613
 H   -0.5207553369   -2.2969575281    0.5944893626
 H    1.2588663525   -3.7247429421   -0.0863043937
 H    2.0448122853   -2.1746986817   -0.3895021592
 H    3.3523828670   -3.8752391522    1.2423773296
 H    3.1016187596   -2.2364720835    1.8606614209
 H    1.3287838676   -4.6651657627    2.3676514235
 H    2.6423522961   -2.7258569870    4.3450256976
 H    1.5785081665   -4.0691585069    4.7847221637
 H    3.1515095426   -4.3953457308    4.0465451736
 H    0.5461085833   -1.8643340025    3.2434155098
 H   -0.5019335007   -3.2069244525    2.7926830955