19

 C   -0.1287097167    1.6004173429   -0.0529641274
 C    0.0463391135    0.0874141886   -0.0254545151
 C    0.7100813073   -0.6024512516   -1.2244115532
 C    2.1377561771   -0.2329449110   -1.3749973368
 C    1.7978724660   -1.2228669656   -0.2810246790
 C    2.2758639472   -2.6109269621   -0.3230285840
 O    2.6682426969   -3.1767918243   -1.3185888133
 C    1.1652792179   -0.5217919363    0.9105564855
 O    2.0537871641    0.3649469169    1.5550028496
 H    0.8165736153    2.1164756262   -0.2370254244
 H   -0.8354206134    1.8944574054   -0.8357885979
 H   -0.5250145260    1.9648165083    0.9018510507
 H   -0.9113448810   -0.3911148700    0.2010464994
 H    0.1876754378   -1.1603144982   -1.9921185768
 H    2.6521092700   -0.6923854736   -2.2119240260
 H    2.5026779741    0.7449710991   -1.0802177411
 H    2.2302832695   -3.1406201676    0.6567132792
 H    0.7393032647   -1.2420002813    1.6233094190
 H    1.5851359856    0.7925043744    2.2793334416