23

 C   -0.0490623747    1.6094786209    0.0641635374
 C   -0.0059829582    0.0828827335    0.2125309472
 C   -1.3849024378   -0.5547854251    0.0641466780
 C   -2.0114657476   -0.7077083266   -1.3784658453
 C   -1.1438483550   -2.0008608141   -1.5221222395
 C   -1.4976113735   -2.1384394880    0.0033773332
 C   -0.7505139307   -3.0570320968    0.9436395643
 C   -3.0276568379   -2.2644186646   -0.1087084336
 C   -3.3612519006   -1.3342032900   -1.0077051682
 H    0.9426933962    2.0501561411    0.2057793993
 H   -0.4048444797    1.9028606529   -0.9291969712
 H   -0.7230357897    2.0592978759    0.8015161377
 H    0.7089776552   -0.3298207301   -0.5072497138
 H    0.3859404025   -0.1700394928    1.2071128277
 H   -2.0687193155   -0.0992051623    0.7893210488
 H   -1.9909487652    0.0956760734   -2.1150115617
 H   -1.5218113067   -2.7795051845   -2.1892467001
 H   -0.0841322887   -1.8159053350   -1.7177281330
 H    0.3236221373   -2.8448496429    0.9440444944
 H   -1.1110732697   -2.9508652123    1.9734603506
 H   -0.8805790803   -4.1061774135    0.6542486357
 H   -3.6462296210   -2.9563519021    0.4470158500
 H   -4.3307352287   -1.0516761768   -1.3934351779