17

 C   -0.0482488660    1.5566237091   -0.3685658455
 N    0.0434936460    0.1270978138   -0.1408989648
 C   -1.0461651910   -0.4981636765    0.1136454063
 N   -2.3112548240    0.0031021793    0.2273069245
 C   -0.9815962651   -1.9880806564    0.3650196464
 O   -2.0008753801   -2.6202378149    0.5493530163
 C    0.3769694573   -2.6238314207    0.3906459123
 C    0.6192307763   -3.6961629141    1.3808245444
 O    0.4012141092   -4.0047879924    0.0187005251
 H    0.9508481282    1.9697999610   -0.5227375085
 H   -0.6471794919    1.7937800314   -1.2632015928
 H   -0.5102614948    2.0820177964    0.4819748704
 H   -2.5360065304    0.8983431193   -0.1700161698
 H   -3.0453202824   -0.6876872246    0.2817415615
 H    1.2018493257   -2.0167460145    0.0375790021
 H    1.6327437649   -3.8444648361    1.7507889840
 H   -0.1905292719   -3.9710784802    2.0541434582