17

 C   -0.4269689762    1.3602681162    0.2677562708
 C   -0.1804718826   -0.1006296619    0.1079889108
 N   -0.1698558770   -0.6998751628   -1.0213861885
 C    0.1025554225   -2.1117132949   -0.7737503445
 C    0.2570629314   -2.2595827927    0.7330325451
 N    0.4974430657   -3.2475774181    1.4909579159
 N    0.0654796880   -0.9505683279    1.2204050282
 C    0.1293533455   -0.6611422972    2.5785320118
 N   -0.0386465219    0.5071175446    3.0492465864
 H    0.4174572481    1.8477549554    0.7604609719
 H   -0.5865808268    1.7848557516   -0.7239598743
 H   -1.2949814057    1.5429132094    0.9054692835
 H   -0.7160608294   -2.7366391364   -1.1505743131
 H    1.0122830180   -2.4289423703   -1.2976043807
 H    0.6036187340   -4.1031601485    0.9485489160
 H    0.3395759413   -1.5711185687    3.1457160245
 H    0.0519511550    0.4822953923    4.0633502862