16

 C   -0.0229299986   -1.1599912733    0.3192969612
 C    0.1150463070    0.0297136406    0.4181924564
 C    0.3046570692    1.4713312320    0.5028269874
 C    1.1664388883    2.0148534272   -0.6684959594
 C    1.3576082109    3.4573472417   -0.5911724176
 C    1.4969657409    4.6481245765   -0.4979476492
 C    1.6775818707    6.0947468544   -0.4026549694
 C    2.0974519738    6.5352867822    0.9348644790
 N    2.4262762770    6.8931748137    1.9820946300
 H   -0.1541987989   -2.2113095424    0.2483321602
 H   -0.6660516237    1.9799848937    0.4984636115
 H    0.7858614524    1.7335683786    1.4517811324
 H    2.1373150252    1.5067313423   -0.6630519365
 H    0.6860002359    1.7512491429   -1.6175742420
 H    2.4290229887    6.4369881707   -1.1260187461
 H    0.7477342010    6.6192796494   -0.6580112478