21

 C   -0.2114310744    1.5200557578    0.0449982135
 C    0.0355483834   -0.0009623366   -0.0149728897
 C    0.7934100381   -0.4431524645   -1.2754086377
 C    2.2559918016    0.0171809723   -1.2584511483
 C    2.9160143772   -0.2557810303    0.0621133465
 C    2.2603953567   -0.4872578319    1.2116095642
 C    2.9505169814   -0.7878986359    2.5136630905
 C    0.7726854163   -0.4325356872    1.2538806034
 O    0.1658730521   -0.6688205138    2.2818961119
 H    0.7256292284    2.0860905766    0.0702643680
 H   -0.7820703648    1.8499917229   -0.8291742070
 H   -0.7801165298    1.7748072701    0.9432209422
 H   -0.9393416447   -0.4981424533    0.0207591172
 H    0.7747183797   -1.5384096468   -1.3317642634
 H    0.2846692327   -0.0715971446   -2.1720633306
 H    2.8197669189   -0.4774193516   -2.0585312121
 H    2.3288593304    1.0925223563   -1.4804582199
 H    4.0053530983   -0.2587166084    0.0708392478
 H    4.0369015512   -0.7956677057    2.3939114005
 H    2.6826704335   -0.0503123119    3.2772017790
 H    2.6315436638   -1.7588601434    2.9060658040