14

 O    0.0313990603    0.0239285871   -0.4643267710
 C    0.0204399592    1.1973440930   -0.1775618643
 N    1.0930353915    1.8791067553    0.3462123803
 C    2.5227171658    1.5197492649    0.1780043803
 C    2.8689248672    2.1100032166   -1.1794075868
 C    2.1855485046    3.2718716080   -1.2094533689
 C    1.4737318926    3.3019057604    0.1331067235
 C    2.7460200491    2.8710045631    1.0091547479
 O    3.4633345255    3.3173494854    1.8301040861
 H   -0.8820805904    1.8370389546   -0.2380640715
 H    2.8564176249    0.5331403488    0.4802771691
 H    3.5930288019    1.7155670269   -1.8764484684
 H    2.2093899968    4.0697812624   -1.9367494051
 H    0.7736467310    4.0879828435    0.4011121587