19

 N   -0.0132454682   -1.1597278097   -0.0221621733
 C   -0.0004236754   -0.0053485839    0.0351378094
 C    0.0402848940    1.4533515656    0.1133944394
 C    1.4725463274    2.0209721555    0.0541634588
 C    2.2240821087    1.6791253269   -1.2605491804
 C    3.1976620263    2.8560773235   -1.5061694055
 C    2.5173591235    4.0406179730   -0.8446638950
 N    1.0786848230    4.1502282654   -1.1800226448
 C    1.4950749853    3.5410956463    0.1038061237
 H   -0.5410359222    1.8727963393   -0.7153873813
 H   -0.4556011674    1.7597759821    1.0420563561
 H    2.0361811859    1.6428854487    0.9158767486
 H    2.7305629617    0.7135195277   -1.2051951998
 H    1.5043199150    1.6244966025   -2.0809161970
 H    4.1613839931    2.6819916902   -1.0129394322
 H    3.3954370324    3.0141386916   -2.5706840132
 H    3.0744981559    4.9513276006   -0.6491685217
 H    0.7692289519    5.1040974581   -1.0123750975
 H    1.2644161590    4.0555756768    1.0318691454