23

 C    0.8735804223    1.4271999899   -0.1025650901
 C    0.0768522351    0.1295072075    0.0039685071
 C    0.5645491499   -1.0352626287   -0.9106180629
 C    1.1574583711   -1.7802119416    0.3267207967
 C    2.6802247720   -1.7699239319    0.4519318040
 C    3.3547336012   -2.7787735746   -0.4689649997
 O    4.7590406826   -2.6513802619   -0.3011081581
 C    0.4012531094   -0.7639354353    1.2464345184
 O    1.0575233535   -0.2045101547    2.3577877440
 H    1.9562386306    1.2556866355   -0.0779602317
 H    0.6550033620    1.9358736770   -1.0472815595
 H    0.6236606676    2.1109180249    0.7151313201
 H   -0.9881034655    0.3628161360   -0.0922429869
 H   -0.2493631141   -1.5781531624   -1.3969768719
 H    1.2892339943   -0.7503327521   -1.6800099628
 H    0.8029180229   -2.8104031594    0.4439826833
 H    3.0920260555   -0.7795390098    0.2175759986
 H    2.9676553943   -1.9939864298    1.4858591991
 H    3.0114932779   -3.7949690582   -0.2142853076
 H    3.0607456642   -2.5895893394   -1.5141300907
 H    5.1902405363   -3.2861355056   -0.8804856492
 H   -0.5091499192   -1.2120029907    1.6539629327
 H    1.8697857559    0.2136057053    2.0546686472