22

 C    0.5393713482    1.5979189958   -0.2717807788
 O    0.3829886003    0.2021764195   -0.1837627690
 C    0.8697538496   -0.4800038051   -1.3202706920
 C    0.6469345525   -1.9557190132   -1.1198081019
 C    1.1955011745   -2.8805962453   -0.0095970986
 N    0.3614935817   -3.8616577125   -0.8542540168
 C   -0.6740540113   -2.7199710831   -0.8727980223
 C    1.0133602758   -3.1380596796   -2.0614325292
 C    0.4150330301   -3.3497152219   -3.4396008066
 H    1.5986347501    1.8859466749   -0.3663177903
 H   -0.0060435501    2.0173749968   -1.1323157697
 H    0.1364405281    2.0315208378    0.6467853489
 H    0.3498584710   -0.1356529955   -2.2321425225
 H    1.9455571953   -0.2751830135   -1.4664911867
 H    2.2661409950   -3.1068701065   -0.0073600462
 H    0.8108094842   -2.7440981320    1.0032881841
 H   -1.1671300399   -2.5707680594    0.0903945192
 H   -1.4103777707   -2.7903125035   -1.6741385866
 H    2.0859695881   -3.3648738869   -2.0995793778
 H   -0.6342273626   -3.0583078583   -3.5205230003
 H    0.9790303567   -2.7732521158   -4.1809076630
 H    0.4921689135   -4.4071492827   -3.7137585938