16

 C   -0.1484466558    1.5980148469    0.0311356263
 C   -0.0221098811    0.0901877610   -0.0517583930
 C    0.8843001548   -0.5853985914   -1.0814644561
 C    2.1305454300   -0.2715912904   -0.1968841670
 C    2.6052476380   -1.7261561299   -0.1495235185
 C    1.0772360871   -1.7743328885   -0.0937229660
 N    1.0247367696   -0.5526972110    0.8653888091
 H    0.8124482566    2.0999060073   -0.1174317484
 H   -0.8424431514    1.9683598512   -0.7312548415
 H   -0.5362618792    1.8941237839    1.0113705628
 H   -1.0017302271   -0.3863115876    0.0870326671
 H    0.8263128667   -0.6209563658   -2.1756412699
 H    2.7196008590    0.6452665507   -0.1608723656
 H    3.0820910808   -2.1214329330   -1.0500266918
 H    3.1316430561   -2.0317748675    0.7585661434
 H    0.4038131860   -2.6193837360    0.0624494991