20

 C   -0.0662976506    1.5306645072    0.0645787698
 N    0.1040202872    0.0847147380    0.0271476440
 C    1.1242220828   -0.5862547516   -0.8919767098
 C    2.3441287383    0.2918187890   -1.0150833735
 C    2.9487564162    0.3383176223    0.1838200955
 C    2.2847805959   -0.5973388181    1.1157985269
 C    1.4370307506   -1.5445798667    0.3003169936
 C    0.6796949627   -0.5917850723    1.1615870275
 C   -0.0612817226   -0.7494982083    2.4545562013
 H    0.8355892424    2.0889882213    0.3562987110
 H   -0.3904040974    1.8835666901   -0.9200082594
 H   -0.8615567816    1.7661267774    0.7801340386
 H    0.6724817874   -0.9702072001   -1.8069794934
 H    2.5517315272    0.9272659066   -1.8669084484
 H    3.7577013883    0.9996042321    0.4711442721
 H    2.7676258651   -0.9466016645    2.0211178568
 H    1.4876153981   -2.6266202679    0.2967843623
 H    0.4835271117   -1.4119716998    3.1336518141
 H   -0.1873746516    0.2130681132    2.9630454934
 H   -1.0562404300   -1.1737735077    2.2820808576