18

 C   -0.0385236155    1.6128341701   -0.0319285215
 C    0.0786891749    0.0984414338    0.1041670460
 N    1.1675308534   -0.7867064926   -0.3559399324
 C    2.5431789332   -0.3321780121    0.0860369980
 C    2.7049449209    0.9036371037    0.9350579751
 C    2.1948552443   -0.3672322708    1.5503014474
 C    0.7562995697   -0.7540082240    1.1296357879
 C    0.0955833472   -1.8456106327    1.7664643424
 C   -0.4510867533   -2.7461650448    2.3489732914
 H    0.6932719174    2.0137234936   -0.7371808930
 H   -1.0313291879    1.8549495234   -0.4204716411
 H    0.0734345687    2.1338802029    0.9219337706
 H   -0.8461371257   -0.3936406300   -0.1944582153
 H    3.3704901837   -0.7823091714   -0.4460269067
 H    3.7490907601    1.0891938958    1.1755913922
 H    2.1236766193    1.8063376495    0.8404629562
 H    2.6892937398   -0.8843486188    2.3605886109
 H   -0.9366485503   -3.5471012558    2.8491460418