23

 C   -0.0294109170    1.8445910015    0.7749169373
 C   -0.0706940745    0.3259676940    0.5944376928
 O    0.2810461344   -0.0515843101   -0.7369555736
 C    0.7858867890   -0.4129443003    1.5985144435
 C    2.3395804140   -0.3189763016    1.7715778538
 C    1.8599295359   -1.3588445735    2.8233613181
 C    0.7069502725   -0.3703943771    3.1580817868
 C    0.9651691236   -1.9685839115    1.6972586586
 C   -0.2041090267   -2.8933452421    1.9990556436
 H    0.9955128483    2.2211407232    0.6726685486
 H   -0.6488921168    2.3287481942    0.0153652187
 H   -0.3958884497    2.1372033228    1.7639385647
 H   -1.1074971160   -0.0170587335    0.7075421989
 H    1.2012978498    0.2013952779   -0.8717986848
 H    2.9532831300   -0.7042836103    0.9510614198
 H    2.7358282928    0.6219245106    2.1634282522
 H    2.4869340415   -1.9002119438    3.5336382880
 H    1.0020420267    0.5707037447    3.6310217537
 H   -0.1902401627   -0.7724706661    3.6307863991
 H    1.5459480333   -2.3768164561    0.8623110331
 H   -0.8324649801   -2.5511944968    2.8254828556
 H   -0.8442286474   -2.9963071388    1.1159368143
 H    0.1589212093   -3.8949233176    2.2555952972