14

 N    0.0020819574    1.3726091089    0.1542261656
 C   -0.0009301580   -0.0079783454    0.0409572672
 N   -1.1314353856   -0.6478605803    0.0136122398
 N   -1.0756772870   -1.9983479500   -0.0056596235
 C    0.0454339594   -2.8213626469   -0.0240960684
 O   -0.0602319777   -4.0381673001   -0.0472182950
 C    1.2857495460   -2.0622817733   -0.0186094873
 C    1.2669940984   -0.7084579918    0.0142134460
 O    2.3581971041    0.0950632529    0.0108584429
 H    0.8014740059    1.8283180854   -0.2595840800
 H   -0.8820913978    1.7975200156   -0.0857688163
 H   -1.9741087969   -2.4591453567   -0.0173352720
 H    2.2094583480   -2.6299018206   -0.0434029885
 H    3.1568837440   -0.4443112878   -0.0226401906