16

 C   -0.0109223414    1.5117099834    0.1143858202
 C   -0.0324247238   -0.0060676367   -0.1150127726
 C   -1.4041487413   -0.5824886290    0.0165911271
 C   -2.1456334905   -1.0273249354    1.2225216779
 C   -1.9532087401   -1.9919967710    0.0359413904
 C   -2.8341870083   -1.5089719780   -1.0815715134
 O   -3.6102011256   -1.9573415935   -1.8602498839
 O   -2.3929306350   -0.1925080654   -0.9953561565
 H    1.0014901498    1.9056845138   -0.0098188455
 H   -0.6649142893    2.0186376650   -0.6004510452
 H   -0.3532014214    1.7632634951    1.1229790491
 H    0.3534744976   -0.2403833764   -1.1137670199
 H    0.6206751005   -0.5095177913    0.6071270189
 H   -1.5456521474   -1.2833851148    2.0911568576
 H   -3.1291319810   -0.6237675808    1.4401321933
 H   -1.4771704029   -2.9573715551    0.1260400524