19

 C   -0.0253793452    1.5087710807   -0.1564712747
 C    0.0556308195   -0.0098878142   -0.0247624278
 C    0.8159500749   -0.7010663711   -1.1824680073
 C    1.2117024411   -2.0789360830   -0.6447332630
 C    2.5449093366   -2.6259561796   -1.1203992498
 O    3.2614445738   -2.0696028354   -1.9114689406
 C    1.2174821384   -1.9325039010    0.9010131146
 O    1.5093260268   -2.8075293001    1.6722184273
 C    0.7889181343   -0.5077343666    1.2324543374
 H    0.9767491167    1.9524360696   -0.1749931014
 H   -0.5344336578    1.7964421588   -1.0823139711
 H   -0.5745367786    1.9549464601    0.6789570285
 H   -0.9659211594   -0.4142555190    0.0015465671
 H    0.2205337851   -0.7557499390   -2.0969499780
 H    1.7268231834   -0.1431107852   -1.4277787025
 H    0.4628619087   -2.8551281631   -0.8592041563
 H    2.8263205233   -3.5928761586   -0.6543805208
 H    1.7071099557    0.0773720450    1.3931715546
 H    0.2142565627   -0.4726817483    2.1606596737