22

 C    0.4551859484    0.9306541732    0.6564327794
 C   -0.2107908194    0.4557728265   -0.6481439046
 C   -1.4976769916   -0.1987518543   -0.4344757406
 C   -2.5576642673   -0.7422378906   -0.2426812381
 C   -3.8321944792   -1.3725888333    0.0044080406
 C   -4.9547236372   -0.4605299740    0.4804796979
 C   -4.6618974693    0.1845936123    1.8374089190
 C   -4.1543213919   -2.6010781437   -0.7850534100
 N   -3.8285511486   -2.7175618339    0.6420274033
 H    1.4142857355    1.4116562250    0.4421769265
 H   -0.1822296927    1.6495693744    1.1782633188
 H    0.6342697764    0.0886106819    1.3304605471
 H   -0.3473724824    1.3114783336   -1.3221120509
 H    0.4628155480   -0.2332811489   -1.1739724381
 H   -5.1273942058    0.3114981242   -0.2789668326
 H   -5.8674541248   -1.0622663406    0.5450566924
 H   -5.4920190205    0.8228353781    2.1545769623
 H   -4.5113432900   -0.5847600149    2.6007828500
 H   -3.7581302390    0.8001324263    1.7927695101
 H   -5.1916867453   -2.8071783826   -1.0363540579
 H   -3.4285749736   -2.9357631554   -1.5202313664
 H   -2.8679538799   -3.0343854338    0.7471033820