20

 C   -0.0217853046    1.4684388159    0.1766691753
 C   -0.1801570792   -0.0075733816   -0.1726318767
 N    0.8879358890   -0.4374931637   -1.0730677050
 C    0.9832131377   -1.7966188657   -1.3741490573
 C    1.4750109852   -2.3851783582   -2.5220820231
 C    1.9981740984   -1.8313817406   -3.8027506058
 N    1.4221841695   -3.7487227853   -2.2506681083
 C    0.9038349247   -3.9050077903   -1.0079420488
 N    0.6268508142   -2.7481128547   -0.4470694976
 H    0.9494044836    1.6539817231    0.6446710524
 H   -0.0916998495    2.1012998751   -0.7166735463
 H   -0.8090341525    1.7868991985    0.8665125031
 H   -0.1126930099   -0.6239960293    0.7265187326
 H   -1.1816909118   -0.1891141355   -0.5993347494
 H    0.9450671893    0.1421696979   -1.9004641603
 H    3.0949916166   -1.8451950750   -3.8651758203
 H    1.6145014337   -2.3783210573   -4.6732051466
 H    1.6860008753   -0.7891244194   -3.9225287919
 H    1.7050990767   -4.4827876211   -2.8773845938
 H    0.7462312037   -4.8752927327   -0.5615027420