19

 O    0.1345863642    0.0240139695    0.0943772798
 C    0.0240002349    1.2138961258    0.0952428847
 C   -1.0893785260    2.2460789617   -0.0161156608
 C   -0.8088714759    3.0096890137    1.3303901715
 C    0.7824677892    3.0736339954    1.3674632587
 C    1.0148046985    2.4209761655    0.0097968705
 C    2.0174051637    2.3072198611   -1.1461436718
 C    0.7750126643    2.4118281304   -2.1104455503
 C   -0.0755060221    3.0037620571   -0.9312007224
 H   -2.1288549397    2.0135751384   -0.2456603382
 H   -1.2495427433    4.0096984241    1.3086731210
 H   -1.2256935490    2.4731777536    2.1858754834
 H    1.1456566117    4.1039240409    1.4115488522
 H    1.1987093337    2.5263144454    2.2180872132
 H    2.6766650395    3.1758350935   -1.2325611895
 H    2.6170027665    1.3950743687   -1.1933115095
 H    0.8854703095    3.0742569602   -2.9700159279
 H    0.4331108359    1.4362267446   -2.4632296603
 H   -0.1971422158    4.0887552205   -0.9685676444