19

 C    0.3148770620    1.2815012813    0.0503627444
 N   -0.3258564715   -0.0199696520   -0.0136740984
 C   -0.0678070191   -0.9666730860   -1.0419959801
 N   -0.0501995707   -0.9394362779   -2.3052558868
 C    0.0929140602   -2.0827900650   -0.0510455318
 O   -0.2815584224   -3.3943921142   -0.2019406286
 C    1.1641995674   -1.7071565766    0.9501632400
 C   -0.1916547278   -1.0414797473    1.0436952715
 C   -1.1078597198   -1.0642479371    2.2254314965
 H    1.3760076194    1.2274780247    0.3380919743
 H    0.2498178965    1.7605131540   -0.9307617175
 H   -0.2066928093    1.9214783575    0.7682061078
 H   -0.2135905913    0.0039947100   -2.6637199530
 H   -1.0597189469   -3.4161204915   -0.7709514943
 H    1.3427827854   -2.4886847628    1.6842141380
 H    2.0546851951   -1.1620011119    0.6484067294
 H   -0.8384862411   -0.3008308469    2.9649237771
 H   -2.1418456279   -0.8845854343    1.9144234522
 H   -1.0581691281   -2.0378046040    2.7224394491