14

 O    0.1499484756    1.4136091851   -0.2192677955
 C    0.0252066023    0.0192301964   -0.0382938216
 C    0.6441078715   -0.5424526367    1.2521797841
 C   -0.2291559183   -1.3009242118    1.9390692336
 C   -1.5101019094   -1.3115176173    1.2144062065
 C   -1.3743223411   -0.5366389674    0.1050630906
 O   -2.4890468777   -0.4888209114   -0.6113818524
 N   -3.4512745240   -1.2796125547    0.0548548382
 C   -2.8508610560   -1.7582208833    1.1274251397
 H   -0.2402627365    1.8451915313    0.5494784196
 H    0.5180427088   -0.4328146973   -0.9091502156
 H    1.6691517300   -0.3252684886    1.5217388923
 H   -0.0311739097   -1.8189980474    2.8682299826
 H   -3.4210905554   -2.4023009168    1.7819473479