20

 C    1.0817023619    1.1508212971   -0.1567233602
 C    0.0660078474    0.0776272579    0.1539840068
 N    0.5885675168   -1.2558913703    0.4938497910
 C   -0.1390656136   -0.4885749409    1.5173397558
 C    0.5795127709    0.0326620112    2.7247491164
 O    0.6250867940   -0.8107227712    3.8834766042
 C    1.8681924788   -0.4364537607    3.2645877876
 C    2.7020434253   -1.5785859172    2.7385336619
 O    3.3804324590   -2.2179378271    3.8126220896
 H    1.9483115654    1.0734391124    0.5039609743
 H    1.4354326742    1.0573010146   -1.1887175630
 H    0.6437663232    2.1480491773   -0.0401236478
 H   -0.8236582932    0.1054823004   -0.4740620944
 H   -0.0055927184   -1.9878863584    0.1147521936
 H   -1.1540024463   -0.8090502038    1.7519309814
 H    0.3057867702    1.0629747617    2.9674996439
 H    2.4436958545    0.2811700742    3.8541197677
 H    2.0788196276   -2.2727083473    2.1680802619
 H    3.4794460433   -1.1989705093    2.0675724133
 H    2.7020169688   -2.5639754805    4.4028585059