19

 C   -1.5609968735   -0.2117602975   -0.0995131791
 N   -0.1155960535   -0.0518139325    0.0287447507
 C    0.6790721415   -0.6070690240   -1.0425186954
 C    0.4116148505   -0.0173136275   -2.4572394831
 C    0.6209553784    1.4270821522   -2.4777088892
 N    0.7912205255    2.5697562617   -2.4343090704
 C    2.1921355762   -0.7121287342   -0.7366126124
 O    2.1978102990   -2.1140306973   -1.0786669561
 C    0.7577021152   -2.1532099489   -1.0898160590
 H   -2.0120916091    0.2821960565   -0.9758657568
 H   -1.8067863976   -1.2781530628   -0.1513467931
 H   -2.0429075159    0.1928712000    0.7942945903
 H    0.1177904451    0.9284717911    0.1575233089
 H    1.0783449651   -0.4909938809   -3.1855076339
 H   -0.6151943084   -0.2321365213   -2.7722898456
 H    2.8771857498   -0.1295720705   -1.3620856601
 H    2.4169429062   -0.5436333796    0.3231708412
 H    0.3490322882   -2.6239115401   -0.1872267481
 H    0.3658250071   -2.6559552645   -1.9815738288