22

 C   -0.0969763426    1.5883029149   -0.0318725016
 C    0.0140787264    0.0576101915   -0.0080353654
 C    0.9836912689   -0.3946645840    1.0932808410
 C   -1.3812642813   -0.5777476407    0.1356946134
 C   -1.4184167911   -2.1029660005   -0.0189043126
 C   -2.8506839185   -2.6654389430    0.0311210843
 C   -2.8654239015   -4.1751583196   -0.0152338657
 O   -3.4529212107   -4.8401967313   -0.8289187554
 H    0.8833145474    2.0547539561   -0.1741989074
 H   -0.7521246559    1.9295697994   -0.8402729705
 H   -0.5089857945    1.9656780572    0.9118945391
 H    0.4270333790   -0.2642776211   -0.9754017895
 H    0.6016898748   -0.1220837691    2.0848508975
 H    1.1465571641   -1.4763616258    1.0838923445
 H    1.9607887299    0.0845561907    0.9731770290
 H   -1.8029419646   -0.3022172731    1.1134379168
 H   -2.0472256865   -0.1337357307   -0.6160753076
 H   -0.9541405579   -2.3863870286   -0.9724675867
 H   -0.8206244300   -2.5780263504    0.7685504870
 H   -3.3212118697   -2.3598881361    0.9776566229
 H   -3.4640244915   -2.2834932510   -0.7904137117
 H   -2.2600270642   -4.6603644850    0.7880635185