22

 O    0.0831208237    1.5106451581    0.0576071234
 C   -0.0482308873    0.1259265930    0.3491654622
 C   -1.4504607281   -0.3681016983    0.0514404173
 C   -2.5711115390    0.5747022890   -0.2221681770
 N   -2.0778244263   -0.3178879115   -1.2662899651
 C   -1.3588397580    0.2590953211   -2.4028874114
 C   -2.3193900824    0.5779852333   -3.5250604964
 C   -2.9721270563    1.9352444791   -3.6118071544
 C   -1.9112272727    1.5410523738   -4.6099001041
 H    1.0141797071    1.7425202523    0.1237169008
 H    0.6790859430   -0.4673655589   -0.2287358345
 H    0.1533571176   -0.0688756679    1.4148870348
 H   -1.6684160055   -1.2910903410    0.5890912071
 H   -3.5716700673    0.3699021274    0.1506914666
 H   -2.3069572046    1.6271860038   -0.2849869717
 H   -0.7860161733    1.1588083665   -2.1340789279
 H   -0.6371034401   -0.4954448778   -2.7443273124
 H   -2.9304125567   -0.2662661293   -3.8309386263
 H   -4.0014951266    1.9935238101   -3.9478307015
 H   -2.7078522603    2.6743298495   -2.8625735283
 H   -0.9388722602    2.0165505340   -4.5274849276
 H   -2.2126931567    1.3270264036   -5.6293463732