19

 C   -0.1499299847    1.4885469090    0.0450786003
 C    0.0276064889   -0.0178302661   -0.0453888978
 C    0.8634584901   -0.5934394796   -1.2140624449
 C    2.0691519753   -0.4254744288   -0.2668488636
 N    1.1044985076   -0.5446709083    0.8938155572
 C    0.8290316738   -1.9824196936    1.0857182231
 C    0.8527317389   -2.7738125826   -0.2539753811
 O    0.5258380119   -1.9649343632   -1.3861449260
 H    0.7846585272    2.0300307038   -0.1278271145
 H   -0.8791111224    1.8308018636   -0.6970759035
 H   -0.5146152793    1.7653378756    1.0388186970
 H   -0.9359406902   -0.5212218190    0.0872206064
 H    0.8444227649   -0.1339017264   -2.2065078151
 H    2.8710648587   -1.1663512866   -0.3000244000
 H    2.5098229036    0.5728065971   -0.2930394510
 H    1.5774523887   -2.4069876853    1.7653138162
 H   -0.1442443752   -2.0671039678    1.5800678071
 H    1.8484432213   -3.2143172141   -0.4036746057
 H    0.1356451108   -3.6001293977   -0.2391919441