16

 C   -0.2229006891    0.6678522596   -0.6739269187
 O    0.0809655360    0.9229363078    0.6889640140
 C    0.8012504246   -0.0340991204    1.3034143947
 C    1.3264919904   -1.2443810464    0.8909055595
 C    1.9925232044   -1.7962247528    2.0175199217
 C    1.8596657049   -0.9201874483    3.0787167603
 N    1.1177174793    0.1632877690    2.6112422465
 C    2.3231673367   -0.9823297679    4.4034830052
 C    2.7137393303   -1.0199426019    5.5445131410
 H   -0.8152220639   -0.2492798797   -0.7795931271
 H   -0.8032524324    1.5217105812   -1.0250571381
 H    0.6931014889    0.5742493789   -1.2700333793
 H    1.2441697527   -1.6778780331   -0.0915941789
 H    2.5178463249   -2.7372726534    2.0574919290
 H    0.8541465047    0.9695776832    3.1509817765
 H    3.0626446876   -1.0645070556    6.5457916239