18

 C   -0.0346667064    1.4151435244   -0.0108128234
 N   -0.0351807503   -0.0397957214    0.0106587574
 C    0.5592267803   -0.6146522650    0.9680033877
 N    1.2403066781   -0.0980412309    2.0532460519
 C    1.7259386593   -1.0840037072    2.9007869434
 N    2.3694530342   -0.8574999811    3.9622688158
 O    1.3804857027   -2.2923173733    2.3796199247
 C    0.6536525962   -2.1235005062    1.1403949280
 C   -0.6961518198   -2.8187892047    1.2059257049
 H    0.9814805856    1.8268623619   -0.1077691735
 H   -0.6154756851    1.7664180324   -0.8665346600
 H   -0.4841361418    1.8478611320    0.8964910818
 H    1.3726516183    0.8756994593    2.2651487079
 H    2.6237321019   -1.7312222112    4.4176448868
 H    1.2657793011   -2.5503716160    0.3378083923
 H   -1.2917429483   -2.4252927313    2.0344112252
 H   -1.2331589236   -2.6357530351    0.2720416323
 H   -0.5669828225   -3.8951781566    1.3436473968