22

 C   -1.6009685623   -0.2227511482   -0.6016599599
 C   -0.1050344773   -0.0407850020   -0.3361985079
 C    0.7942633249   -0.6221360401   -1.4509326967
 C    2.2975643606   -0.3447634086   -1.2175468883
 N    2.5853112605    1.0850890961   -1.2226600450
 C    2.7760620776    1.7357186752    0.0717286604
 C    3.9355587348    1.4620308449   -0.8177486519
 C    0.5897590285   -2.0608920539   -1.6144162761
 C    0.4484518583   -3.2501960891   -1.7249645525
 H   -1.8991176044    0.2722129926   -1.5327333260
 H   -1.8612465302   -1.2816045921   -0.6883909443
 H   -2.1961226075    0.2085839037    0.2090135123
 H    0.1245715450    1.0249622702   -0.2442645093
 H    0.1653377992   -0.5131046212    0.6165118740
 H    0.5254012597   -0.1223239688   -2.3918562064
 H    2.6210323767   -0.8383706802   -0.2836393056
 H    2.8623976901   -0.8039777940   -2.0355611053
 H    2.3721887055    2.7402099485    0.1615652063
 H    2.6826034370    1.1245949171    0.9680141835
 H    4.6165800241    0.6682220517   -0.5141451554
 H    4.3955168649    2.2611037839   -1.3922303096
 H    0.3141860142   -4.2974941056   -1.8369172565