11

 O   -0.0962755472    1.3119248135    0.1823277184
 C    0.0038739611   -0.0082636526    0.0385272977
 C    1.1575719539   -0.6973573362   -0.1163723119
 N    1.1655917045   -2.0742803710   -0.2593687417
 N    0.1641449729   -2.7776114836   -0.2595051243
 O   -1.1480940253   -2.0951622154   -0.0937999031
 C   -1.2688992755   -0.7434924877    0.0547210877
 N   -2.3816807350   -0.1538658473    0.1963885530
 H    0.7823331983    1.7134920816    0.1601680822
 H    2.1336153540   -0.2278606315   -0.1385674029
 H   -3.1473809918   -0.8295999398    0.1820125848