18

 C   -0.0444076787    1.5626845344    0.0228506812
 C   -0.0643962692    0.0333890104    0.0635949720
 C   -1.4911541896   -0.5308256915    0.0310247499
 O   -2.1679893824   -0.1579592712   -1.1508330819
 O    0.6246667364   -0.5298951329   -1.0739351442
 C    1.9243311628   -0.8374210054   -0.6591089614
 O    1.8654916128   -1.0978715614    0.7437114853
 C    0.7292606786   -0.5225141875    1.2328170790
 N    0.3784960853   -0.4688198299    2.4415642380
 H    0.9738646011    1.9423358902   -0.1015685628
 H   -0.6609689050    1.9099898686   -0.8085706735
 H   -0.4460358236    1.9586620531    0.9591352988
 H   -1.4406325029   -1.6231793269    0.1438205789
 H   -2.0551140009   -0.1281936404    0.8758307951
 H   -1.6523638504   -0.5091046383   -1.8861231938
 H    2.2726249366   -1.7365015005   -1.1751170591
 H    2.6225864189   -0.0033979972   -0.8312995615
 H    1.0728366000   -0.9034358937    3.0505912100