19

 C    0.1387976224   -0.0087530922    0.7405709663
 C   -0.2782774657    0.9690453463   -0.3353893208
 O   -0.5939487157    2.1152992642   -0.1053420032
 C   -0.2671493026    0.4863168374   -1.7618112957
 O    0.2884710608   -0.8106948666   -2.0373572245
 C   -1.0988833646   -0.6441477238   -2.2250645246
 C   -2.2101118215   -1.4155068307   -1.5020584719
 C   -3.0881320199   -1.2142478254   -2.7746976237
 C   -1.8214843014   -0.7731336111   -3.5683668500
 H   -0.4578931646   -0.9247523915    0.7010517355
 H    1.1772700538   -0.3142523880    0.5728419329
 H    0.0395774646    0.4649198449    1.7177245451
 H   -0.0273725982    1.2670035784   -2.4834108187
 H   -1.9269992814   -2.4608723609   -1.3472902477
 H   -2.5884650462   -1.0074421074   -0.5625489036
 H   -3.6123648930   -2.0953853736   -3.1464405251
 H   -3.8068226075   -0.4011573497   -2.6550326216
 H   -1.8943786373    0.1219683558   -4.1896994647
 H   -1.3946843819   -1.5850442260   -4.1646949542