17

 O   -0.1101347340    1.4721336385    0.3040353565
 C   -0.0558272490    0.1116063510    0.0424758229
 C   -1.3060262984   -0.7863741275   -0.0634100153
 C   -0.7723063651   -1.9059821015   -0.9177166539
 C    0.4930609372   -1.5370714707   -1.5684807363
 C    0.9980127788   -0.4476998148   -0.9360340422
 C    1.9846367340   -0.7888035974    0.2038218647
 C    0.6294813506   -0.8721624408    1.0217966771
 C   -0.5229119379   -1.8676870689    0.6481000940
 H    0.0262519560    1.9358821237   -0.5293691677
 H   -2.3485196441   -0.5071881089    0.0077853670
 H   -1.4403112458   -2.6841085388   -1.2719460401
 H    1.1193838381   -2.2980848836   -2.0264794139
 H    2.5930349114   -1.6850691640    0.0726739081
 H    2.5945056046    0.0320875905    0.5929719203
 H    0.6488470889   -0.6370351829    2.0888582034
 H   -0.8855740755   -2.6789308539    1.2646553153