15

 O   -0.1036721493    1.3075003815   -0.3085354139
 C    0.0381169121   -0.0209965268   -0.0892105962
 C    1.2602825111   -0.6224055251   -0.0788640451
 C    1.5312008012   -1.9907671436    0.2721850211
 N    0.7832272608   -3.0368387688    0.3319408641
 C   -0.5655140572   -3.0892305225   -0.0438980392
 N   -1.0792125956   -4.1438713061   -0.5564279934
 C   -1.4859732173   -1.9726997482    0.2376678986
 C   -1.2317089930   -0.6539356568    0.1911104673
 H    0.7614978519    1.7047803309   -0.4637985192
 H    2.1365543466    0.0061207669   -0.2253259058
 H    2.5753125633   -2.1679549490    0.5474128314
 H   -0.3418065968   -4.8450812552   -0.6697102793
 H   -2.5038052398   -2.2924259764    0.4391783055
 H   -2.0491103280    0.0439032092    0.3446416243