21

 C   -0.1793277525    1.5529116692   -0.0630972149
 C    0.0153463381    0.0567931355    0.0433151743
 C    1.2592849206   -0.7260767659   -0.3068103628
 C    2.6579020452   -0.0939771594   -0.1798939884
 C    3.0636888524   -0.1522152127    1.3043374075
 C    2.5009038641    0.8496201094    2.2797682601
 O    1.9528104135    2.0774526564    1.9055689313
 C    1.7862997383   -0.4605691893    2.0935632399
 C    0.6882853943   -0.8069093776    1.1020326697
 H    0.7369828748    2.1145882837    0.0900513227
 H   -0.5786446946    1.7898692075   -1.0565253838
 H   -0.9041517489    1.9070661037    0.6780464895
 H   -0.8762163098   -0.4642701395   -0.3072359195
 H    1.1640055414   -1.5531684790   -1.0041217013
 H    3.3756421025   -0.6649378127   -0.7747878437
 H    2.6825036716    0.9323864790   -0.5656102003
 H    4.0166352984   -0.6134683680    1.5459041150
 H    3.0424476623    0.9024014841    3.2269501381
 H    2.6830567109    2.6615118973    1.6728141796
 H    1.8171738308   -1.1176862525    2.9569422283
 H    0.1130352965   -1.6766397692    1.4037071187