23

 C    0.3018823524    1.6353959763    0.1384807507
 C    0.1072635188    0.1150790168    0.1532245484
 C    0.4778788001   -0.5307111197   -1.1785638104
 C    1.9860591269   -0.6623260821   -1.4858361833
 O    1.9225127441   -2.1045985522   -1.4698503079
 C    0.4676760869   -2.0841645122   -1.3012322699
 C    0.0439978022   -2.9288366434   -0.1117698319
 C   -0.1446600953   -2.5987526034   -2.6097258638
 O    0.3743051529   -3.8721806651   -2.9337594399
 H    1.3429816290    1.9033172036   -0.0735967652
 H   -0.3229442313    2.1068457726   -0.6281781169
 H    0.0374842677    2.0775480353    1.1036386465
 H    0.7100216611   -0.3220958290    0.9581918698
 H   -0.9384911312   -0.1159407911    0.3916848784
 H   -0.0889843735   -0.0489667715   -1.9828765923
 H    2.3139130636   -0.2750723346   -2.4582118682
 H    2.6621877675   -0.2822039120   -0.7093825274
 H    0.6118114034   -2.6709088818    0.7845886072
 H   -1.0227868607   -2.7945960966    0.0970945314
 H    0.2138240820   -3.9838623874   -0.3427398224
 H   -1.2316916161   -2.7028245799   -2.5157434168
 H    0.0554979950   -1.8711468679   -3.4131868266
 H    1.3340333644   -3.7748808748   -2.8702241893