16

 O    0.0374618199    1.3702002876   -0.0018565437
 C    0.0146467974   -0.0343138782   -0.0322629957
 C    0.5432392584   -0.7087044382    1.2823016328
 C   -0.8003246712   -1.3381670338    1.7197235532
 C   -1.2819482431   -2.0637484005    0.4356596606
 C   -1.4258371442   -0.5873981249    0.0266355460
 O   -1.7616490007   -0.2670679909    1.4257273029
 C   -0.9092453634   -1.9165783360    3.0434044694
 N   -0.9696698911   -2.4034517417    4.0893363516
 H   -0.5377429956    1.6324469874    0.7293604808
 H    0.5632977139   -0.3407946777   -0.9255011908
 H    1.3237941085   -1.4553458745    1.1229868667
 H    0.9001022277    0.0395748429    1.9914487699
 H   -0.5728427210   -2.7038546362   -0.0927416027
 H   -2.2458334614   -2.5507163109    0.5783954558
 H   -2.1519154542   -0.2202823246   -0.6958802769