14

 C   -0.0977904492    1.4949964062    0.0726023937
 N   -0.0312408891    0.0537089506   -0.1292178573
 C   -1.1381816835   -0.7255921024   -0.0452213195
 C   -1.3074494711   -2.0961884094    0.0096874214
 O   -2.6472505618   -2.3196423123    0.0349106552
 N   -3.2729084623   -1.0964060461   -0.0009075298
 N   -2.4027487025   -0.1721297441   -0.0453133788
 C   -0.3681970002   -3.1972085482    0.0436209792
 O   -0.6547060963   -4.3720686818    0.0946434689
 H    0.8647704245    1.9266631802   -0.2072663705
 H   -0.8722920374    1.9198332545   -0.5680423175
 H   -0.3237204151    1.7673687572    1.1116413819
 H    0.8466938131   -0.3923509338    0.0791003280
 H    0.6927789508   -2.8582001305    0.0173465650