17

 C   -0.3641082339    1.4774636700    0.1179803452
 C   -0.0446785908    0.0136357538    0.0443366620
 C   -0.0968201528   -0.6953316810   -1.0957953134
 C    0.1928817840   -2.1384847989   -1.1767323564
 O    0.3213379126   -2.7039907741   -2.2442366694
 C    0.2531905112   -2.9282169183    0.1334593822
 C    0.5504379047   -2.1055903017    1.3601987360
 O    1.6903944466   -1.2537398706    1.3056797982
 C    0.3831977315   -0.6422727382    1.3126654659
 H    0.5070805243    2.0462600595    0.4664110205
 H   -0.6742963591    1.8738811206   -0.8509302057
 H   -1.1671667722    1.6645066207    0.8421422523
 H   -0.3439072944   -0.2224061593   -2.0417669552
 H   -0.7251479565   -3.4120690442    0.2591201496
 H    0.9822948056   -3.7351450814    0.0120892138
 H    0.4133755971   -2.6071312977    2.3188148763
 H    0.1584615521   -0.1033779793    2.2318641579