17

 N    0.6045542182    1.5926705696   -0.0589744626
 C    0.0927443357    0.2199024047    0.0433823750
 C    0.4363869691   -0.6230974594   -1.1332305670
 N    0.7120785415   -1.2254974123   -2.0804898441
 C    0.5562917140   -0.4268365826    1.2714858320
 C    0.9373546106   -0.9597891916    2.2802047031
 C    1.4162368854   -1.6223565609    3.4849632861
 C    2.4377530745   -2.7260980573    3.1840251124
 O    2.8174777412   -3.2773221759    4.4316430966
 H    1.6202233050    1.5717002839   -0.0775206964
 H    0.2994327349    2.0018034057   -0.9381168396
 H   -1.0036121329    0.2862255107    0.0692395384
 H    1.8795071439   -0.8921672868    4.1592312584
 H    0.5767399739   -2.0642123416    4.0347696660
 H    1.9795869980   -3.4781931715    2.5251534300
 H    3.2958221275   -2.2936414545    2.6483968560
 H    3.4476205994   -3.9855311502    4.2710385558