15

 O   -0.1110820219    1.4032355712    0.3725800620
 N    0.0589479575    0.0158117651    0.3386065671
 C   -1.0077339729   -0.5681404983   -0.0135120642
 C   -2.4315693817   -0.1621467768   -0.3590602580
 C   -2.7589676116   -1.6775956022   -0.5448983965
 N   -2.8722423330   -2.0947708218   -1.9457843225
 C   -1.7484695724   -2.5952176971   -2.2555720195
 O   -0.7515079339   -2.6768506685   -1.3351109967
 C   -1.2854189268   -2.0525296693   -0.1462677003
 H    0.7596484830    1.7123840403    0.6466208835
 H   -2.9585101994    0.3373417050    0.4597413140
 H   -2.5454535972    0.4372271045   -1.2661653139
 H   -3.5860623061   -2.0656311823    0.0510524063
 H   -1.4863400267   -2.9980040187   -3.2276349415
 H   -1.0594532571   -2.6894025910    0.7094774903