16

 C    0.2831056749    1.5265518846   -0.0543625395
 C    0.0643322082    0.0394243497    0.0793083466
 O    0.8538058401   -0.7614615356   -0.8497032309
 C    1.3822219993   -1.5839756887    0.1941554320
 C    2.6995305720   -1.0534409470    0.7718424964
 O    1.9800634106   -0.1728556716    1.6851979587
 C    0.7090029855   -0.7051791683    1.2821118878
 C   -0.1253608027   -1.1382469883    2.3832666184
 N   -0.8136425656   -1.4899812275    3.2427370769
 H    1.3169404270    1.7869876419    0.1807978665
 H    0.0575950093    1.8395914426   -1.0778952787
 H   -0.3819019298    2.0690937341    0.6251769708
 H   -0.9962070259   -0.2255836834   -0.0206844027
 H    1.2370374498   -2.6526370620    0.0347044665
 H    3.2923748611   -1.7882102269    1.3281927803
 H    3.3273063264   -0.5022185538    0.0667898011