18

 O    0.1039861792    1.4156048341    0.1021654331
 C    0.1499366179    0.0057384381   -0.0863184016
 C   -1.2708697947   -0.5300316486   -0.0107069350
 N   -2.0515940619   -0.1343516269   -1.1826553806
 C   -2.6586587487    1.2330938174   -1.1401237198
 C   -3.8522527618    0.7807574190   -2.0273994326
 O   -4.8795697700    1.3293145677   -1.1555955081
 C   -3.8764824709    0.8326880010   -0.2253108532
 C   -3.5123674790   -0.4231183802   -1.1024994742
 H    0.9790937979    1.7728628184   -0.0728574202
 H    0.5736230850   -0.2524366575   -1.0674736920
 H    0.7618934784   -0.4760362630    0.6924318805
 H   -1.2259718271   -1.6258983915    0.0071933328
 H   -1.7185930652   -0.2017712666    0.9441732631
 H   -2.0772292280    2.1512742902   -1.1601613655
 H   -3.9848655687    0.8215929347   -3.1069244727
 H   -4.0653189065    0.9542131638    0.8407078189
 H   -3.9353358257   -1.4289713502   -1.0903769530