16

 C    0.1052619420    1.5384174286   -0.2503468657
 C   -0.0681904624    0.0821831311    0.1068503581
 N    1.1178335670   -0.7851523252    0.0205337324
 C    0.4817457189   -0.5634717640    1.3330237701
 C    1.3132415348    0.1511482721    2.3820023687
 C    2.3712126114   -0.7700924298    2.9546123542
 O    2.5280221566   -0.9934835821    4.1277225456
 H    1.0765534154    1.9189125915    0.0725298373
 H    0.0454031271    1.6715913862   -1.3356690684
 H   -0.6801589891    2.1491202621    0.2078447377
 H   -1.0075367056   -0.3466485869   -0.2416584371
 H    0.8763824104   -1.7002558195   -0.3485158244
 H   -0.1129291672   -1.3828926504    1.7355352933
 H    1.8343391660    0.9975712566    1.9196760860
 H    0.6906345858    0.5268242260    3.1994330001
 H    3.0146244689   -1.2486788764    2.1829551718