16

 O   -0.1627187798    1.2976429839    0.0714864096
 N   -0.0431780653   -0.1016639894   -0.0488011676
 C   -1.1721706795   -0.6704656852   -0.0259429578
 C   -2.6127070326   -0.2145756845    0.0489442924
 N   -3.0631542252   -0.7846390236   -1.2815678402
 C   -2.9246546686   -2.0922210286   -0.5871878954
 C   -3.1670601779   -1.5224233720    0.8234685307
 N   -2.0610014334   -2.3331335990    1.3586151994
 C   -1.4434023381   -2.1569821607   -0.0008019189
 H    0.7557211542    1.5822890105    0.0126796041
 H   -2.8494666271    0.8171127861    0.2888145770
 H   -4.0623154014   -0.6004821671   -1.3815021847
 H   -3.3659968651   -2.9938870747   -1.0054583922
 H   -4.1164062951   -1.4708999054    1.3570136586
 H   -1.5177711611   -1.8961038747    2.1042197482
 H   -0.6775634742   -2.8592503757   -0.3190358432