20

 C   -0.1611445214    1.5183960370    0.0848766957
 N   -0.1042451265    0.0661131650    0.0396369964
 C    0.5055760101   -0.5548828547   -0.8790562470
 O    0.5902662379   -1.9021269814   -0.9298942500
 C   -0.0292419083   -2.6725582121    0.1291550514
 C   -1.5205856796   -2.8337468717   -0.1503313163
 C    0.7216953039   -3.9956248087    0.1759394837
 C    1.2493182761    0.0045995353   -2.0696727151
 O    1.3725496258    1.1806126196   -2.2983648134
 H    0.8340251200    1.9718207159    0.1511657054
 H   -0.6412161935    1.9421223327   -0.8042235864
 H   -0.7378661241    1.8107889077    0.9662335536
 H    0.1078338292   -2.1152336379    1.0608911985
 H   -1.9851228524   -3.4333715557    0.6387439656
 H   -2.0132685288   -1.8601238996   -0.1761467698
 H   -1.6790748584   -3.3417231667   -1.1070446577
 H    1.7862790584   -3.8325624200    0.3639479516
 H    0.3217286569   -4.6257084978    0.9757659782
 H    0.6174139865   -4.5346046056   -0.7710156520
 H    1.6792617083   -0.7784551513   -2.7278719525