18

 C   -0.0263085836    1.7226575630    0.6671174266
 C   -0.0828767509    0.2866166735    0.1173462385
 C    0.6906415782   -0.6504589637    1.0553689486
 C    2.1864708636   -0.7597500283    0.8293658501
 O    0.1299627778   -1.2517017634    1.9430895983
 C   -1.5363879762   -0.1814965464   -0.0776273629
 C   -1.7388267799   -1.5998490033   -0.5726620683
 O   -2.4640438121    0.5616997491    0.1344791250
 H    1.0038983504    2.0841397504    0.7289318424
 H   -0.5948120295    2.3914433397    0.0185497613
 H   -0.4752807863    1.7648370821    1.6622051467
 H    0.4023633320    0.2591558639   -0.8690465470
 H    2.6464373792    0.2279440883    0.7248327067
 H    2.6492276178   -1.3050616539    1.6526079613
 H    2.3720025210   -1.2960017218   -0.1094328997
 H   -1.0388174687   -1.8485035139   -1.3774795680
 H   -1.5477152608   -2.2908017190    0.2543394460
 H   -2.7661597521   -1.7247012462   -0.9166709358