15

 O    0.0839057279    1.3831955219   -0.1946547245
 C    0.0448752486   -0.0230422838    0.0064522760
 C    0.5402401150   -0.4664096255    1.4286936727
 O   -0.6121917270   -0.8379763930    2.2451597467
 C   -1.6236834595   -1.0041247221    1.3595147072
 C   -2.9208406697   -1.4571090116    1.3486877062
 N   -3.3105799314   -1.2926874106    0.0381343353
 N   -2.3652638926   -0.7791191078   -0.7714257327
 C   -1.3345393662   -0.6069687331    0.0498377141
 H   -0.7059326564    1.7591858624    0.2091992410
 H    0.6953509884   -0.4428554693   -0.7652248976
 H    1.1912622576   -1.3445574104    1.3581133058
 H    1.0683880794    0.3460358181    1.9309475883
 H   -3.5822932669   -1.8607494538    2.0957155403
 H   -4.2035665072   -1.5337086414   -0.3568803888