14

 O    0.1422297852    1.3782890280   -0.0385537205
 C    0.0413683785   -0.0093850787   -0.0394986589
 C   -1.3841230054   -0.4937018218   -0.0173120324
 N   -2.3185292457    0.3871368541   -0.0001849725
 C   -3.6387144002   -0.0396701945    0.0204808538
 N   -4.6045252921    0.7702138671    0.0381092980
 O   -3.8932455054   -1.4276198132    0.0214412474
 N   -2.8857327933   -2.3661859966    0.0030537669
 C   -1.6841185472   -1.9151200565   -0.0154916509
 H   -0.7664978172    1.7193459091   -0.0229197128
 H    0.5317223508   -0.4437636307   -0.9288776508
 H    0.5601896712   -0.4472022146    0.8318897519
 H   -5.4944103772    0.2718289900    0.0515505511
 H   -0.9029378120   -2.6682266117   -0.0298329405