20

 C   -0.0049017854    1.5356944670   -0.0028671470
 C   -0.0068126448    0.0234806477    0.0581155800
 C   -1.2579332792   -0.6367528477   -0.5100648598
 C   -1.3404333027   -2.1276310307   -0.2068038324
 O   -1.5879259140   -2.9528039582   -1.0548296061
 C   -1.0870606940   -2.4745777469    1.2487658946
 C    0.3231990275   -2.0284921155    1.6985069929
 C    0.7616156090   -0.6865839523    1.1256139271
 N    1.2927080375   -0.6023599272   -0.2517658675
 H    0.9491652931    1.9306654601    0.3542491302
 H   -0.1471427319    1.8812366550   -1.0330805881
 H   -0.8106740567    1.9565892165    0.6090370496
 H   -2.1468737917   -0.1613036982   -0.0708101162
 H   -1.3146454687   -0.4927288192   -1.5940174284
 H   -1.8344059913   -1.9391687122    1.8489491744
 H   -1.2339426548   -3.5466806477    1.3939430148
 H    0.3479461622   -1.9795597872    2.7915499786
 H    1.0571560537   -2.7927208362    1.4140759011
 H    1.3256543383   -0.0670901881    1.8203846420
 H    1.1543040341   -1.4909846290   -0.7321145397