21

 C   -0.8930285308    1.0764861256   -0.1737178731
 C    0.0262765327   -0.1257966368    0.1195408811
 C   -0.7113742273   -1.2157549134    0.7683386984
 C   -1.3023087223   -2.1293230654    1.2834367186
 C    0.7048313329   -0.6333902646   -1.1521388541
 C    2.1450420914   -0.2881702015   -1.5044520712
 C    3.0199864505    0.6020108482   -0.6482606853
 C    1.7870259179   -1.6838672380   -1.0572908992
 O    2.2242187561   -2.0774587741    0.2109304093
 H   -0.3149800421    1.8869776747   -0.6269571925
 H   -1.6906216197    0.7935757550   -0.8671975550
 H   -1.3568287887    1.4479066052    0.7439193633
 H    0.7983309791    0.2041366259    0.8222841187
 H   -1.8376234118   -2.9218127494    1.7453049973
 H    0.0170969542   -0.7336878746   -1.9883299460
 H    2.3242138780   -0.1872826902   -2.5718554616
 H    2.9874546775    0.3055576686    0.4016279273
 H    4.0634961697    0.5235325334   -0.9707554000
 H    2.7274317320    1.6547590408   -0.7275814538
 H    1.7939725440   -2.4788524573   -1.8028145749
 H    1.4655354166   -2.4545152821    0.6742244926