16

 N   -0.1245174231    1.2015148603   -0.4936695120
 C   -0.0022697604    0.0265674345   -0.0371036165
 N    1.1944521205   -0.5681493157    0.3874495626
 C    1.4342061418   -1.8242691489    0.9431348761
 N    0.8238326405   -2.9262139411    0.8037817553
 C   -0.2726337744   -3.0676519279   -0.0972319849
 C   -1.7008549914   -3.0777038944    0.4021972097
 C   -1.2221942149   -1.9570563474   -0.4719764757
 O   -1.1124945287   -0.7150387628    0.1804153418
 H    0.7675031079    1.6929958545   -0.5232159813
 H    1.9679293811    0.0758959400    0.4571615805
 H    2.3277217154   -1.8153667750    1.5701559249
 H   -0.0541319534   -3.7942171866   -0.8771374255
 H   -2.3924020722   -3.8067486540   -0.0032409643
 H   -1.8496943441   -2.8209815015    1.4448614724
 H   -1.5774260245   -1.8654577741   -1.4955266832