16

 C    0.0488043648    1.5091130513   -0.0097677008
 C    0.0328663460   -0.0085058189    0.0230452943
 O    1.0874817814   -0.6467179626    0.0142523869
 C   -1.2488222793   -0.6772374756    0.0566210167
 C   -1.3689028990   -2.0609537633    0.0625078917
 N   -0.4139212402   -3.0104907273    0.1297491164
 O   -2.6564072433   -2.4372213683    0.0428716073
 C   -3.4159105467   -1.2705515074    0.0285033737
 C   -2.6110954978   -0.1904472077    0.0402388951
 H    1.0812961216    1.8587573999   -0.0393414339
 H   -0.4895259009    1.8831672340   -0.8876498521
 H   -0.4508794337    1.9190092558    0.8750084772
 H    0.5189695646   -2.6371872990   -0.0124638156
 H   -0.6337235525   -3.9384244795   -0.1931751400
 H   -4.4803899238   -1.4241768307    0.0122375446
 H   -2.9324108212    0.8393489193    0.0328504584