19

 C   -0.0476601447    1.5461843698   -0.0633563127
 C    0.0470042595    0.0359472030    0.0467105064
 O    0.8119991125   -0.4668161404   -1.0690295860
 C    1.2891251323   -1.7347840507   -0.7150854021
 C    2.5244337307   -1.8556613320    0.1983794713
 C    3.0846927455   -0.6007480923    0.7738670628
 C    2.1489885038    0.0979760540    1.4190544362
 C    0.7835252615   -0.5588906385    1.2793092892
 C    1.1104574252   -1.9771649226    0.7449762636
 H    0.9464118269    1.9993925402   -0.0676761652
 H   -0.5553480364    1.8252321942   -0.9908721664
 H   -0.6212660887    1.9537580084    0.7754224497
 H   -0.9665061596   -0.3979901555    0.0055058605
 H    1.1227275717   -2.4992261593   -1.4678325040
 H    3.1503894685   -2.7307618621    0.0587113833
 H    4.1188866552   -0.3051356274    0.6428921174
 H    2.2907664348    1.0691612678    1.8775107041
 H    0.1647176919   -0.5373987104    2.1803027487
 H    0.6943627294   -2.8774990262    1.1787040831