16

 C    0.3016559217    1.4411391211   -0.1227965207
 N    0.0578790569    0.0099439066    0.0603480083
 C    0.4740385471   -0.5149496478    1.3495251867
 C    0.6543068061   -2.0599774933    1.1851410452
 O    1.4173360156   -2.3229341317    0.0414826180
 C    1.3428767175   -2.6053720789    2.3703046656
 N    1.8786749661   -2.9853118334    3.3191180223
 C   -0.6962033739   -2.6819434390    1.0732460366
 N   -1.7639945903   -3.1006050044    0.9359983945
 H    1.3775413542    1.6352427233   -0.0758760938
 H   -0.0523797059    1.7395852671   -1.1126201290
 H   -0.1938246940    2.0736640810    0.6292218660
 H   -0.9238568210   -0.1974202499   -0.0966880686
 H    1.4586910341   -0.1057677407    1.5933441064
 H   -0.2059341748   -0.3021815916    2.1861266560
 H    1.1688262806   -1.5956203483   -0.5635518836