19

 C   -0.0230184551    1.4923218156    0.0038442559
 C   -0.0356370292   -0.0136112232   -0.0465561375
 C    0.2833717715   -0.8298798277   -1.3290183522
 C   -0.4921615064   -1.9728576036   -0.6313793630
 C    0.2286955193   -2.2633126823    0.7030652771
 C    0.5648261364   -0.8131466313    1.1379210972
 C   -0.7343582376   -1.4442896156    1.5355493736
 O   -1.2492498999   -1.6043134615    2.7968796729
 C   -1.3241319285   -0.9091403098    0.1837986758
 H    0.9978528969    1.8820581271   -0.0921822040
 H   -0.6215813275    1.9242771512   -0.8056625748
 H   -0.4277006376    1.8572782834    0.9546059011
 H   -0.2648966944   -0.4389793012   -2.1931303792
 H    1.3311671344   -0.9956112693   -1.6003112661
 H   -0.9393524502   -2.8012839802   -1.1798389910
 H    0.8567807201   -3.0983615720    0.9856528975
 H    1.4290761014   -0.5844396216    1.7485934889
 H   -1.8127525864   -2.3866659812    2.7985558143
 H   -2.3398133473   -0.5959151967   -0.0482669465