19

 C    0.0288037149    1.4689227635    0.0878508143
 C   -0.0195419223    0.0161190057    0.1733722867
 C   -0.0475899290   -1.1851190548    0.2533245923
 C   -0.1169031681   -2.6394535724    0.3260445908
 C   -1.3273095558   -3.2131845361   -0.4586572021
 C   -1.4018487001   -4.6667001728   -0.3910185398
 C   -1.4379574521   -5.8673470685   -0.3101196494
 C   -1.4842341979   -7.3219331385   -0.2435036974
 O   -2.1372158722   -7.7282623610    0.9542841142
 H    0.9523472110    1.8102512956   -0.3929137441
 H   -0.8113500092    1.8613680969   -0.4958839455
 H   -0.0165680711    1.9289336563    1.0812688233
 H    0.8034134456   -3.0845527150   -0.0703286541
 H   -0.1881124628   -2.9658931198    1.3702052589
 H   -2.2492323617   -2.7720838693   -0.0621527480
 H   -1.2595378810   -2.8888226512   -1.5037599288
 H   -2.0106737396   -7.7059652246   -1.1328578203
 H   -0.4562608386   -7.7179192139   -0.2889187153
 H   -2.1490502702   -8.6908637901    0.9605906143