18

 C    0.0361256015    1.4137263009   -0.8874789693
 O   -0.0602386581    0.0163861786   -1.0388301552
 C    0.9169180525   -0.6846310741   -0.2729325252
 C    0.8024311786   -2.1410650868   -0.5555089829
 C    0.6945135801   -3.2008281036    0.3200928425
 N    0.6642976070   -4.3248937888   -0.4271767210
 N    0.7236738825   -4.0772608192   -1.7637360122
 C    0.8159123082   -2.7544855881   -1.8399658389
 N    0.9529911592   -2.0849769592   -3.0515065573
 H   -0.1317091102    1.7215050719    0.1566268522
 H    1.0213836348    1.7933082882   -1.2015431882
 H   -0.7351360799    1.8657288639   -1.5158206145
 H    1.9176870987   -0.3050657215   -0.5442217455
 H    0.7759262732   -0.4824914074    0.8011149721
 H    0.6464194617   -3.2295040654    1.3979749987
 H    0.5937234526   -5.2760196996   -0.1135744242
 H    0.6837443864   -2.6596366482   -3.8391945999
 H    0.4567887513   -1.2027538417   -3.0431680313