19

 C   -0.2153364670    1.6876934401    0.5236023567
 C   -0.3102669120    0.1850146014    0.4957189434
 O    0.4969983098   -0.5191059556   -0.4669240927
 C    0.7457512354   -0.7500338047    0.9268999747
 C    2.0873144217   -0.3026572785    1.4577266217
 C    0.3037120386   -2.1750425126    1.3234302013
 N    1.1246276821   -3.2556820637    0.7754151872
 C    0.2191506803   -2.3014337547    2.7860682232
 N    0.1657990926   -2.3587815235    3.9386767818
 H    0.8160639960    2.0378482377    0.4602855521
 H   -0.7682469562    2.1106466812   -0.3213827326
 H   -0.6629127833    2.0761353488    1.4444445535
 H   -1.3347691496   -0.1911537268    0.5487524973
 H    2.3610971457    0.6775459393    1.0675571424
 H    2.0747361088   -0.2576339252    2.5509008990
 H    2.8703614991   -1.0062603803    1.1560988377
 H   -0.7091905843   -2.3133335899    0.9266829485
 H    1.1975862556   -3.1142284128   -0.2286802431
 H    2.0651675966   -3.2206349902    1.1563260979