22

 C   -0.2761155570    1.4821829221   -0.1478567095
 C    0.1377376076    0.0132517854    0.0013605680
 C    0.9207805650   -0.5143476296   -1.1678247223
 C    2.1357843806    0.1039491107   -1.8436952817
 C    1.7243233050   -0.7634655902   -3.0537385275
 C    1.9536525175   -0.3199912482   -4.4686188884
 C    1.9560977418   -2.2223899146   -2.5981114176
 C    0.8276796376   -1.9357562113   -1.6287717830
 N    0.2591423588   -0.8331093520   -2.4853704648
 H    0.5957858626    2.1428098461   -0.1941554191
 H   -0.8567309210    1.6251056123   -1.0640373305
 H   -0.8886292448    1.8028745294    0.7000270370
 H    0.7307644802   -0.1191035802    0.9166039051
 H   -0.7582437332   -0.6077396331    0.1224032824
 H    1.9759597670    1.1665074736   -2.0482389546
 H    3.1311556370   -0.0424307223   -1.4088349635
 H    3.0247074357   -0.3240898699   -4.7037304514
 H    1.4472060486   -0.9854678761   -5.1750731988
 H    1.5746707100    0.6948261919   -4.6270628622
 H    1.6425219975   -2.9331835443   -3.3682926092
 H    2.9446213975   -2.5000864161   -2.2158220104
 H    0.1740384660   -2.6490076838   -1.1377557880