18

 C   -0.0820060351    1.5190444904    0.0241725498
 C    0.0488001722    0.0142876118    0.0005711564
 O   -0.7035460612   -0.6668901129    1.0334398132
 C    0.7131153566   -0.7141130410    1.1080525481
 C    1.3945278777   -2.0277828371    0.8403681174
 N    0.5398828190   -3.1808490183    0.5378292673
 C    1.3553838782   -2.5803362017   -0.5502480927
 C    0.6511337959   -1.8008833106   -1.5906126838
 C    0.0554297220   -0.6303670671   -1.3391898899
 H    0.7315459075    1.9921744013   -0.5360057304
 H   -1.0285345345    1.8276071652   -0.4337840784
 H   -0.0651989940    1.8913338629    1.0511788811
 H    1.1477813984   -0.1251652444    1.9167740021
 H    2.3001902183   -2.1939494406    1.4183659939
 H    0.9991447180   -4.0292695621    0.8617364273
 H    2.2116260344   -3.1577879301   -0.8910667931
 H    0.6448638009   -2.2051712742   -2.5992435052
 H   -0.4328796443   -0.0868234215   -2.1440024331