20

 C   -0.0184748862    1.4130085046    0.4396949270
 C   -0.0163883103    0.0283730492   -0.2204088469
 C   -1.3693194134   -0.6501332948   -0.1278874203
 C   -1.5924215515   -2.1361719709   -0.1508412203
 C   -0.4105055790   -3.0309948389    0.1774294865
 O    0.0612277297   -2.6309433762    1.4768353191
 C   -0.8376509989   -1.7967809874    2.0962055788
 N   -0.7743663887   -1.4594442097    3.3125772752
 C   -1.8721223262   -1.3621347782    1.1222322526
 H    0.9562147481    1.8995275457    0.3366372557
 H   -0.7687052233    2.0685256969   -0.0163506558
 H   -0.2473689669    1.3320962857    1.5065908384
 H    0.2563210981    0.1216776772   -1.2797021118
 H    0.7557720540   -0.5931423989    0.2432178351
 H   -2.1624160878   -0.0909672085   -0.6205441635
 H   -2.3909179437   -2.5535623284   -0.7523967633
 H   -0.7141889891   -4.0835020448    0.2217102442
 H    0.4266417120   -2.9396577418   -0.5223823604
 H    0.0093092751   -1.9278276886    3.7705908158
 H   -2.8614782020   -1.1517585223    1.5039607539