17

 O   -0.0136009326    1.4058823893   -0.0994995375
 C   -0.0284807992   -0.0032757297    0.0225472087
 C   -1.4355794749   -0.4760745577    0.1175164557
 C   -2.5812636636    0.2093315524    0.1405684295
 C   -3.6618863458   -0.8614833107    0.0599957741
 O   -3.6722820825   -1.3541502253   -1.3053071507
 C   -2.4721201899   -2.1275358132   -1.3909235204
 C   -1.8684886501   -1.9389521426    0.0397074298
 O   -3.0964043412   -1.9328902972    0.7864342876
 H    0.8998712286    1.7020294492   -0.0515789729
 H    0.4632804134   -0.4898692680   -0.8398014771
 H    0.5277719961   -0.3369897096    0.9167683421
 H   -2.7270319776    1.2767764460    0.0756363620
 H   -4.6803010906   -0.6402624782    0.3706933080
 H   -2.7229217021   -3.1773787332   -1.5756028278
 H   -1.8222025220   -1.7539103153   -2.1892197997
 H   -1.1879833660   -2.7134829361    0.3899966684