14

 N    0.0417603082    1.3002434237   -0.0611418183
 C   -0.0408774963   -0.0441399839   -0.0295395044
 N   -1.1923473687   -0.6466496646   -0.0216972053
 C   -1.0916918795   -2.0188297142   -0.0200672459
 N   -2.2777071000   -2.6611908071   -0.0306899200
 H   -3.1268946652   -2.1305288832    0.0337357711
 H   -2.2877568454   -3.6637974397    0.0298806951
 N    0.0043648484   -2.7383702583   -0.0152219010
 C    1.1935195561   -2.1011845193   -0.0187248458
 N    2.3384556520   -2.6342286679   -0.0141604246
 O    1.1489525179   -0.6368845848   -0.0270384242
 H    0.9329366297    1.7441229795    0.0734891866
 H   -0.8061144265    1.8278389108    0.0514436494
 H    3.0662245193   -1.9231605413   -0.0187969826