17

 C    0.1242762138    1.7708896250   -0.0224788233
 C   -0.0385184287    0.2633530179    0.1021794724
 O   -1.4278662034   -0.0381600416    0.1696858702
 C   -1.8607051891   -0.9222529396    1.1016168268
 N   -3.0868626405   -1.1970437312    1.1721937257
 C    0.5537242978   -0.4756526894   -1.1286996895
 O    1.8964821437   -0.1183442688   -1.3861987689
 C    0.4144960690   -1.9354641469   -0.9661835704
 N    0.3580880123   -3.0758504726   -0.7878625651
 H    1.1760062954    2.0305984685   -0.1554470852
 H   -0.4395897513    2.1401897841   -0.8841313311
 H   -0.2591187495    2.2621520024    0.8748667232
 H    0.4703226145   -0.1028207843    1.0058018049
 H   -1.0557169193   -1.3206371310    1.7325245947
 H   -3.2522190666   -1.8685939892    1.9186731839
 H   -0.0212643230   -0.1667025326   -2.0079094109
 H    2.4602156248   -0.5323312108   -0.7222338474