19

 C   -0.3515968619    1.5331914113   -0.0120206122
 C   -0.0322989371    0.0311356118   -0.0179317979
 C    0.6798874566   -0.4750461700   -1.2597410576
 C    1.7372419666   -1.2349968508   -0.9643634757
 C    1.9455623671   -1.3340196743    0.5125430183
 C    2.3375838216   -0.0348160299    1.2372486340
 C    2.9771540609    1.1100458449    0.5471962510
 O    3.6989691122    1.8993087031    1.1133593541
 C    0.8724423391   -0.4704267492    1.1130501490
 H    0.5519729751    2.1415438359   -0.1096419004
 H   -1.0195224028    1.7901908628   -0.8407209939
 H   -0.8494213558    1.8200107976    0.9192933855
 H   -0.9922689729   -0.5008742681    0.0730556376
 H    0.3490583812   -0.2168433870   -2.2598958288
 H    2.3944086899   -1.7111461886   -1.6828563907
 H    2.2826197118   -2.2640461522    0.9569887066
 H    2.7344326539   -0.1661266771    2.2395074284
 H    2.7802917248    1.1959254676   -0.5397553686
 H    0.4068844797   -0.7325208878    2.0558842111