18

 C   -0.0097727624    1.5928619863   -0.0103563208
 C    0.0422332712    0.0531149730    0.0054710542
 C    0.6542966202   -0.4564964016   -1.2254644770
 N    1.1264299931   -0.8605438968   -2.1996888258
 C    0.7935562262   -0.5226663812    1.2447910378
 O    2.1061296711   -0.0266195430    1.3426123984
 C    0.0190285089   -0.2461260592    2.5276444202
 C    0.6818611303   -0.2962638654    3.8333488243
 O    0.3936886718    0.9631597687    3.2000767438
 H    1.0005496757    2.0051627006   -0.0575408557
 H   -0.5629059614    1.9484101442   -0.8822909857
 H   -0.4993618624    1.9683286237    0.8914539152
 H   -0.9823692693   -0.3416417961    0.0344902560
 H    0.8706093898   -1.6085696306    1.1122986726
 H    2.0438767064    0.8030010473    1.8379547305
 H   -1.0558276150   -0.4234390057    2.4843638370
 H    0.0957701148   -0.5044600721    4.7255299869
 H    1.7369867210   -0.5531313521    3.8795682779