17

 O    0.0233927636   -0.0439385890   -0.2551494562
 C    0.0161690078    1.1604193656   -0.0731506084
 N   -1.1419783826    1.8602023463    0.1353494169
 C   -1.3202698402    3.2805733294    0.1912442444
 C   -0.9545322931    4.0844347382    1.4166507021
 C   -0.0868685503    4.1443130940    0.1781627521
 C    1.2455664959    3.4472666268    0.1371198219
 N    1.5892399438    2.5891692081    1.2716383625
 C    1.2836868178    1.9660722667   -0.0395943854
 H   -1.9643205286    1.2763314455    0.1880850842
 H   -2.1737140572    3.6190009412   -0.3894930611
 H   -1.5621780019    4.9483242072    1.6617858069
 H   -0.5421522722    3.5367507460    2.2554520514
 H   -0.1372688817    5.0411544565   -0.4292819537
 H    2.0470688907    4.0136677185   -0.3295425338
 H    2.5938221235    2.5815093040    1.4249196553
 H    2.0950381747    1.5019624952   -0.5898192291