19

 O    0.0426074931   -0.0869253705   -0.0507854847
 C    0.0062002470    1.1231484434   -0.0559062354
 C   -1.3214351681    1.8757258051   -0.0513338026
 C   -1.2691767023    3.2311010846   -0.7067096516
 C   -0.1467429166    3.8470656962   -1.0761096182
 C    1.2329007105    3.3052949068   -0.8674767759
 C    1.9987044986    3.9897704102    0.3128056839
 C    1.5763052441    2.8095412885    1.2240248406
 C    1.2553301447    1.9682766355   -0.0578051783
 H   -2.0707521939    1.2274026847   -0.5180705601
 H   -1.6432505062    1.9788928572    0.9974348440
 H   -2.2277307705    3.7155335715   -0.8776339671
 H   -0.2066806924    4.8300602053   -1.5397331142
 H    1.7791805432    3.2846762593   -1.8163160737
 H    3.0775638245    4.0092918622    0.1370177757
 H    1.6698788378    4.9909079340    0.6009994985
 H    2.3245661391    2.3899417479    1.8984824139
 H    0.6764927481    3.0390588084    1.8004062784
 H    2.1004236692    1.3326095398   -0.3278984932