21

 C    0.2036862006    1.2361250769    0.7578058786
 C    0.0459479277   -0.1495713277    0.3395807436
 C   -0.0738351511   -1.2949610775   -0.0150697211
 C   -0.1969173006   -2.6957185303   -0.4396377933
 O    0.8314282817   -3.5132808123    0.1170011239
 C    0.3915524315   -4.0180450880    1.3844462570
 C   -1.1266268788   -3.7575152006    1.4734928959
 C   -1.5062462323   -3.3765911683    0.0310037016
 C   -2.7873187617   -2.5634427594   -0.1173414108
 H    1.2621687580    1.5118715597    0.8203363978
 H   -0.2748340722    1.9206555313    0.0486933769
 H   -0.2440823698    1.4123117551    1.7420357590
 H   -0.0844209959   -2.7532549408   -1.5282209062
 H    0.6375955183   -5.0854112095    1.4128662504
 H    0.9381424350   -3.5224327048    2.1966283026
 H   -1.6812464946   -4.6255910774    1.8381929729
 H   -1.3378331968   -2.9196080486    2.1455883249
 H   -1.5892006447   -4.2957394636   -0.5618819367
 H   -2.7232814426   -1.6258770440    0.4423450134
 H   -2.9822219213   -2.3154798729   -1.1661620675
 H   -3.6486633102   -3.1271610973    0.2552495870