17

 C    0.0834408442    1.5017548197    0.0199143288
 O    1.1729374471    0.6001192500   -0.1818469217
 C   -0.1327617137    0.0473583907    0.0222275325
 C   -0.3341998195   -0.7155497251    1.2766361850
 C    0.2970817432   -0.4034834179    2.6430042203
 C    0.3680173641   -1.9415827785    2.9266479843
 C   -0.2661142111   -2.1983343603    1.5526649090
 N   -1.5471381559   -1.5155386594    1.4138364375
 H    0.0969958951    2.0445166399    0.9641199314
 H   -0.2089254308    2.0887582807   -0.8495419469
 H   -0.5814140723   -0.4100456886   -0.8592340681
 H    1.2877566722    0.0450847827    2.5486221069
 H   -0.3108183017    0.2066515798    3.3198131399
 H    1.3965420951   -2.3008757677    3.0019821876
 H   -0.1992761031   -2.3182124260    3.7844742027
 H   -0.0584760511   -3.0257928222    0.8835344756
 H   -2.0194840518   -1.3680584878    2.3045695553