16

 N   -0.7489448917    0.0901942722   -1.0403230064
 C   -0.0437625983   -0.1008062541    0.1021574065
 O    1.0807665924    0.3165006342    0.3011069105
 C   -0.8093588990   -0.9093076103    1.1738716377
 N   -0.9715356837   -2.3159557413    0.8412193540
 C   -1.9446360314   -2.7763826297    0.0110970864
 N   -2.7947001146   -2.0131317145   -0.5733562943
 C   -1.9643840841   -4.2833922509   -0.1427882617
 O   -2.7886290943   -4.8496433006   -0.8085582562
 H   -0.2884872936    0.5450188020   -1.8121841751
 H   -1.6446322417   -0.3699754677   -1.1689772661
 H   -0.2401451873   -0.8301125755    2.1002160447
 H   -1.8087033260   -0.4864578710    1.3174317770
 H   -0.2332583344   -2.9475025572    1.1058534897
 H   -3.4570625968   -2.5960962155   -1.0862295235
 H   -1.1693914054   -4.8405325802    0.4016350268