19

 O   -0.0410313247    1.3534766587    0.1483119089
 C    0.0209256739   -0.0344695902   -0.0194309246
 C   -0.4839019900   -0.6797996240   -1.2806195035
 C   -1.2782302667   -0.7909794613    0.0155836637
 C   -1.2923543982   -2.0852231854    0.8364399054
 C    0.0767820268   -2.3056948653    1.4861082382
 C    0.6113326392   -1.0378533726    2.1915620500
 C    1.1234490607   -0.7293470553    0.7704231742
 O    1.1064620727   -2.1478291944    0.4587489496
 H    0.6608808498    1.7471650155   -0.3824908710
 H   -0.8887038734   -0.0157161676   -2.0368014829
 H    0.0289908891   -1.5616943991   -1.6452247146
 H   -2.1751819895   -0.1828169418    0.0556963428
 H   -2.0558989436   -2.0229154372    1.6210331275
 H   -1.5455766448   -2.9493993809    0.2108767700
 H    0.1574356795   -3.2671691100    1.9998212521
 H   -0.1020488699   -0.3410333512    2.6354913412
 H    1.4170099573   -1.2695249520    2.8897085082
 H    2.1105049516   -0.2778438758    0.6253867948