21

 C   -0.2005191681    1.8146639956    0.4435690217
 C   -0.0726042637    0.3254119024    0.0880132255
 C    0.7280837684   -0.4377489193    1.1380791142
 C    1.4822490165   -1.6952247320    0.7847209069
 C    2.2340680682   -0.4253873631    1.1006652978
 C   -1.4489918551   -0.3176218962   -0.0210205144
 O   -2.2999392836   -0.1848487815    0.8351566964
 C   -1.7547142442   -1.1755558281   -1.2375231936
 O   -3.0298995145   -1.7344439206   -1.1674191476
 H    0.7899053346    2.2570564049    0.5801101222
 H   -0.7208261822    2.3701888057   -0.3429136767
 H   -0.7688348355    1.9304051715    1.3698328341
 H    0.4379137132    0.2181112072   -0.8782256175
 H    0.2669286415   -0.4165246275    2.1214855332
 H    1.5018409777   -2.5037977078    1.5065335648
 H    1.4700360750   -2.0263953397   -0.2489956348
 H    2.7154759831    0.0930344120    0.2775568002
 H    2.7718552767   -0.3607438664    2.0399357022
 H   -1.6379995804   -0.5404530118   -2.1335869431
 H   -0.9746405442   -1.9524194424   -1.3128486885
 H   -3.4009689633   -1.3992519128   -0.3345489731