20

 C    0.3711003613    1.5513908122    0.1555690045
 C   -0.1988787925    0.1644478495   -0.1652343157
 C    0.5002921478   -0.4783822231   -1.3400648013
 N    1.7617305408   -1.1652810227   -1.0632923861
 C    0.6081257873   -1.9636153069   -1.4798452325
 C   -0.0773503387   -3.1166954355   -0.7271670241
 C   -0.3642441083   -3.8119009577   -2.1001386717
 C    0.4655065740   -2.7038504116   -2.7832999596
 O    0.8989365410   -2.5212482418   -3.8873486919
 H    1.4367453256    1.4822942682    0.3937436614
 H    0.2588794930    2.2331041431   -0.6946261955
 H   -0.1415410371    1.9991986802    1.0119925363
 H   -0.0957007494   -0.4898337829    0.7068371125
 H   -1.2712464739    0.2405880217   -0.3862424796
 H    0.4317881406    0.0668015365   -2.2821735629
 H    2.4017895323   -1.0804971962   -1.8522419069
 H    0.6078949980   -3.6771288717   -0.0881984342
 H   -0.9608221269   -2.8413587685   -0.1484425516
 H    0.0346362692   -4.8210686745   -2.2298493016
 H   -1.4137022343   -3.8103100584   -2.4082042796