20

 C   -0.6610518694    1.2144976982   -0.0357826878
 C    0.1573695120   -0.0654607012   -0.1003173325
 C    1.5442713634   -0.0504382514   -0.7968277540
 C    2.0920316170   -0.9934958978    0.3037924868
 C    0.8757692425   -0.6395171162    1.2002462326
 C    1.1647896345    0.4005187441    2.2830829732
 C    0.1178741889   -1.8058183045    1.7823318691
 O    0.3348133633   -2.9684189688    1.5469499718
 H   -0.0898811023    2.0440659549    0.3925142678
 H   -0.9687943691    1.5147578741   -1.0437267916
 H   -1.5708308693    1.0882088622    0.5613278715
 H   -0.4536596328   -0.8654478490   -0.5331388961
 H    1.5814323497   -0.4037391409   -1.8299849399
 H    2.0029335796    0.9427219913   -0.7571655455
 H    2.0635218953   -2.0468498578    0.0175632673
 H    3.0779321063   -0.7638035396    0.7150535718
 H    1.6546940760    1.2845705537    1.8654289294
 H    0.2475616137    0.7317118536    2.7827459734
 H    1.8316332066   -0.0154202565    3.0464493976
 H   -0.7262158859   -1.5127704385    2.4527930551