17

 O    0.0009151101   -0.0631304832    0.0189635702
 C   -0.0236206870    1.1529811218    0.0127671511
 N   -1.1663734043    1.8915529598    0.0430763732
 C   -1.1457861966    3.3395113617    0.0917478201
 C    0.2725693003    3.8518915785   -0.0528048300
 C    1.2710393118    3.2016025027   -1.0425784596
 C    2.3478522113    3.7506778637   -0.0910229023
 N    1.3043309885    3.2097253200    0.9020446902
 C    1.2309722628    1.9958451358   -0.0681198929
 H   -2.0350287934    1.3861763672    0.1300633994
 H   -1.7635317031    3.7620416184   -0.7128375145
 H   -1.5546972613    3.7063944466    1.0436947208
 H    0.2835905422    4.9445569564    0.0031241238
 H    1.2484070721    3.1884651179   -2.1372842752
 H    3.3035996123    3.2236213526   -0.0403505616
 H    2.4820950420    4.8344480140   -0.0306085841
 H    2.1064560524    1.3477189359   -0.0160614286