18

 O    0.3341096962    0.9401452100   -0.6198298688
 C    0.1157971100   -0.1903327501    0.1866969461
 C   -0.0603828303   -0.0124325825    1.7196081754
 C   -1.2650396443   -0.9901952168    1.6388742949
 C   -1.3255083145   -0.7483386170    0.1098443447
 C   -2.4396805980    0.0949782467   -0.5406899187
 O   -2.7292912799   -1.0061875924   -1.4658880523
 C   -1.7433700674   -1.7860189182   -0.9010312477
 N   -1.3564209641   -2.9493885658   -1.1675116095
 H    1.2788592776    1.1160508675   -0.6590248951
 H    0.8256317413   -0.9962665086   -0.0414227951
 H    0.7774690586   -0.2778744175    2.3679603119
 H   -0.3813634729    1.0088501584    1.9429801677
 H   -0.9879968111   -2.0242229618    1.8571394425
 H   -2.1616507948   -0.7354122725    2.2076599813
 H   -3.3080319080    0.3122939295    0.0869097930
 H   -2.1084592144    0.9823601858   -1.0813650699
 H   -1.8853790139   -3.3532816546   -1.9423211206