17

 O   -0.0155174980   -0.0706153671   -0.2581148480
 C   -0.0092712467    1.1081963020   -0.0250895440
 C    1.2111332808    1.9953916467   -0.0393293648
 O    2.4486520069    1.3324876214   -0.3076562998
 C    2.8180151499    2.3336856165   -1.2888308755
 C    2.9905797015    1.8021456505   -2.7203269469
 O    1.9387863149    2.3908097562   -3.4762568395
 C    0.8178724440    2.5296592629   -2.6143450027
 C    1.4033615844    2.9547989912   -1.2521766099
 H   -0.9436750986    1.6653355180    0.2285858580
 H    1.2372733864    2.5411846456    0.9185930539
 H    3.6529064955    2.9451708232   -0.9336917006
 H    3.9345077754    2.0941366920   -3.1873219146
 H    2.9160216726    0.7050453129   -2.7005185535
 H    0.1522604118    3.2758957348   -3.0539856633
 H    0.2727719400    1.5771405790   -2.5336199507
 H    1.3100595192    4.0207957543   -1.0514952580