12

 O   -0.0609419602    1.3677421607    0.1369751338
 C    0.0942982918    0.0132470217    0.0876868384
 C   -0.1673361445   -0.8549100241   -1.1531951590
 O    0.5402034100   -2.0874081938   -1.0074181166
 C    0.0397140504   -2.1042352683    0.3653790809
 C   -1.0638813860   -1.0567454247    0.0085356335
 C    0.7950746136   -0.9207356120    1.0375186434
 O    1.4381981663   -0.7907520920    2.0372174333
 H    0.5706205948    1.7817886341   -0.4622257464
 H   -0.3322871167   -0.4343622944   -2.1379475232
 H   -0.0684861122   -3.0885058712    0.8104883171
 H   -2.1133724971   -0.9358942460    0.2292465548