25

 C    0.2940480240    1.5970641986    0.2284203589
 C    0.3360562225    0.0653866859    0.1597478973
 C    0.5781447281   -0.4839865113   -1.2535489205
 O   -0.4247107326   -0.0277494556   -2.1466134952
 C    2.0587276288   -0.3300133906   -1.7206507964
 C    2.3000224285   -1.8130720932   -1.3397878650
 C    0.7574680511   -2.0499127945   -1.3301229415
 C    0.2013765734   -2.9021545631   -0.1906344435
 C    0.2762964157   -2.6069030555   -2.6756087681
 H    1.2121756276    2.0495172996   -0.1624763285
 H   -0.5527521623    2.0021365837   -0.3365852737
 H    0.1756426353    1.9354007164    1.2619042231
 H    1.1237120015   -0.3015859873    0.8279692928
 H   -0.6112333560   -0.3371322875    0.5360950389
 H   -0.3718879245    0.9321409748   -2.1928920764
 H    2.1109533457   -0.1637205605   -2.7991896275
 H    2.6700844470    0.4242379828   -1.2178579973
 H    2.8785506389   -2.4184648421   -2.0422426915
 H    2.7436363105   -1.9205605645   -0.3455178051
 H    0.5478670819   -2.5676314196    0.7912419627
 H   -0.8946841039   -2.8945230308   -0.1830381077
 H    0.5197175548   -3.9439622958   -0.3123648153
 H    0.5936448813   -3.6510277693   -2.7771462261
 H   -0.8139965879   -2.5688667371   -2.7500762752
 H    0.6794342706   -2.0450411738   -3.5216379591