20

 O   -0.3137865744    1.4446124621    0.4118210199
 C   -0.1039487232    0.0701873947    0.1227517703
 C   -1.4634213471   -0.6173842284    0.1119109388
 C   -1.3709474872   -2.1198435305   -0.1506309154
 C   -0.9810763410   -2.9793747920    1.0920802122
 C   -2.4852158875   -3.2883062745    1.3288910720
 C   -2.7541939376   -2.8527817331   -0.1342196595
 O   -3.9304473804   -2.1608084755   -0.4655882635
 H    0.5406954356    1.8854784942    0.4134409012
 H    0.3820336228   -0.0629464746   -0.8576940803
 H    0.5502159019   -0.3986758760    0.8753797575
 H   -1.9493883412   -0.4158684957    1.0763763856
 H   -2.0839302576   -0.1456962237   -0.6593437477
 H   -0.7742660675   -2.2938440542   -1.0527164969
 H   -0.4124655495   -3.8713910171    0.8177148095
 H   -0.4501088673   -2.4672207369    1.8982516302
 H   -2.7711337709   -4.3013171511    1.6211208227
 H   -2.9350402714   -2.5857836602    2.0387207141
 H   -2.7288776694   -3.7167113590   -0.8050541801
 H   -4.0239314072   -1.4191454688    0.1412343793