19

 C   -0.2207199061    1.5433411068    0.1266193247
 C    0.0053757374    0.0390504920    0.0526543375
 C   -1.2299265477   -0.7133753083   -0.4282464400
 O    1.1550847665   -0.2651459433   -0.7944166028
 C    1.8803064341   -0.8965691780    0.2840695389
 C    0.7436445408   -0.5972198298    1.2478145587
 C    0.7419630523   -0.2074134834    2.6700286389
 N    0.2351435603   -1.5305600709    2.2403798353
 H    0.6834297711    2.0538738121    0.4678917628
 H   -0.4829837798    1.9325647527   -0.8625756776
 H   -1.0387051535    1.7859886368    0.8138571125
 H   -1.5092910783   -0.3682593895   -1.4286305856
 H   -1.0379818244   -1.7884807832   -0.4775147968
 H   -2.0838106923   -0.5396861418    0.2367370963
 H    2.0581128719   -1.9635947800    0.1025706000
 H    2.8364082950   -0.3974706524    0.4853764372
 H    1.6620121239   -0.2378023265    3.2481969970
 H    0.0288209658    0.5464112354    2.9954936360
 H   -0.7826940570   -1.5353523588    2.2394791070