15

 C    0.0165339991    1.3700736769   -0.1540768002
 O   -0.1068780341   -0.0440503235    0.0016717653
 C    0.6182790782   -0.5925160313    0.9775438839
 N    0.4962189864   -1.8293106966    1.2328172088
 C    1.3061879501   -2.3994841765    2.1927527805
 C    2.5410486751   -2.1420402498    2.7662617751
 N    2.8250002865   -3.1267687648    3.6591224304
 N    1.8452141278   -3.9882538657    3.6802087047
 N    0.9318275769   -3.5599066799    2.7904870726
 H    1.0638589258    1.6650111451   -0.2831212529
 H   -0.5435189516    1.6261231170   -1.0531621238
 H   -0.4119606250    1.8990754356    0.7041542458
 H    1.2933227623    0.0938261894    1.5056653439
 H    3.2351388780   -1.3415529714    2.5686458770
 H    0.0819262346   -4.0790218046    2.6341145591