18

 C   -0.0317545931    1.5155518894   -0.3723189914
 C   -0.0025765680    0.0407393332   -0.0348760522
 C    1.2735899337   -0.7293523484   -0.0102684783
 N    0.5290169679   -0.4850467453    1.2258902401
 C    1.1110970800    0.4228502435    2.2003131456
 C    1.8699528180   -0.4139214099    3.2488058552
 C    2.4714587320    0.4143146756    4.2897145802
 N    2.9395089653    1.0882466264    5.1034724944
 H    0.9076717721    2.0208542285   -0.1357965813
 H   -0.2144263864    1.6440031728   -1.4441667496
 H   -0.8390642635    2.0278264200    0.1624832580
 H   -0.8978773991   -0.4939738811   -0.3498096609
 H    1.3175499574   -1.7612097130   -0.3480751338
 H    2.1902222293   -0.1604339379   -0.1678828409
 H    1.8008808864    1.1649708679    1.7702366105
 H    0.3047874419    0.9743047511    2.6953617467
 H    1.1826044141   -1.1334071891    3.7046410729
 H    2.6588046520   -0.9944660939    2.7574126449