25

 C    0.8592484347    0.8355534467   -0.0606034531
 C    0.3053308046   -0.5654576559   -0.0881126948
 C    0.4902284136   -1.6332782788   -1.2114758335
 C   -0.3834534393   -2.3329541889   -0.1235819159
 C   -0.9235920532   -3.7393111547   -0.1522325440
 C    0.6292365499   -1.7298272726    0.8996742831
 C   -1.2159901488   -0.9925429932   -0.0074611040
 C   -1.9876987562   -0.7178676512    1.2906079865
 C   -2.1493179779   -0.6057632146   -1.1629904912
 H    1.9525781834    0.8288121739   -0.1324920063
 H    0.4741415738    1.4307421799   -0.8963564999
 H    0.5896981254    1.3504515407    0.8685172166
 H    0.0528488822   -1.4431542278   -2.1909458316
 H    1.5053867611   -2.0266828336   -1.3219035822
 H   -0.1130461972   -4.4713358151   -0.2401978924
 H   -1.4816016588   -3.9685244769    0.7627125809
 H   -1.5997091278   -3.8872754703   -1.0019483799
 H    1.6477584120   -2.1255197878    0.8401152130
 H    0.3248950260   -1.6321735776    1.9411399789
 H   -1.4424477087   -0.9478900250    2.2058667911
 H   -2.2784366334    0.3381772568    1.3405298851
 H   -2.9160516027   -1.3010538264    1.3083527538
 H   -3.0757331937   -1.1900325595   -1.1115560908
 H   -2.4372842728    0.4488557280   -1.0786922731
 H   -1.7301958963   -0.7490688060   -2.1588354963