17

 O    0.1264057807    1.3828184522   -0.1847318941
 C    0.0647084938   -0.0037633150    0.0084194316
 C    0.2235094248   -0.4492804478    1.5561826611
 C   -1.3219394978   -0.1970009658    1.6559473028
 C   -2.7478469514   -0.8718903629    1.5347433245
 O   -2.8419934473   -0.1615471511    0.2097646358
 C   -1.3868898826   -0.5324489282    0.1985037904
 C   -1.4973622627   -2.0710711892    0.1648474986
 C   -2.4319450933   -2.2984085206    1.0872238863
 H    1.0467669776    1.6547287504   -0.1111283045
 H    0.6846947288   -0.5457097569   -0.7205681979
 H    0.5325885475   -1.4925825658    1.6409360241
 H    0.8661112689    0.1930764360    2.1639158597
 H   -1.4761639663    0.8755085608    1.7823591454
 H   -3.5902037187   -0.6573300599    2.1922133361
 H   -0.9442914407   -2.7426145051   -0.4762420318
 H   -2.8924229012   -3.2112390712    1.4343939019