17

 C    0.0091668060    1.5555905392    0.0395195105
 C   -0.0213882470    0.0254285147   -0.0027011806
 N   -1.3686009295   -0.5206868711    0.0186074062
 C   -2.0623547974   -0.9569760874    1.1368632549
 C   -3.3177583407   -1.3368071701    0.7415975631
 C   -3.4154316985   -1.1232124644   -0.6680726196
 C   -2.1985611989   -0.6198915419   -1.0627760067
 O   -1.7035273736   -0.2221722915   -2.2678981134
 H    1.0434961185    1.9142082920    0.0423743418
 H   -0.4967792645    1.9725662787   -0.8352234881
 H   -0.4892809211    1.9298938159    0.9384627177
 H    0.4789740378   -0.3354443513   -0.9060034081
 H    0.5118352025   -0.3941825297    0.8554782701
 H   -1.5830505481   -0.9614291041    2.1022877034
 H   -4.0896657126   -1.7337754178    1.3827386860
 H   -4.2638931314   -1.3180118548   -1.3059011784
 H   -2.3695939114   -0.4018661565   -2.9376684088