14

 O    0.0737535567    0.0741683451    0.0467412745
 C    0.0169364542    1.2653769319   -0.0315463718
 C   -1.0889850627    2.2779886587    0.0127117158
 C   -0.1264120602    3.2185149279    0.7869403590
 C    1.0457479277    2.4131665353    0.0948041576
 N    0.8260447875    3.1347442910   -1.2097905689
 C   -0.4889822615    3.5448633529   -0.6319294047
 C   -1.3002362767    4.5824856556   -1.1657113922
 C   -1.9633309091    5.4757250986   -1.6222557835
 H   -2.1552854797    2.1563137753    0.1385229733
 H   -0.2803680959    3.6937427000    1.7454168903
 H    2.0623826667    2.2580700476    0.4424544640
 H    1.4105966696    3.9713609971   -1.2017848765
 H   -2.5547956666    6.2584245830   -2.0295084770