23

 C    0.1847274664    1.5405343174   -0.1520607271
 C    0.0219822606    0.0366744671    0.0735239286
 O    0.5623469587   -0.6709007001   -1.0414658360
 C    1.4502857059   -1.6976444678   -0.6018541595
 C    2.7669571958   -1.5949050869   -1.3730797312
 C    1.5585946030   -1.5078619480    0.8952367234
 C    2.4429830895   -2.3858106171    1.7221015931
 C    0.7455935227   -0.5206666391    1.2796709824
 C    0.4740871136    0.0052548578    2.6531093972
 H    1.2445271344    1.8115283838   -0.1834833653
 H   -0.2732865346    1.8243204673   -1.1037450063
 H   -0.3031200142    2.1119789456    0.6444721891
 H   -1.0591870568   -0.1839917920    0.1518325078
 H    0.9994043094   -2.6836261029   -0.8216164518
 H    3.2741258762   -0.6528600232   -1.1430126020
 H    3.4342596614   -2.4262595643   -1.1229508226
 H    2.5702803202   -1.6283057645   -2.4483540225
 H    3.4983861664   -2.2636573042    1.4494033648
 H    2.3503079411   -2.1764812187    2.7904812270
 H    2.2009826182   -3.4451746662    1.5656181251
 H    1.0117334471   -0.5533227330    3.4230276283
 H    0.7631114032    1.0594847614    2.7438913396
 H   -0.5971184781   -0.0458429625    2.8880514279