16

 O    0.0810283927    1.3666204548    0.2398585290
 C    0.0481412396   -0.0019287994   -0.1200950965
 C   -1.3720296365   -0.5533679212   -0.0237521888
 C   -1.6086323130   -2.0846985354   -0.0796594779
 O   -0.9110786895   -2.6694498669    1.0171994701
 C   -2.2159088005   -2.1029102550    1.2724672772
 C   -1.9864870934   -0.6192894248    1.3790456355
 N   -2.1903740268    0.3158050837    2.2072628783
 O   -2.8280545440   -0.1425362140    3.3691761283
 H   -0.3218540068    1.4429616628    1.1142895747
 H    0.4114589353   -0.0612885078   -1.1518735407
 H    0.7136554649   -0.6099995183    0.5085338993
 H   -2.0387391661   -0.0135014581   -0.7054246911
 H   -1.8183446732   -2.7102652067   -0.9383356659
 H   -2.9636468933   -2.7404084062    1.7231597038
 H   -2.9398890793    0.6680807925    3.8780986747