17

 O   -0.1774577931    1.5192680391   -0.1700486234
 C    0.0917144418    0.1279329832    0.0126167846
 C   -1.1952024088   -0.7660877168    0.1597465485
 C   -1.3917340059   -1.6011207509   -1.1523690892
 C   -0.0613512625   -1.4232132499   -1.8202534741
 C    0.7266834562   -0.5227057211   -1.1676740670
 N    1.8862048120   -0.4431519287   -1.9032993224
 C    1.7263772680   -1.3111888671   -2.9540972968
 N    0.5574774934   -1.9219922687   -2.9383192025
 H   -0.6228643758    1.6135915427   -1.0200221825
 H    0.6910615443    0.0989476555    0.9282541525
 H   -1.0605912012   -1.4442759110    1.0071943906
 H   -2.0504069776   -0.1263943051    0.3921309976
 H   -1.6265587707   -2.6464541840   -0.9283677829
 H   -2.2166029117   -1.2228139718   -1.7682643305
 H    2.6931747507    0.1292418874   -1.7204415819
 H    2.5006993709   -1.4545187230   -3.6938367507