16

 O   -0.0066685477   -0.0295306889   -0.0825247889
 C    0.0169851410    1.1767467004    0.0123558259
 N   -1.0712344469    1.9947390237    0.2131329411
 C   -0.8339426323    3.4128481579    0.0122460260
 C    0.6991296312    3.5127813207   -0.0393409928
 C    1.4304371658    2.9544528568    1.1607995565
 C    1.2252293375    2.0763790321   -0.0480239135
 C    1.2838141983    4.5599994614   -0.8187287384
 C    1.7563857747    5.4498420778   -1.4756984033
 H   -1.9958258598    1.5958810505    0.2414100210
 H   -1.2620061044    3.7709792302   -0.9323535614
 H   -1.2523663730    4.0158794659    0.8267927306
 H    2.4333862050    3.3279680398    1.3285251949
 H    0.8576273756    2.7421218349    2.0578582431
 H    2.0690426634    1.7634181362   -0.6468617930
 H    2.1807223316    6.2314190605   -2.0558508976