23

 C    0.0812590852    1.6236330971   -0.0446981412
 C    0.0653343129    0.0931271151   -0.0434729930
 C    0.6599195579   -0.5133160334    1.2314023064
 C    0.7100901039   -2.0465959683    1.2086917840
 O    1.4547372955   -2.5341659287    0.1009582287
 C    1.2432423248   -2.6108486281    2.5451191018
 C    1.2587756631   -4.0671088365    2.6045230565
 C    1.2589059280   -5.2701047315    2.6471545790
 C    1.2618038548   -6.7252741242    2.6935054238
 H    1.1035684918    2.0101791666    0.0372928741
 H   -0.3518700215    2.0253072434   -0.9660866831
 H   -0.4916361058    2.0300911777    0.7965990528
 H   -0.9661563357   -0.2642125184   -0.1620251513
 H    0.6198439130   -0.2919647680   -0.9056180210
 H    1.6810533719   -0.1294148422    1.3822511078
 H    0.0806640054   -0.1863694841    2.1055670371
 H   -0.3017841064   -2.4386017380    1.0499443267
 H    2.3774077646   -2.2888721233    0.2346169810
 H    2.2578539708   -2.2162639040    2.7088680284
 H    0.6325082653   -2.2082947215    3.3640876733
 H    2.2093102002   -7.1106789413    3.0866638810
 H    0.4591678593   -7.1077312174    3.3340523174
 H    1.1203726509   -7.1539911311    1.6950965599