19

 C    0.0651724115    1.4762510400   -0.0225628761
 C   -0.0742019846   -0.0352759606   -0.0568564697
 C   -0.0031299857   -0.6911269115   -1.4892394129
 C   -0.3295012726   -2.1405762297   -1.1356646965
 C   -0.8767695918   -2.1162188109    0.0955877971
 C   -0.0851426797   -2.1605647504    1.3848064764
 C   -0.6941009934   -0.9045534683    1.9225376375
 C    0.6154684439   -0.7433815190    1.1773493383
 C   -1.3495848781   -0.7004788381    0.5238201659
 H    1.0827126765    1.7862787555   -0.2898973009
 H   -0.6203829189    1.9463064586   -0.7375158066
 H   -0.1529146622    1.8777415222    0.9722112429
 H   -0.6964081918   -0.1522881053   -2.1530459640
 H    0.9814291232   -0.6505923596   -1.9725387021
 H    0.3019037648   -2.9505989086   -1.4884790999
 H    0.4486337208   -2.9504348348    1.8995683262
 H   -0.9895826599   -0.6153437919    2.9207770207
 H    1.6013032747   -0.5524996838    1.5875671774
 H   -2.3584568067   -0.3452543238    0.3196750962