22

 C   -0.0333758149    1.5305025878    0.0081056848
 C   -0.0185476714    0.0145041200    0.0246847441
 C   -0.8568597362   -0.6733844348    1.0727049164
 C    0.6533912633   -0.6795234033    1.1975420857
 C    1.4324907983   -1.9833700672    1.0133916138
 C    1.7191572754   -2.3262173050   -0.4581095985
 C    0.4870220383   -2.1028730899   -1.3411838931
 C    0.1019797927   -0.6165043322   -1.3576115651
 H    0.8877367526    1.9321679549   -0.4314253654
 H   -0.8747787968    1.9111427404   -0.5843116462
 H   -0.1276142783    1.9415428319    1.0184265559
 H   -1.4318004210   -0.0547771558    1.7545761239
 H   -1.3385973967   -1.6135458274    0.8206457535
 H    1.0544777166   -0.0168687288    1.9595701230
 H    2.3793209817   -1.9194684354    1.5602798715
 H    0.8752657468   -2.8100683508    1.4732344392
 H    2.5347640494   -1.6912760564   -0.8300068076
 H    2.0696027806   -3.3615237611   -0.5344642456
 H    0.6839533879   -2.4357945436   -2.3661467556
 H   -0.3485475131   -2.7149139894   -0.9758469706
 H   -0.8333881649   -0.4675937909   -1.9133830976
 H    0.8766692595   -0.0701518132   -1.9146531665