23

 C   -0.0056471189    1.5049839272   -0.3034137758
 C   -0.0875804467    0.0677191558    0.2317806040
 C   -1.4767338430   -0.5531645715    0.1068179568
 C   -2.5456202318    0.1763266517    0.9035226296
 C   -1.8604080890   -1.1866035052   -1.1941613287
 C   -1.5544360691   -2.1069748351   -0.0214516961
 C   -0.2981866687   -2.9659063018   -0.0100371773
 C   -2.7172792609   -2.8005093094    0.5996967893
 O   -3.8847237602   -2.5204687661    0.4501893549
 H    1.0245391445    1.8711524885   -0.2564540738
 H   -0.3325144553    1.5548888239   -1.3475295724
 H   -0.6262781782    2.1951620609    0.2744513450
 H    0.6460266154   -0.5380590972   -0.3059929225
 H    0.2176160185    0.0554880252    1.2866154272
 H   -2.6628271854    1.1978809947    0.5281307477
 H   -3.5145751434   -0.3163246156    0.8321763251
 H   -2.2677854353    0.2433160938    1.9621906515
 H   -2.9018258186   -1.1417621913   -1.4961485401
 H   -1.1418748171   -1.1833503340   -2.0083388773
 H    0.4872733696   -2.5627068502   -0.6502447801
 H    0.1147559673   -3.0725889840    0.9996166855
 H   -0.5239356330   -3.9720083638   -0.3813158255
 H   -2.4293543409   -3.6611866665    1.2469404734