25

 C    0.0595076297    1.5852273707   -0.0588989563
 C   -0.0196405263    0.0622276151    0.0765005030
 C   -1.4388072510   -0.4891050067   -0.1087697979
 C   -1.5177929226   -2.0073940571    0.0274833895
 C   -1.2987507221   -2.6733389731    1.4329165205
 C   -2.6450034930   -3.4034272725    1.2860700780
 C   -2.8905230788   -4.8263286979    1.6982344160
 C   -3.7377910050   -2.3810802480    1.1474678851
 C   -2.8859753730   -2.7001375680   -0.0554326946
 H    1.0838043871    1.9475966268    0.0747595735
 H   -0.2834103171    1.9131290218   -1.0467344816
 H   -0.5693698575    2.0821834910    0.6883553402
 H    0.6481781713   -0.4064109397   -0.6588940866
 H    0.3601712968   -0.2373807361    1.0621179292
 H   -2.1097329250   -0.0131157088    0.6186387836
 H   -1.8140709094   -0.1995617280   -1.1006590931
 H   -0.8301894594   -2.4632292327   -0.6941459354
 H   -0.4382518346   -3.3471122375    1.4519440978
 H   -1.2226242068   -1.9921153157    2.2885685130
 H   -2.9096312323   -4.9275606894    2.7907648649
 H   -3.8515290514   -5.1894505595    1.3185216958
 H   -2.1075165576   -5.4942498861    1.3199525067
 H   -4.7452990846   -2.7850388515    1.1086698218
 H   -3.6726651259   -1.4171719087    1.6476261398
 H   -3.3275526613   -3.0987183081   -0.9627708127