19

 C   -0.0427077705   -1.2401077136    0.0370472743
 C   -0.0291033424   -0.0427133764    0.1338574262
 C    0.0060171835    1.4110109710    0.2036893147
 O   -0.4002799569    1.8533356477    1.5022510998
 C   -0.0095834042    3.2211925317    1.5835485174
 C    1.3686652161    3.3009223154    0.9230977268
 C    2.5456275345    2.6899002417    1.7356936172
 C    2.5685297813    1.4555295747    0.7914772233
 C    1.3927419369    2.0532715919   -0.0270762560
 H   -0.0628323217   -2.2991501870   -0.0397534705
 H   -0.6914846720    1.8177893405   -0.5499757382
 H   -0.7327642821    3.8582344763    1.0475384781
 H   -0.0150523471    3.5017869476    2.6405717951
 H    1.5612561024    4.2767467824    0.4740864957
 H    3.4577046850    3.2907771521    1.7195404616
 H    2.3000509649    2.4655978001    2.7773322004
 H    3.4906977593    1.3427434183    0.2174792894
 H    2.3403646537    0.4994576376    1.2671352721
 H    1.5844781093    2.2204674780   -1.0876642375