18

 C   -0.0901109768    1.4460135424   -0.0327682969
 C    0.0022307499   -0.0622601356   -0.0185639471
 O    1.0571707789   -0.6564996772   -0.0357038516
 C   -1.3183576851   -0.8225657834    0.0192291825
 N   -1.0616224128   -2.2389543960    0.0294203625
 C   -2.0519490819   -3.1546895602    0.0614207429
 O   -3.2395213658   -2.8575379615    0.0843750496
 C   -1.6328708943   -4.6280627545    0.0684860670
 O   -2.7679267549   -5.4408133125    0.1025104866
 H    0.9105887005    1.8774107777   -0.0616255528
 H   -0.6640660620    1.7836716453   -0.9027184459
 H   -0.6212281246    1.8025630795    0.8566607025
 H   -1.8914921095   -0.5102409132    0.9033697129
 H   -1.9301441200   -0.5298518328   -0.8455153737
 H   -0.0849894176   -2.5005374068    0.0105115491
 H   -1.0242448586   -4.8295838005   -0.8277815919
 H   -0.9852383084   -4.8099904624    0.9413021073
 H   -3.5117754270   -4.8138988584    0.1120389572