21

 C   -0.3217196285    1.4704287635    0.0127039533
 C    0.1093542127   -0.0024254785    0.0604852627
 C    0.7926592861   -0.4652168568   -1.1871927955
 C    0.3050595571   -0.7669475726   -2.6124994957
 C    1.3497829688    0.1624059774   -3.2267044009
 C    2.1449538460   -0.0932718772   -1.9221365860
 O    2.5078876155   -1.4985196145   -2.0128746017
 C    1.1226746006   -1.7912606365   -1.7906908194
 C    0.7188008964   -3.1924395948   -1.4817960874
 H    0.5419288701    2.1294731282   -0.1256995213
 H   -1.0142659895    1.6496406335   -0.8159739873
 H   -0.8201451174    1.7650407651    0.9412210360
 H    0.7710059632   -0.1635064592    0.9221606194
 H   -0.7710605692   -0.6355731229    0.2323941380
 H   -0.7072633406   -0.9680360659   -2.9427366289
 H    1.8455443509   -0.1292012527   -4.1582228765
 H    0.9871206568    1.1920234136   -3.2889670175
 H    2.9573041148    0.5444292453   -1.5777107336
 H    1.2503207037   -3.5702119205   -0.6025314701
 H   -0.3561847122   -3.2442476513   -1.2845858032
 H    0.9398669447   -3.8541293233   -2.3262581544