18

 O   -0.1205080835    1.2786737888   -0.5034202039
 C    0.0360574264   -0.0860580314   -0.1345186952
 C    0.8339340264   -0.8423651750   -1.2020359572
 O    0.1467492780   -0.8318911740   -2.4502524322
 C    0.4025314298    0.1867384632   -3.2989551898
 O   -0.1931062906    0.3339574618   -4.3217343168
 C    0.6608009630   -0.2475727624    1.2339099324
 C   -0.1786396792   -0.1472879545    2.4507149403
 N    0.3936939781   -1.4439563767    2.0486260922
 H    0.6952040542    1.7465827001   -0.2918166322
 H   -0.9811588944   -0.4967470230   -0.1185085671
 H    1.8344718187   -0.3984567385   -1.3078043881
 H    0.9566812874   -1.8927805502   -0.9249500792
 H    1.2282756880    0.8354951835   -2.9528578570
 H    1.6986795207    0.0850937337    1.2948703442
 H    0.2349313730    0.2706301171    3.3635040451
 H   -1.2431974678    0.0222985640    2.3130352978
 H   -0.3244312380   -2.0143025366    1.6061142467