21

 C   -0.0219632831    1.5696233988   -0.0398795465
 C    0.0938497937    0.0558143025    0.0567145809
 O    1.0288805412   -0.4720568383   -0.9098890420
 C    1.9442658542   -1.2670873543   -0.1001606291
 C    2.1761627402   -2.5681521405   -0.9031358393
 C    0.7568294768   -3.0163096179   -0.3310622503
 C    1.0355933629   -2.0103810715    0.8464015854
 C    0.7104892213   -0.5380323735    1.3213268702
 C    2.2772501792   -0.2807879891    1.0495007623
 H    0.9199029016    2.0692203417    0.2013278111
 H   -0.3059265879    1.8562393124   -1.0569177823
 H   -0.7950114038    1.9366881620    0.6438462781
 H   -0.8954701626   -0.3861862407   -0.1319970403
 H    2.2916239587   -2.4734561897   -1.9847286594
 H    2.9794541592   -3.1836800656   -0.4918790875
 H   -0.0505152804   -2.7294228069   -1.0027115211
 H    0.6463768881   -4.0644682341   -0.0460366858
 H    1.6107982045   -2.5233632840    1.6197391535
 H    0.2441874231   -0.3063177926    2.2798193225
 H    2.8989594804   -0.7093248243    1.8361458035
 H    2.5991033425    0.7336110855    0.8039417060