21

 C   -0.0071403059    1.5087893211   -0.0100237744
 C    0.0365813626   -0.0046624634    0.0088683210
 C    0.7214676090   -0.7295462733   -1.1765246776
 C    0.4773570706   -2.1611838570   -0.7046663811
 C    0.4759231825   -2.1317036046    0.8114528263
 C    0.7317669658   -0.6838057900    1.2175166504
 C   -0.8393781110   -2.1574498763    0.0444413910
 C   -1.3502021178   -0.7249713218    0.0127149721
 O   -2.2122238963   -0.3675160908    1.0783306369
 H    0.9955047643    1.9415697437    0.0752372067
 H   -0.4527471942    1.8804077884   -0.9397111561
 H   -0.6141800255    1.8829015991    0.8203885582
 H    0.2374858046   -0.5057630035   -2.1340621190
 H    1.7850370186   -0.4807959108   -1.2637747635
 H    0.8118473053   -3.0286158512   -1.2586786601
 H    0.8090589359   -2.9784991688    1.3971412710
 H    1.7979230638   -0.4372411807    1.2692251520
 H    0.2772830105   -0.4057484300    2.1753803953
 H   -1.5052341742   -3.0107237972    0.0558658415
 H   -1.9078493427   -0.4922686940   -0.9017088661
 H   -1.8968454162   -0.8098815789    1.8728355556