18

 O    0.8341579044    0.0577661242    0.4793725174
 C   -0.1544904209    0.1273222529   -0.5395172831
 C   -1.4605254378   -0.5308500236   -0.1023905517
 C   -2.0569400459   -1.6624287212   -0.9098476473
 C   -1.3320730671   -1.9653174654    0.3759308339
 O   -0.0872916687   -2.5717028904    0.3081302399
 N   -2.4073556273    0.3224980348    0.5800816964
 C   -2.1218424810    1.0390423094    1.6901177872
 O   -1.0320692805    1.0955532212    2.2383132796
 H    0.4223159485    0.4579743437    1.2683879987
 H   -0.3476258045    1.1663149402   -0.8424983792
 H    0.2559965214   -0.4031822520   -1.4014929917
 H   -3.1377046305   -1.7672738689   -0.9223307192
 H   -1.5594090628   -1.9246298414   -1.8364028028
 H   -1.9488288227   -2.2457175538    1.2296692253
 H    0.5543948986   -1.9097161763    0.6177263305
 H   -3.3360754840    0.4086557636    0.1961744197
 H   -2.9970078193    1.5965394430    2.0696219864