17

 O    0.2380953022    1.3442872297   -0.1317716101
 C    0.0948473499   -0.0165801029    0.0695604533
 C    0.7707146550   -0.5286568704    1.3688125361
 O    1.3539552954    0.2042556641    2.1200652781
 C    0.5836239547   -2.0236669367    1.5983656922
 C   -0.9177909636   -2.3743071581    1.6253437926
 C   -1.6470780767   -1.9054274066    0.3479620370
 C   -1.3801911015   -0.4368857536    0.1010571917
 O   -2.2361243055    0.4098437582   -0.0234404077
 H   -0.6645681401    1.7020271832   -0.1372819049
 H    0.5673292047   -0.5912792999   -0.7491555045
 H    1.0737477538   -2.5749721064    0.7846268002
 H    1.0750305036   -2.2926681513    2.5354163595
 H   -1.0449743692   -3.4541701801    1.7406378125
 H   -1.3827023985   -1.9044145387    2.4998144553
 H   -1.2716419312   -2.4742144535   -0.5133187884
 H   -2.7256318529   -2.0626578268    0.4142943271