21

 C   -0.1518206621    1.5647517498    0.1188725088
 C   -0.1693964272    0.0639602704    0.2535144136
 O    0.9993424745   -0.6471054708   -0.1866510548
 C    0.6730646598   -0.6699188650    1.2086387275
 C    1.6391962159   -0.0130976122    2.1983371335
 C    1.9596297978   -1.1209214649    3.2245777200
 C    0.6698486049   -1.9566920586    3.2617122579
 C    0.2514100363   -2.0283429671    1.7831228066
 O   -1.1303177461   -2.2599704417    1.5639873072
 H    0.8003020025    1.9871630781    0.4486181245
 H   -0.3102950723    1.8548204827   -0.9251603203
 H   -0.9573446037    2.0097432553    0.7136593873
 H   -1.1011773902   -0.4196713551   -0.0363457882
 H    2.5220570959    0.3752394548    1.6859459420
 H    1.1493759892    0.8307222065    2.6985941469
 H    2.7928341711   -1.7369227913    2.8663471910
 H    2.2456553437   -0.7277322450    4.2033052903
 H    0.7983161602   -2.9424970606    3.7188684399
 H   -0.1162348321   -1.4284743144    3.8150211685
 H    0.8521777361   -2.7931488206    1.2659276771
 H   -1.3105736543   -3.1860785603    1.7506282009