21

 C   -0.0836253524    1.5452209816    0.1388293881
 C    0.0363348572    0.0228721456    0.0405850733
 C    0.7371888182   -0.5163850154   -1.2369715288
 C    0.7862725009   -2.0590802301   -1.1734197746
 C   -0.0154063643   -0.0677196195   -2.5362420359
 C   -1.4138456960   -0.4754972559   -2.5813050453
 C   -2.5680953345   -0.8115722997   -2.6128911185
 C    2.1052844304    0.0049629049   -1.3196510437
 C    3.2283567082    0.4279704014   -1.3990899931
 H    0.8944702072    2.0264065589    0.0442966511
 H   -0.7415898311    1.9534524972   -0.6347846376
 H   -0.5072061329    1.8297586296    1.1067579039
 H    0.5949940630   -0.3547249426    0.9043781503
 H   -0.9597554031   -0.4310352755    0.0836387605
 H   -0.2288529122   -2.4654312502   -1.1533230381
 H    1.3080569342   -2.4695255143   -2.0426488853
 H    1.3142771333   -2.3878789124   -0.2744064794
 H    0.0530454211    1.0208969232   -2.6310280412
 H    0.5171031625   -0.4823296920   -3.3999474851
 H   -3.5880412035   -1.1044446430   -2.6512858513
 H    4.2217216937    0.7980803680   -1.4628372194