15

 C    0.0681623388    1.4773963617    0.0796468087
 C   -0.0393512198   -0.0454194540   -0.0404891227
 C    0.7493135125   -0.6145031479   -1.2617132962
 N    1.9811403820   -0.9926044417   -0.6064233549
 C    1.8088392557   -1.1893566174    0.7455245947
 O    2.5539508573   -1.6985083949    1.5285166243
 O    0.5883143032   -0.6569590155    1.1001235248
 C   -1.4488169420   -0.4656676941   -0.0734688658
 N   -2.5608596460   -0.7702660907   -0.1349851870
 H    1.1224280375    1.7652472282    0.0545782765
 H   -0.4570262580    1.9649395630   -0.7460699902
 H   -0.3690230979    1.8089880739    1.0233492181
 H    0.2270320682   -1.4650374505   -1.7156073549
 H    0.8986242698    0.1559136815   -2.0227442453
 H    2.6876600787   -1.5411644315   -1.0690471402