19

 O   -0.1476537794    0.0266921650    0.0205331898
 C    0.0016637881    1.2240105224   -0.0642413008
 C    1.2925628104    1.9097468246    0.0046005393
 C    1.4079442410    3.3838638888    0.3371908971
 C    1.8155363957    2.9643665860   -1.0298933925
 C    3.1595575727    2.2629265882   -1.0105253185
 C    4.0066423671    1.9758456128   -2.2107098944
 C    4.5154084901    2.8996791404   -1.1237958428
 C    2.6639862997    1.2250859373    0.0185380209
 H   -0.8679822098    1.9047932252   -0.2238813570
 H    0.4629670755    3.9151431419    0.4067417500
 H    2.1534162620    3.6907622785    1.0661273451
 H    1.2968673070    3.3085391087   -1.9175525543
 H    4.4506489615    0.9893875417   -2.2977262265
 H    3.7175427919    2.4185618733   -3.1588406040
 H    4.5700061345    3.9618307195   -1.3395324050
 H    5.3034149595    2.5345359618   -0.4730029387
 H    3.1728030106    1.2054275184    0.9874974441
 H    2.6113882216    0.2100010556   -0.3806158317