12

 O    0.0426032422   -0.1107807577    0.0017563863
 C   -0.0244529595    1.0970272297    0.0056414394
 C    1.1996601512    1.9201753822    0.0009475931
 N    2.1655817976    2.5555886421   -0.0028444834
 C   -1.2409651271    1.8550467689    0.0166509915
 C   -2.2657899260    2.4912666594    0.0258698408
 C   -3.5156028097    3.2454176600    0.0370339992
 C   -3.3290137618    4.6951790120    0.0433617425
 C   -3.1839378128    5.8858923552    0.0486184672
 H   -4.1132294013    2.9445547521   -0.8354027542
 H   -4.1031378161    2.9355968536    0.9131747642
 H   -3.0525841267    6.9400885224    0.0532773134