20

 C   -0.5686700333    1.2783888536   -0.7234349823
 O   -0.6982555197   -0.1491310424   -0.6901830815
 C   -0.8931591543   -0.6846193281    0.5323198850
 O   -0.9229305337   -0.0412534650    1.5501582047
 C   -1.0858816552   -2.1846530158    0.4238665540
 C   -1.5173466503   -2.9512284795    1.6901894740
 C   -2.5617892719   -3.6411650312    0.7793262137
 N   -2.3617782567   -2.5710709827   -0.2194943477
 C   -2.3574713481   -2.9092279365   -1.6248772192
 H   -0.4137775797    1.5390118066   -1.7704370149
 H   -1.4741051854    1.7557402150   -0.3401449988
 H    0.2817588340    1.6017407212   -0.1180223051
 H   -0.2042080368   -2.6266972761   -0.0701455416
 H   -0.7677108743   -3.5867371296    2.1603077951
 H   -1.9537807294   -2.2826359917    2.4322189162
 H   -2.2159939802   -4.6263727332    0.4255604161
 H   -3.5885816151   -3.7388931441    1.1464229480
 H   -3.3613015975   -3.2206783668   -1.9326778178
 H   -2.0780392735   -2.0287900749   -2.2103812439
 H   -1.6533551291   -3.7274614589   -1.8710396841