18

 C   -0.0407654032    1.4817062946    0.0280939133
 C    0.1130555532   -0.0134790021   -0.0013039568
 C    0.4593690632   -0.7488430107   -1.3156947782
 C    0.5340085154   -2.1842670019   -0.8287672525
 C    0.6858927194   -2.1983744095    0.6859323903
 C   -0.5627897902   -1.5775040952    1.2694231426
 C    0.7120674252   -0.7723138237    1.2043727982
 N   -1.1720682216   -0.8423647561    0.1198392265
 C   -0.8045099289   -1.5550483395   -1.1411849410
 H    0.9352835956    1.9723099615   -0.0646498151
 H   -0.6765400869    1.8194478428   -0.7959191783
 H   -0.5006079398    1.8028107858    0.9676229598
 H    0.9338084540   -0.3534821480   -2.2056709607
 H    0.9477624569   -2.9581608404   -1.4617892724
 H    1.2156584123   -2.9830380369    1.2098332682
 H   -1.1457398603   -1.9559197183    2.1004057037
 H    1.3544814195   -0.3925554717    1.9895791139
 H   -1.5415354034   -1.9191494206   -1.8467238517