14

 O    0.1513168084    1.3883032003    0.1144908439
 C    0.0933718098   -0.0075085741    0.0829190261
 C   -1.3789395012   -0.5401519305    0.0699950373
 C   -2.1149288973   -0.0407837337   -1.2134722058
 O   -1.5971073810    0.6740830103   -2.0253868889
 C   -1.4097272284   -2.0004417643    0.0309171211
 C   -1.4097791889   -3.1968718356   -0.0725051191
 C   -2.1379548120   -0.0286849093    1.2218059415
 N   -2.7623100192    0.3833366155    2.1019797230
 H   -0.1337880400    1.7005284635   -0.7530078235
 H    0.5935884274   -0.4400602170   -0.7931135774
 H    0.5847700338   -0.3834998123    0.9830273868
 H   -3.1488963972   -0.4191101771   -1.3191070239
 H   -1.4124623944   -4.2578677057   -0.1374195710