22

 C    0.0588532767    1.5947445991   -0.6364442910
 C   -0.4263421256    0.3033545335    0.0268507986
 C   -1.1410149582    0.5896150917    1.3666777865
 C   -1.3801328785   -0.4655904405   -0.8842257499
 O   -1.9625531693    0.0834389089   -1.7995270896
 C   -1.6363964406   -1.9329666749   -0.6097590696
 C   -0.5993611404   -2.7599466218    0.1200397402
 C   -3.0956377965   -2.2652606666   -0.4674156168
 N   -2.3705887142   -2.6338952390   -1.6768658545
 H    0.7355757941    2.1345575534    0.0329845690
 H    0.5910433829    1.3865931273   -1.5687353006
 H   -0.7853964807    2.2445781800   -0.8792775288
 H    0.4343371589   -0.3420456278    0.2387649233
 H   -0.4593338099    1.0984822013    2.0545805368
 H   -2.0068162215    1.2400179315    1.2047703532
 H   -1.4921965719   -0.3250399586    1.8528681155
 H   -0.4318180708   -2.4045041403    1.1412945872
 H   -0.9364824033   -3.7978160974    0.1704691806
 H    0.3607678137   -2.7503565945   -0.4070488633
 H   -3.3765268885   -3.0900797595    0.1830031284
 H   -3.8063509167   -1.4449941221   -0.5175732323
 H   -2.5775743795   -1.9387762740   -2.3956374730