17

 C   -0.0698069050    1.5292166313    0.0493348760
 C    0.0127548941   -0.0074772021   -0.0112563811
 C    0.7832700438   -0.5090975683   -1.2367946063
 N    2.1956341449   -0.2218605172   -1.0510721286
 C    2.8557847277   -0.3097549622    0.1357479229
 O    4.0432393907   -0.2059547107    0.2791404047
 O    2.0601853163   -0.5352431902    1.2472029932
 C    0.6751071670   -0.5602021428    1.2254057384
 N    0.0256694246   -0.9853008086    2.2181937206
 H    0.9227270033    1.9873712950    0.0633477629
 H   -0.6070780273    1.9103995941   -0.8246693882
 H   -0.6063825198    1.8436112131    0.9474414790
 H   -0.9979430869   -0.4196344334   -0.0278055588
 H    0.6093083733   -1.5851630737   -1.3795979473
 H    0.4389771346    0.0046063557   -2.1390337540
 H    2.8054917125   -0.1477634179   -1.8490225037
 H    0.6606878862   -1.2871853721    2.9602588403