15

 C    0.3901339839    1.5044354684   -0.1096217438
 C    0.0751234811    0.0381302251    0.0801556821
 O    0.8378351424   -0.8201818022   -0.8213853652
 C    1.3325576376   -1.6212716695    0.2581502599
 C    2.7921456564   -1.6931207637    0.3286035364
 N    3.9403415058   -1.7667249997    0.4367021155
 C    0.6554740643   -0.6904963437    1.3183691191
 O    1.5016367650    0.1312303387    2.0656963240
 H    1.4467299644    1.7037296862    0.0741161605
 H    0.1426881538    1.7977446198   -1.1341665442
 H   -0.2060674110    2.1134930542    0.5770451530
 H   -0.9973645072   -0.1530993434   -0.0503670953
 H    0.9278609245   -2.6415778131    0.2303108333
 H   -0.0802291232   -1.2086833857    1.9448754720
 H    2.0131124222   -0.4086491914    2.6783877028