13

 O   -0.4236751512    0.3079937619   -0.4702236039
 C    0.0955807750    0.9723930590    0.3958464149
 C    1.2723818087    1.7821938318    0.2031892883
 C    2.2600070071    2.4672340081    0.0761812663
 C    3.4153166686    3.3159000297   -0.0785781725
 O    3.9499800357    3.3955640375   -1.4221714054
 C    3.7472690818    4.8177526093   -1.5476854534
 C    3.1546369383    4.8630808042   -0.1396602471
 O    2.7042018344    5.6760658640    0.5956906319
 H   -0.3081925322    1.0067868507    1.4276729844
 H    4.1945680611    3.0544577729    0.6512311688
 H    4.6816193850    5.3776533878   -1.6763128704
 H    3.0471128778    5.0798761530   -2.3505150420