24

 C   -0.0153636452    1.1513199019    0.3485408755
 O   -0.0404556541   -0.2131791435    0.0015007247
 C    0.6352121420   -0.5379377681   -1.2078026019
 C    2.1540194594   -0.5760926011   -1.0133640741
 C    0.0868878433   -1.8855779911   -1.6874422308
 C   -1.3860491750   -1.8457314938   -2.0491371115
 C   -2.1748714887   -3.1011775042   -2.2216916964
 N   -2.4812993885   -2.1770738330   -1.1383725719
 C   -2.1995926069   -2.6124940034    0.2209257733
 H    0.9959595120    1.5105209993    0.5893618220
 H   -0.4219942921    1.7822449923   -0.4571999975
 H   -0.6425646188    1.2693707355    1.2357346378
 H    0.3907361903    0.2274234327   -1.9657716736
 H    2.6571484338   -0.8201878164   -1.9543418431
 H    2.5404822359    0.3885418325   -0.6726856560
 H    2.4223546428   -1.3333334479   -0.2697033958
 H    0.6553041503   -2.1829811357   -2.5779224665
 H    0.2878662981   -2.6429468122   -0.9228592356
 H   -1.6370157162   -1.0099537237   -2.7044227233
 H   -2.9193145495   -3.1953575308   -3.0090635009
 H   -1.6723058962   -4.0343223613   -1.9628928050
 H   -1.3900741906   -3.3559973627    0.3038526094
 H   -1.9248318288   -1.7454271664    0.8249586353
 H   -3.1070273575   -3.0656836089    0.6337994558