23

 C    0.1746761943    1.6131082557   -0.1657198700
 C    0.1046871632    0.0865966818   -0.0661791612
 C    0.6345857824   -0.4861064486    1.2612120021
 C   -0.2664938195   -0.1703179396    2.4936835105
 C   -1.2612156848   -1.3144105780    2.8270195413
 C   -0.6764717079   -2.6530971433    2.3831811636
 C    0.8596775658   -2.7021692577    2.5319079474
 C    0.7952512408   -2.0086368308    1.1555361642
 O   -0.5209676174   -2.5978408878    0.9346144149
 H    1.2057188903    1.9706769246   -0.0623976107
 H   -0.2005495664    1.9593809495   -1.1339113177
 H   -0.4225191959    2.1048519488    0.6091800551
 H   -0.9236741447   -0.2591287195   -0.2163286481
 H    0.6884791455   -0.3470621755   -0.8893815520
 H    1.6303305655   -0.0556662714    1.4419949862
 H    0.3778199361   -0.0059758975    3.3632255454
 H   -0.8068044905    0.7692064468    2.3477068799
 H   -1.4858342084   -1.3191926644    3.9003366897
 H   -2.2119761039   -1.1816894136    2.2995201333
 H   -1.2697830229   -3.5153426808    2.7003456481
 H    1.3310562377   -2.1819108803    3.3684333830
 H    1.2421364793   -3.7210345055    2.4551397408
 H    1.5082652416   -2.3033425030    0.3790579742