16

 O    0.0999156934    1.4953034202    0.4522986649
 C    0.0352198730    0.1428933019    0.0655392894
 C    0.7166155528   -0.7664022920    1.0902717957
 O   -0.2387177678   -0.8410837676    2.1423502191
 C   -1.5029480195   -1.0680724419    1.5260861920
 C   -1.4173193110   -0.4474848387    0.0885848359
 C   -2.4671240727    0.5101691225   -0.2072918080
 C   -3.3562368122    1.2863870499   -0.4344958656
 H   -0.2047018439    1.5472817602    1.3664171456
 H    0.4744705993    0.0864777106   -0.9327196214
 H    0.9305650912   -1.7632763864    0.6700053106
 H    1.6370486493   -0.3350537627    1.4885066786
 H   -1.7106283810   -2.1452830524    1.4625494741
 H   -2.2719262148   -0.5981488623    2.1420943546
 H   -1.4577999873   -1.2579183217   -0.6481615842
 H   -4.1309260587    1.9815614404   -0.6441484715