18

 O    0.5108582249    1.2242795495   -0.1243761291
 C    0.1846697313   -0.1297095962    0.0153252741
 C   -0.1685074328   -0.6788389549    1.4243797150
 C   -1.4903734668    0.1227629697    1.3725007727
 C   -1.3102977350   -0.5741874909   -0.0062933700
 N   -0.9244820006   -1.8242827621    0.7617626103
 C   -2.1873635936   -0.5627585371   -1.2123160698
 C   -3.3419781896    0.3351038778   -1.3318830876
 O   -2.1012005353    0.6628652949   -1.9658813693
 H    0.0466519556    1.5463347162   -0.9063746705
 H    0.8552053055   -0.7806591355   -0.5675641920
 H    0.4879830636   -0.8480416378    2.2772852892
 H   -2.3009583022   -0.2695023540    1.9873040983
 H   -1.4000189134    1.2069472883    1.3917523710
 H   -0.2657527761   -2.3754571487    0.1967929901
 H   -2.1645813056   -1.4637341840   -1.8266536107
 H   -4.1548881890    0.0818187549   -2.0102345719
 H   -3.6141857309    0.9635313500   -0.4861453297