21

 C   -0.0407871029    1.4943793395    0.0734223562
 C   -0.0045998175    0.0005698880    0.0018081349
 C    0.0567279283   -0.7644567526   -1.0969411496
 C    0.0544929833   -2.2190985911   -0.7741295143
 C   -0.7478206603   -3.2128109102   -1.5906447140
 C    0.7559933222   -3.2421898539   -1.6441389332
 C    0.0840941133   -2.2877537516    0.7369095803
 C    1.2643885355   -1.6731769963    1.4470741442
 C    0.0046419678   -0.8540246430    1.2331826356
 H    0.8179958900    1.8882317450    0.6320443836
 H   -0.0367089715    1.9457499441   -0.9224960482
 H   -0.9388563130    1.8437117849    0.5993509530
 H    0.1287204265   -0.3939806700   -2.1144884622
 H   -1.2559832790   -4.0060681574   -1.0509834289
 H   -1.2894365729   -2.8436122490   -2.4552438587
 H    1.2436639570   -2.8909213452   -2.5476349195
 H    1.2741141285   -4.0548837812   -1.1458819314
 H   -0.4561848590   -3.0855524604    1.2343699552
 H    1.4670780184   -2.0249483089    2.4536498990
 H    2.1445585175   -1.4113114751    0.8686160340
 H   -0.5849853923   -0.5646038657    2.0974246840