15

 O   -0.0359609909    0.3183296652   -1.0044119265
 C    0.0380474320    1.2978475119   -0.2997794592
 C   -1.2249816699    1.8761312288    0.3396542561
 O   -1.2534174623    3.2895313317    0.5724817987
 C   -0.1585090168    4.0913959225    0.5084756393
 O   -0.3037696106    5.2821751932    0.5310304064
 C    1.1858857594    3.4456985800    0.4495493577
 C    1.5449776833    2.3950791920    1.4618880388
 C    1.3070128598    1.9848137262    0.0226475896
 H   -2.0674611962    1.6431752025   -0.3148178752
 H   -1.3957685947    1.3619278447    1.2954953783
 H    1.9624984691    4.1313844858    0.1365974326
 H    2.5705920256    2.3724387155    1.8091016880
 H    0.8092289098    2.1204401483    2.2088163036
 H    2.1607772523    1.6853568217   -0.5729069883