15

 N   -0.0129535576    1.3501485738    0.0638164017
 C    0.0324548640   -0.0043519474   -0.1376253833
 O    1.0725658464   -0.5893236745   -0.3793064653
 C   -1.2801999022   -0.7297564501   -0.0711445180
 C   -2.5296972044   -0.1082356411   -0.1460620439
 N   -3.6933679530   -0.7587329014   -0.0899915573
 C   -3.6436824313   -2.0868503878    0.0411677392
 C   -2.4551639121   -2.8126737011    0.1045158491
 C   -1.2547705600   -2.1212870216    0.0422594791
 H    0.8798019448    1.8133768146    0.1317944136
 H   -0.7876213981    1.7764693418    0.5428198689
 H   -2.6048368437    0.9681051793   -0.2860342020
 H   -4.6025641064   -2.5972302805    0.0926873088
 H   -2.4777360231   -3.8925620910    0.1987351620
 H   -0.2939572633   -2.6218024031    0.0758667575