20

 C    0.6440817823    1.5055010900    0.0173750084
 C    0.0013633601    0.1241510583   -0.0024875510
 C    0.3949230277   -0.7489953877   -1.2184581432
 C    1.4154244723   -1.7447348136   -0.6469195201
 C    1.5188619729   -3.0695699181   -1.3990807232
 O    2.6723081785   -1.0595415525   -0.6648548785
 C    0.8917713614   -1.8797344103    0.7915670505
 O    0.4351340344   -0.5974704523    1.1653716460
 H    1.7278844839    1.4132444644   -0.0887689436
 H    0.2567914148    2.1226475344   -0.8004612644
 H    0.4236341585    2.0104448399    0.9623933232
 H   -1.0918545808    0.2296970652    0.0484178987
 H   -0.4712750821   -1.2881640091   -1.6118450792
 H    0.8358548226   -0.1669300642   -2.0303249692
 H    1.8678233805   -2.8969201816   -2.4208703093
 H    2.2361184101   -3.7391866972   -0.9088299365
 H    0.5550214021   -3.5860952594   -1.4408077494
 H    3.3014239842   -1.5752538184   -0.1492036841
 H    0.0802724188   -2.6268333321    0.8321021947
 H    1.6714760479   -2.1915431757    1.4973461804