21

 C   -0.3779877981    1.2764577922   -0.1884160838
 C    0.3528382600   -0.0474602197   -0.1012729734
 O    1.7273551843    0.0595149752   -0.5601236897
 C    2.2148822003   -0.5498315680    0.6654976332
 C    0.8032031779   -0.5492775723    1.2949332330
 C    0.4781924468   -2.0041690722    1.6771817609
 C    1.6155295353   -2.7815123474    1.0531204147
 C    2.5645217900   -2.0116899498    0.5119255239
 C    3.8072652439   -2.4386857576   -0.2014474814
 H    0.1369616729    2.0435328739    0.3983414569
 H   -0.4286484836    1.6174710422   -1.2273444615
 H   -1.4019181848    1.1749092893    0.1887456071
 H   -0.1845049281   -0.8180233007   -0.6736519633
 H    3.0196611349    0.0551530976    1.1013064998
 H    0.6214883588    0.1719609333    2.0930825377
 H    0.4417685920   -2.1442289347    2.7658397933
 H   -0.5014966416   -2.3248938432    1.2976699214
 H    1.6374223576   -3.8674997719    1.0543123571
 H    3.8862273522   -3.5270393162   -0.2695695921
 H    3.8230992856   -2.0264346266   -1.2174385547
 H    4.7053919338   -2.0613958535    0.3043607911