17

 C    0.0083810791    1.5569558897    0.0276961176
 C    1.5448784375    1.5428595038    0.0350869258
 N    2.0757242332    0.8456890985   -1.1375840993
 C    1.5691437120    0.0393262668   -0.0469786961
 C    2.3370821038   -1.0435545307    0.6402214696
 N    1.6048493530   -1.5980711768    1.7769802104
 C    0.3784773270   -1.3340974163    1.9202722938
 O   -0.4730539675   -0.5813617575    1.1682070742
 C    0.0370361117   -0.0004172829   -0.0344641464
 H   -0.4396999472    1.8868094470    0.9669085736
 H   -0.4646183642    2.0848013081   -0.8067026510
 H    2.2036581253    2.2253903929    0.5594861027
 H    1.4542066816    0.8821894629   -1.9450494516
 H    2.5502135026   -1.8621102563   -0.0617121891
 H    3.3107148047   -0.6819948146    0.9880592222
 H   -0.1731660388   -1.7367355425    2.7679394614
 H   -0.4619565439   -0.4906698021   -0.8784594678