16

 N    0.0486870639    1.4122503241    0.0612356837
 C    0.0690672864   -0.0059559255    0.0167660890
 C   -0.1670750331   -0.8772883937   -1.2277586622
 C    0.6922797488   -1.8272560813   -1.8777968198
 N    1.3874110201   -2.5510374292   -2.4565369799
 C   -1.0490376459   -1.0017686931    0.0235071972
 N   -0.5442103652   -1.7084084991    1.2545236161
 C    0.8173828839   -2.2418599331    1.0456827596
 C    0.6531805636   -0.7858799286    1.2159791021
 H    0.9138553539    1.8067153017   -0.2974556568
 H   -0.7158609602    1.7971860644   -0.4826636677
 H   -0.7151522946   -0.2940761102   -1.9670902251
 H   -2.1222152799   -0.8841993366   -0.0676835147
 H    1.1617238841   -2.7802864697    1.9246363208
 H    1.1052439600   -2.6959033541    0.1082265363
 H    0.9542916044   -0.2450454861    2.1060730413