24

 C    0.0413733973    1.5740043348    0.1634152185
 C    0.0294465983    0.0551145457   -0.0372017781
 C    0.8440736475   -0.4382798354   -1.2463340081
 C    2.3433743157   -0.1374272264   -1.1127831964
 C    0.6073541499   -1.9409261495   -1.4728154905
 C    1.1275380650   -2.4234336492   -2.8260485117
 O    1.0634562558   -1.7360547060   -3.8317014827
 N    1.6415948484   -3.6887641613   -2.8267114354
 C    2.1244343659   -4.3375048122   -4.0294964807
 H    1.0417948596    1.9504753953    0.3968695032
 H   -0.3069134694    2.0922709973   -0.7370336454
 H   -0.6168631388    1.8633691065    0.9887520461
 H    0.3977418463   -0.4373819193    0.8742997856
 H   -1.0104186281   -0.2755094042   -0.1591027674
 H    0.4757653899    0.0700190720   -2.1457222207
 H    2.8904807800   -0.4908517406   -1.9914406776
 H    2.5332455058    0.9353528474   -1.0211089651
 H    2.7656487885   -0.6274001924   -0.2260469753
 H    1.0463317542   -2.5268709447   -0.6543973161
 H   -0.4713217264   -2.1469196829   -1.4601809839
 H    1.6649634938   -4.1973290503   -1.9590208426
 H    2.0294173926   -3.6176416820   -4.8432007844
 H    3.1757321421   -4.6299252789   -3.9302470655
 H    1.5348580360   -5.2296031339   -4.2707346659