20

 C   -0.0368787353    1.3916053191   -0.2759083418
 C    1.2710632515    0.7138006063   -0.0372378519
 C    2.0307087701    0.8352328702    1.2878350311
 C    1.5234033570    1.9242295694    2.2562787546
 C    0.3580496366    1.2037314427    2.9829145630
 C    0.4692021360   -0.2529902472    2.4601498739
 C   -0.4351255541   -0.5924837600    1.2547934639
 N    0.0089525473   -0.0452542791   -0.0347351748
 O    1.8297262417   -0.3712087173    2.0371871828
 H   -0.4285712433    2.0514936238    0.4936186261
 H   -0.3212852792    1.6755394244   -1.2867381220
 H    1.9019247798    0.4994390040   -0.8977395439
 H    3.1008529801    0.9144532496    1.0863809948
 H    2.3191942295    2.1715748913    2.9627932408
 H    1.2298623404    2.8457180604    1.7508721373
 H    0.4960215245    1.2300931454    4.0660482350
 H   -0.6201494123    1.6427402129    2.7704349758
 H    0.3041938550   -0.9923664378    3.2482193926
 H   -0.4322456556   -1.6824425954    1.1416835678
 H   -1.4707707897   -0.2870962027    1.4436604452