13

 O   -0.2076199939    0.3275771758    0.8462061628
 C    0.3286075117    0.7452430938   -0.1467298918
 C    1.3873036649    1.8036834756   -0.1129566087
 O    2.3156817926    1.7865817915   -1.1956083357
 C    1.4038529119    2.8835853593   -1.1451376646
 C    0.4177758583    2.9952703967   -2.1808975888
 C   -0.4023069238    3.1479605375   -3.0581869401
 C   -1.3272560757    3.3081392248   -4.0410011741
 C   -2.1487129907    3.4511504378   -4.9141221390
 H    0.0883117410    0.3768418221   -1.1654599810
 H    1.7956000818    2.0286273638    0.8711780323
 H    1.8574915102    3.8250603825   -0.8351312914
 H   -2.8719841985    3.5752602889   -5.6822293999