21

 O    0.3145393892    1.2438777471    0.0769109676
 C   -0.0230034440   -0.0985237603   -0.0797564416
 C   -0.5288877466   -0.9471445035    1.0618224427
 C   -1.4531137667   -0.5852988098   -0.0912727580
 C   -2.6202398935    0.3589583187    0.1056340874
 O   -2.2447054777    1.3124878108    1.0961977705
 C   -3.1804108962    0.9168973420   -1.2395858949
 C   -4.2841058837   -0.1747986815   -1.1904621104
 C   -3.9801956106   -0.3723232679    0.3197846971
 H   -0.4133112716    1.6580222429    0.5621096582
 H    0.6594268880   -0.5688706882   -0.7815056171
 H   -0.1884913025   -1.9727578134    1.1594569980
 H   -0.7085157232   -0.4337537509    1.9999546246
 H   -1.6819972373   -1.3783500248   -0.7985671256
 H   -2.9517380223    1.9605049955    1.1743814838
 H   -3.5991145909    1.9201326890   -1.1025994174
 H   -2.4993893270    0.9379567047   -2.0929855174
 H   -5.2972919793    0.1309768117   -1.4570487079
 H   -4.0242741050   -1.0542337383   -1.7846149548
 H   -3.9436060909   -1.3881917307    0.7198875285
 H   -4.6476109083    0.2266330868    0.9489874769