21

 C   -0.3449456809    0.9765770596   -1.9147764618
 C   -0.0681115219   -0.1784467204   -0.9775830578
 C    1.2925338389   -0.5316792764   -0.4666603782
 C    2.5395677531    0.2324506003   -0.8331150693
 O    2.9843825055   -0.2730223316   -2.0861638814
 C    0.2552342177    0.0348367839    0.5110531654
 C    0.3714316478    1.4116153607    1.1325386457
 C   -0.3427791507   -0.9874142768    1.4091490874
 O   -0.7276856207   -0.7796087610    2.5337960985
 H    0.2956553934    1.8405195908   -1.7277314530
 H   -0.1778960528    0.6640733039   -2.9505558276
 H   -1.3840409380    1.3096248257   -1.8252236929
 H   -0.7082106397   -1.0374896675   -1.1690774550
 H    1.4892099769   -1.5968539454   -0.3638381475
 H    2.3463079663    1.3121168416   -0.8903036207
 H    3.3003581452    0.0811511926   -0.0513687635
 H    3.8324996480    0.1338342814   -2.2879719764
 H    0.7546009363    2.1589988256    0.4370206972
 H   -0.6083372533    1.7449354942    1.4862545913
 H    1.0320361989    1.3844709679    2.0043829724
 H   -0.4201434500   -2.0044035193    0.9546991973