19

 O   -0.0526068427    1.4255260460    0.0704506670
 C    0.0270684294    0.0081118318   -0.0022945880
 C    0.8598760704   -0.5304634799    1.1735510037
 O    0.7916642289   -1.9373571510    1.3405552472
 C   -0.4464996450   -2.5432454647    1.0843860012
 C   -1.8233120131   -2.1079490243    1.5209149573
 C   -2.0525247988   -0.5959878719    1.4696340536
 C   -1.3892161887   -0.5505458764    0.0547698744
 C   -1.3859764871   -2.0946912960    0.0258987087
 H    0.8384513102    1.7838200292    0.0004850263
 H    0.4847694679   -0.3099525617   -0.9531634199
 H    1.9211235345   -0.2979283425    1.0254797507
 H    0.5332722053   -0.0115217548    2.0852268396
 H   -0.3062513257   -3.6178341930    1.1514587889
 H   -2.4786735967   -2.8104704874    2.0247191407
 H   -3.1185800551   -0.3697882632    1.3903726599
 H   -1.6302379438    0.0225473733    2.2654325201
 H   -2.0103714421   -0.0733499089   -0.7039312376
 H   -1.7048362680   -2.7098124843   -0.8075211737