20

 C    0.1357382875    1.5212526972    0.0657450318
 C    0.0701276167    0.0088375054   -0.0514000554
 C    0.8250796755   -0.6045520471   -1.2539182663
 C    1.3345406185   -1.9312900973   -0.6989012528
 C    2.5430322340   -1.8787337989    0.2227719644
 C    1.1488428893   -1.8631358281    0.7932614020
 C    0.6021689786   -2.9620521224    1.6625472560
 O    0.6706344172   -0.5732776003    1.1159224916
 H    1.1771053367    1.8550106779    0.1122480323
 H   -0.3442849103    1.9928278573   -0.7977738193
 H   -0.3751326837    1.8616469417    0.9707713901
 H   -0.9850582899   -0.3087209776   -0.0965937587
 H    0.1617793446   -0.7459629659   -2.1119357780
 H    1.6449682645    0.0485898847   -1.5757262752
 H    1.1422667374   -2.8465989427   -1.2469807788
 H    3.1312429530   -2.7852803675    0.3274362068
 H    3.1109036557   -0.9552183191    0.2699729017
 H    1.0051334751   -3.9331901045    1.3598842434
 H    0.8710914056   -2.7956960747    2.7110832725
 H   -0.4902781958   -3.0057700881    1.5970279119