21

 C    0.3036676543    1.3551808027   -0.0162047752
 C    0.2083884031   -0.1721998699    0.0174894452
 C   -1.2446425579   -0.6549033695   -0.0209902336
 C   -1.3890338837   -2.1665214741    0.0102246739
 N   -0.3388299737   -2.8841681930    0.0629446474
 N   -2.7005511217   -2.6983604194   -0.0215178275
 C   -2.8746808373   -4.1481569041    0.0074564132
 C   -3.8475190480   -1.9240753529   -0.0796120503
 O   -4.9723643742   -2.3694828068   -0.1074775179
 H    1.3473140258    1.6821306034    0.0120649082
 H   -0.1474436762    1.7670830376   -0.9263851107
 H   -0.2086788635    1.8098836862    0.8395624415
 H    0.7533537439   -0.6066280250   -0.8255655559
 H    0.6931980334   -0.5643930572    0.9161852023
 H   -1.7944973325   -0.2225690480    0.8256722054
 H   -1.7342876307   -0.2646380773   -0.9232562988
 H   -0.5397588677   -3.8818639297    0.0800844998
 H   -2.4530843727   -4.5716208443    0.9245366909
 H   -3.9444439823   -4.3456450067   -0.0241944197
 H   -2.3925261872   -4.6144938291   -0.8575039704
 H   -3.6430170511   -0.8461607927   -0.0986347877