15

 C    0.1007723230    1.5522633256   -0.0649571730
 C   -0.0344074026    0.0341403674    0.0540765665
 O    0.5810579001   -0.6016184440   -1.0721677648
 C    1.4866612098   -1.6125171246   -0.6597881100
 C    1.5295099505   -1.4928855626    0.8505544282
 C    0.6566187436   -0.5642728975    1.2470364960
 C    2.3745411081   -2.2871237439    1.6666687716
 N    3.0783332535   -2.9524844545    2.3020855569
 H    1.1536762747    1.8469535017   -0.0498844320
 H   -0.3426056588    1.8880568853   -1.0059212964
 H   -0.4191302610    2.0512005701    0.7591157753
 H   -1.1073355987   -0.2247231393    0.0720446018
 H    1.1346976353   -2.6073499098   -0.9730636817
 H    2.4704765585   -1.4483671305   -1.1198191296
 H    0.4533877539   -0.2704547035    2.2682661011