18

 C   -0.0759319745    1.5725955252   -0.0213064945
 C    0.0204195717    0.0397292326   -0.0188517331
 C    0.8266146146   -0.5111400134   -1.2375599570
 C    1.5049383858   -1.7791255912   -0.7052892827
 C    1.6205384348   -1.5437893065    0.8032760776
 O    2.2570723287   -2.1864841477    1.6054544104
 N    0.8445666976   -0.4435741723    1.0914309089
 C   -1.3303462307   -0.5470092303    0.0307612898
 C   -2.4350549904   -1.0185253630    0.0825562480
 H    0.9280246274    2.0055272999   -0.0186094194
 H   -0.6127352361    1.9152318096   -0.9103099135
 H   -0.6185964895    1.9320697196    0.8577157019
 H    0.1787983520   -0.6787900633   -2.0986126743
 H    1.5775369992    0.2354638920   -1.5127505567
 H    0.8846477569   -2.6697777205   -0.8537687846
 H    2.4841990134   -1.9829782415   -1.1410257488
 H    0.5987808406   -0.2514321555    2.0514377955
 H   -3.4076780815   -1.4428724937    0.1310010625