17

 C    0.0002174525    1.5191352854    0.0382680128
 C    1.3305920610    0.7937948808   -0.0009428774
 C    0.0373907874    0.0156819893   -0.0103686291
 N    0.0052085158   -0.6654925402   -1.3199750105
 C    0.6268374498    0.2966975230   -2.3419812219
 C    1.2428392013   -0.9140008420   -3.0628084815
 C    1.4551732503   -1.1304848050   -1.5601848678
 C    1.8432899778    0.3864191601   -1.3732671468
 H   -0.2850279548    1.9550058668    0.9908944405
 H   -0.3355704974    2.0920150041   -0.8185274895
 H    2.0052233305    0.8289744599    0.8460783300
 H   -0.3262587378   -0.5727196908    0.8231759616
 H    0.0461128125    1.1075032326   -2.7838150607
 H    0.5367955219   -1.5865394048   -3.5511203140
 H    2.1316215232   -0.7244738018   -3.6667877144
 H    1.8622894065   -1.9970401363   -1.0348728633
 H    2.8039564098    0.7693784489   -1.7254189081