21

 C   -0.5112701062    1.4052418796   -0.4095386880
 O   -0.6686628421    0.0129151029   -0.5500483348
 C   -1.0105656187   -0.6209565772    0.6624996179
 C   -1.1049925400   -2.1333440080    0.4589814074
 O   -1.0626228074   -2.6709324787    1.7686250923
 C   -2.3910974753   -2.5922576799   -0.2887852239
 C   -2.4274795429   -2.1711506224   -1.7710485877
 C   -2.5204662069   -4.0448638171   -0.1599206404
 C   -2.5782764148   -5.2409031078   -0.0361367617
 H   -0.2365958855    1.8041949644   -1.3888630702
 H   -1.4415421133    1.8905083845   -0.0745578889
 H    0.2825989234    1.6521448397    0.3125605209
 H   -0.2410727844   -0.4378160971    1.4281291945
 H   -1.9646464252   -0.2319634987    1.0572387611
 H   -0.2318679175   -2.4536057100   -0.1322001299
 H   -1.2679889074   -3.6115906890    1.6984147209
 H   -3.2407358314   -2.1324918796    0.2353413112
 H   -2.3464341728   -1.0880328325   -1.8607893364
 H   -1.5931434070   -2.6211332061   -2.3171814433
 H   -3.3574758243   -2.5075281695   -2.2365476133
 H   -2.6571289303   -6.2960975874    0.0563472922