15

 C    0.0056742416    1.5211837706   -0.0685778968
 C   -0.0032952076    0.0236825856    0.0017711329
 C   -1.1089304490   -0.7100758216    0.2043652822
 N   -1.0686508229   -2.0911016633    0.2617121303
 C    0.0854888684   -2.8290525519    0.1205850563
 O    0.1307960498   -4.0262291242    0.1698671372
 O    1.2115595145   -2.0868861438   -0.0857273653
 C    1.2591947943   -0.6867875021   -0.1584553634
 N    2.3672830989   -0.1085425578   -0.3551107595
 H    0.6613932467    1.9424834829    0.6997492017
 H    0.3984812979    1.8627458826   -1.0312745563
 H   -1.0010212202    1.9260287113    0.0657251781
 H   -2.0903661164   -0.2704065540    0.3340782257
 H   -1.9045533412   -2.6310987824    0.4149923393
 H    3.1232551552   -0.7886457019   -0.4392013822