20

 O    0.0052804995    1.5045516551    0.3560012724
 C    0.0115019556    0.0847053079    0.3966688133
 C   -1.3499521610   -0.4790276671    0.0390358786
 C   -2.5621624717    0.3814156595   -0.0234062138
 N   -2.0337883289   -0.2484878591   -1.2360403338
 C   -1.4278358040    0.6061672120   -2.2399460110
 C   -0.6590180920   -0.1412144886   -3.3515435302
 O   -1.5075037217    0.4149011737   -4.3757490719
 C   -2.3754990666    1.0121249438   -3.3890198400
 H    0.9077537609    1.8125626444    0.4820614258
 H    0.7702252041   -0.3259713216   -0.2893934011
 H    0.2628841001   -0.2759865646    1.4067923097
 H   -1.4627448792   -1.5033212789    0.3925194727
 H   -3.5230369279    0.0100024152    0.3227251746
 H   -2.4010599617    1.4483423323    0.1068195353
 H   -0.8699659428    1.4473100561   -1.8164386143
 H    0.3931798575    0.1323473265   -3.4976108874
 H   -0.7502595449   -1.2329571312   -3.2841385029
 H   -3.3524220971    0.5150026697   -3.3405773459
 H   -2.5144184480    2.0857736248   -3.5612370301