18

 C   -0.0368612982    1.4077485647   -0.0418748273
 C    0.0084154820   -0.0823407278    0.0109619807
 N   -0.0317879221   -0.8333002122   -1.0911205106
 N    0.0551756918   -2.0768060474   -0.5707488745
 C   -0.0128347628   -3.3995675041   -1.1581111694
 C    0.3910300470   -4.2824798586    0.0595970825
 C    0.1475339393   -3.4159354410    1.3370265397
 C    0.1228148680   -2.0327471766    0.7683698115
 N    0.1012488927   -0.7827317270    1.1891972943
 H    0.8736962729    1.8395797957    0.3859012841
 H   -0.1361714886    1.7441667871   -1.0752661529
 H   -0.8806767693    1.7901416387    0.5409767017
 H   -1.0276041843   -3.6094728732   -1.5156162288
 H    0.6737068713   -3.4956976648   -2.0025943429
 H   -0.1652896722   -5.2209671067    0.0793835473
 H    1.4528760199   -4.5304643752   -0.0140623387
 H   -0.8098860224   -3.6533086234    1.8149085851
 H    0.9264119951   -3.5554580584    2.0900690181