19

 O   -0.1875884951    1.4783230050   -0.1883484895
 C    0.0086599756    0.0798152401   -0.0017972542
 C   -1.3862048979   -0.5451665459    0.1140832915
 C   -1.3495162842   -2.0702432650    0.0431505247
 C   -1.7471230821   -2.7872594182   -1.2376891582
 C   -0.3038842959   -2.7182156408   -0.8340199816
 O    0.2397909342   -3.9561605969   -0.4463681527
 C    0.6419692607   -1.8042586154   -1.5274431834
 C    0.7935954060   -0.5369984824   -1.1434985017
 H    0.6737757315    1.9074940130   -0.1784308186
 H    0.5610426823   -0.0936747337    0.9392441725
 H   -1.8568537326   -0.2112893918    1.0436331565
 H   -1.9844602494   -0.1324644768   -0.7056496419
 H   -1.5721335215   -2.6058710329    0.9602474002
 H   -2.2229687618   -3.7573545417   -1.1449850221
 H   -2.0760993221   -2.1840822348   -2.0772001745
 H    0.9568363740   -3.7762868277    0.1722881541
 H    1.2249468890   -2.2252823170   -2.3433370929
 H    1.5038891493    0.1145776430   -1.6491304382