17

 C   -0.0244463107    1.5496512924    0.0824561374
 C   -0.0440708752    0.0183337156    0.0033471735
 O    0.6664914303   -0.5729823237    1.0852265504
 C   -1.4436397429   -0.5168178162   -0.0753948934
 N   -2.0459839015   -1.0740008098   -1.0794427333
 C   -3.3182292603   -1.3732473968   -0.6081245123
 N   -4.2573940032   -1.9298115815   -1.4662101472
 C   -3.4150151484   -0.9762718597    0.6886177557
 O   -2.2004010355   -0.4140348012    1.0361846705
 H    1.0091797592    1.8977095531    0.1533745692
 H   -0.4897110356    1.9929776911   -0.8032175794
 H   -0.5733345519    1.8958371239    0.9646438744
 H    0.4670814092   -0.3122071292   -0.9043956615
 H    0.1712082450   -0.3874815319    1.8911837859
 H   -3.8157703987   -2.4265963290   -2.2281315361
 H   -4.9517505687   -2.5036981782   -1.0092336403
 H   -4.1739187712   -1.0026086790    1.4489871565