21

 C   -0.1184880983    1.6017179581    0.0705481166
 C    0.0286509807    0.0861250142    0.0292013052
 C    1.1119352271   -0.5344847339   -0.9415716291
 O    1.9828513410    0.3353925013   -1.6385221650
 C    1.7568478430   -1.2216369991    0.2493778533
 O    2.2495546420   -2.5161281755    0.2264933896
 C    2.1581750865   -0.2185109749    1.2955202680
 C    0.7070888941   -0.6483965284    1.2007279342
 C   -0.0173988359   -1.3148768206    2.3343345360
 H    0.8408691459    2.1010293469    0.2270340634
 H   -0.5360971367    1.9801524373   -0.8698468678
 H   -0.7957639841    1.9073326739    0.8751277449
 H   -0.9458329282   -0.3710715323   -0.1780669702
 H    0.6613534468   -1.2712043893   -1.6191051193
 H    1.5017145223    0.7144146133   -2.3809331280
 H    3.1921430936   -2.4765852410    0.0306974679
 H    2.6909922056   -0.6612341984    2.1319445801
 H    2.4895081907    0.7792351580    1.0249821628
 H   -0.3847300690   -0.5838359613    3.0643524184
 H   -0.8808087657   -1.8841471637    1.9710876725
 H    0.6419338088   -2.0111214648    2.8623908967