16

 O    0.2666119826    0.2006440797    0.6154643617
 C    0.1248168790    1.3049425831    0.1701448872
 O   -1.0547589712    1.9862986824    0.2263842080
 C   -0.8858111319    3.3325656918   -0.2242579606
 C    0.6174200767    3.4690055880   -0.5671730978
 C    1.5362927950    4.2106712700    0.3812198809
 C    2.5524921042    3.4308950252    0.7448219862
 C    2.4400018472    2.0578071514    0.1172742867
 N    1.0894013478    2.0823107240   -0.4664384101
 H   -1.5194755987    3.4904800095   -1.1013668054
 H   -1.2047905322    4.0125031043    0.5712515991
 H    0.7311684697    3.8609456832   -1.5870278602
 H    1.3902921404    5.2497956837    0.6493051501
 H    3.3868272582    3.7176362651    1.3727174975
 H    3.2046304145    1.9056471343   -0.6560601094
 H    2.5119806388    1.2251685242    0.8230955960