17

 C    1.0324624932    1.0366801187    0.1973862286
 N   -0.0487110129    0.1118676693   -0.1247359135
 C   -0.7598876370   -0.5060577408    0.8852547540
 O   -0.5664667630   -0.3474309816    2.0663690339
 C   -0.3638997397   -0.1479592424   -1.4483909979
 N    0.2704111553    0.4035042934   -2.3964621435
 C   -0.0955130148    0.1004506538   -3.7766587392
 C   -1.1954558207   -0.8412032024   -4.0002647988
 C   -2.1014249257   -1.6169897114   -4.1545412941
 H    1.9703547610    0.6789563975   -0.2340171184
 H    0.8184490986    2.0219728039   -0.2234629232
 H    1.1045673208    1.0899835850    1.2823505445
 H   -1.5444026685   -1.1738165169    0.4845019347
 H   -1.1890961921   -0.8547077829   -1.5777360332
 H   -0.3306548322    1.0519770406   -4.2718914805
 H    0.8052189946   -0.2723783485   -4.2822582935
 H   -2.8990565667   -2.2996097954   -4.3164576999