18

 O   -0.1359538621   -0.0110491799   -0.2961157236
 C   -0.0483683055    1.1764878218   -0.0671573651
 N    1.1117377959    1.8513180076    0.1631589994
 C    2.4162863648    1.2284095738    0.1305791693
 C    3.5913945590    1.9745711407   -0.4845570350
 C    4.2410600265    2.8215127548    0.6246353451
 C    3.4404338990    2.6013352443    1.9079624027
 C    3.2787588537    1.1346180909    1.4294067638
 C    4.5462784281    1.3495404483    0.5076688080
 H   -0.9293019239    1.8485775708   -0.0235308235
 H    1.0547554374    2.8441583234    0.3248040005
 H    2.2868771762    0.2409565586   -0.3130773748
 H    3.7701778307    2.1873270932   -1.5308365938
 H    4.8863703314    3.6523982475    0.3701854973
 H    4.0872540047    2.6603272991    2.7870953399
 H    2.5305236711    3.1866481283    2.0921170034
 H    3.1144313095    0.3249165022    2.1362792852
 H    5.4622722438    0.7982440946    0.3616116912