25

 C   -0.1524056129    1.5575221237    0.1200826312
 C   -0.0793389118    0.0326313213    0.0049487056
 C    0.7533150045   -0.4430412185   -1.1914247354
 C    0.8252785906   -1.9705010404   -1.3022658130
 C    1.5628626877   -2.4994403124   -2.5452612084
 C    3.0448127024   -2.1066227359   -2.5703901736
 C    1.3971991437   -4.0388924176   -2.6263470358
 C    1.9163177031   -4.6273597527   -3.8550962921
 C    2.3404046628   -5.0936431083   -4.8791946675
 H    0.8456287174    1.9943563950    0.2378208776
 H   -0.6018044868    2.0010052632   -0.7755089382
 H   -0.7536483291    1.8658100331    0.9811660167
 H    0.3436905565   -0.3850696763    0.9283317125
 H   -1.0945085093   -0.3785543922   -0.0745838518
 H    0.3252996171   -0.0314905922   -2.1165654765
 H    1.7634113622   -0.0224495726   -1.1109781069
 H    1.3046145079   -2.3786383146   -0.4002089646
 H   -0.1989498192   -2.3687334888   -1.3055825159
 H    1.0787536918   -2.0758769771   -3.4357638447
 H    3.5456703443   -2.5411228343   -3.4397944742
 H    3.1742335293   -1.0220005920   -2.6156207804
 H    3.5583707293   -2.4679721474   -1.6706165366
 H    1.8970723914   -4.4987722430   -1.7623105012
 H    0.3333670974   -4.2917653674   -2.5307411962
 H    2.7130831598   -5.5162351025   -5.7789598804