19

 C    0.0306012922    1.5472630327   -0.0068702717
 C    0.0339579569    0.0498673796   -0.0471058299
 C    0.6300540854   -0.8938553082   -1.1430133657
 C   -0.4399280483   -1.8903727775   -0.7546421387
 C    0.9076932957   -1.8857964203   -0.0362455325
 C    0.5977412587   -0.8742282459    1.0982762503
 O    1.6226251274   -0.4151753151    1.9173425995
 C   -0.8433485777   -1.1673567106    1.5985582947
 C   -1.2286808175   -0.8913306417    0.1257128135
 H    1.0530844018    1.9396916544    0.0199930383
 H   -0.4701375817    1.9669783211   -0.8868680220
 H   -0.4898657081    1.9175850529    0.8834133802
 H    1.1327141920   -0.7190445099   -2.0853661348
 H   -0.8062888398   -2.7457481152   -1.3078327513
 H    1.5807045346   -2.7343971819   -0.0242656742
 H    1.9993480769   -1.1657186467    2.3897413732
 H   -1.0693032774   -2.1504900314    2.0240087636
 H   -1.1925416216   -0.3763588886    2.2695953150
 H   -2.2344592997   -0.6006057380   -0.1742656876