15

 O    0.1050817416    1.3852392070   -0.0991972366
 C    0.0784792146    0.0250726948   -0.0319385119
 C    0.0380594331   -0.7964128173   -1.1332113905
 N   -0.0126875835   -2.1006514654   -0.6679911520
 C    0.0475918763   -3.2750989806   -1.5023033278
 C    1.4164236054   -3.6483369001   -1.9028744267
 N    2.4856622853   -3.9484406757   -2.2195934672
 C    0.0177874645   -2.1002596879    0.7018013939
 C    0.0655983245   -0.7950018573    1.1327498860
 H    0.1677581577    1.7350992432    0.7939823426
 H    0.0391006096   -0.5691911363   -2.1856077334
 H   -0.4015459849   -4.1173668600   -0.9671672093
 H   -0.5488661530   -3.1142694891   -2.4066276285
 H    0.0028842876   -3.0260198255    1.2546764881
 H    0.0704771711   -0.4629283799    2.1602640733