17

 C   -0.0847561031    1.5616039357   -0.0771112737
 C    0.0101658524    0.0471391286   -0.0176032834
 O    0.8921842945   -0.4644530927   -1.0509915306
 C    1.8591995764   -1.1873771304   -0.3308839531
 C    1.2214163971   -1.9500941067    0.8607276475
 O    2.4200103089   -1.7351091533    1.6857612198
 C    2.2470941575   -0.4551300095    0.9807670640
 C    0.6932787463   -0.5161004759    1.2204620980
 O    0.1207442376   -0.2217225567    2.4346908020
 H    0.8992491655    2.0208119307    0.0584242259
 H   -0.4822336874    1.8798618930   -1.0445446798
 H   -0.7497516679    1.9249509724    0.7120493304
 H   -0.9828749175   -0.4007392478   -0.1537456996
 H    2.6078389178   -1.6496333310   -0.9685791911
 H    0.7257629902   -2.9191255538    0.9120222962
 H    2.9669302843    0.3393272553    1.1742754793
 H    0.6723381174   -0.6467238180    3.1064298681