18

 C   -0.0263536673    1.5624003785    0.1209383297
 C   -0.1133947155    0.0436436643    0.2770379127
 C   -1.4760504580   -0.5116574637   -0.1858349772
 O   -1.7380803807   -0.1681235675   -1.5328901148
 C   -1.5469232852   -2.0014292785    0.0295126504
 N   -1.5551669369   -2.7958229781   -1.0128399378
 O   -1.5851937262   -4.0930450427   -0.5171840968
 C   -1.5971261267   -4.0344690187    0.8221686409
 C   -1.5731877362   -2.7466620569    1.2454632805
 H    0.9627445518    1.9304875441    0.4087669631
 H   -0.2147820074    1.8482408516   -0.9165687317
 H   -0.7680966536    2.0681187697    0.7495765359
 H    0.6705410411   -0.4463978827   -0.3133796699
 H    0.0518271519   -0.2438087601    1.3232388599
 H   -2.2621790130   -0.0395435250    0.4223049690
 H   -1.5490183974   -0.9442853779   -2.0748030309
 H   -1.6265296742   -4.9850903932    1.3320396136
 H   -1.5794071565   -2.3785523631    2.2575836734