17

 C   -0.2064290224    1.5621289357    0.0240334358
 C    0.0090815688    0.0424432483   -0.0246004801
 C    0.8385288801   -0.4188297045   -1.2689104442
 C    2.0643186311   -0.4513829732   -0.3131746896
 N    1.1351727246   -0.4410621239    0.8354937251
 C    2.9529906228   -1.6120830174   -0.3823136337
 N    3.6645570484   -2.5196571707   -0.4559363388
 C   -1.2472966323   -0.6608017835    0.2081553028
 C   -2.2957149137   -1.2211876593    0.3846183352
 H    0.7280635417    2.0944197817   -0.1823120535
 H   -0.9509064154    1.8706920897   -0.7155799566
 H   -0.5692695625    1.8623769147    1.0118044694
 H    0.5542625019   -1.4097502228   -1.6185245759
 H    0.8907577525    0.2781685033   -2.1047782623
 H    2.6819322009    0.4510271479   -0.4145236245
 H    1.3916808931    0.1697997144    1.6046523982
 H   -3.2132649595   -1.7313121104    0.5465622624