16

 N   -0.3688556035    1.3168499836   -0.6436704225
 C   -0.1142064000    0.1863543938   -0.1720941790
 O    1.0654964503   -0.3502019373    0.3365856192
 C    0.4276514435   -1.6357007632    0.6078170987
 C    0.4057067035   -1.9598289899    2.0842521408
 O    0.1968523297   -3.0663982881    2.5080383713
 C   -0.8883539229   -1.0633632697    0.0579879117
 C   -2.3037856734   -1.2048769665    0.5524560142
 C   -1.9347933900   -1.6866875276   -0.8211561455
 H    0.4477404759    1.9283876608   -0.6418113437
 H    0.8807223552   -2.4457032788    0.0306635986
 H    0.5576831814   -1.0791377268    2.7460846454
 H   -2.4865443087   -1.9472206616    1.3221313313
 H   -2.8775237603   -0.2896174799    0.6445082788
 H   -2.2521232499   -1.1012086853   -1.6769576427
 H   -1.8700179407   -2.7561177534   -0.9898543266