14

 N    0.0036798008    1.0054196895   -0.8340370928
 C   -0.0227547719   -0.0149064449   -0.0780674260
 N    1.0939523084   -0.5649283855    0.5519879337
 C    1.4370907860   -1.7941836338    0.4015899469
 C    0.7289300362   -2.8534508659   -0.2788949450
 C   -0.6131634444   -2.9053084243   -0.4319283503
 N   -1.5358170382   -1.9670580037   -0.0418114958
 C   -1.3916503877   -0.5996640844    0.2303764917
 O   -2.3287001750    0.0383870532    0.6377060505
 H    0.9715790741    1.3246762898   -0.9366878329
 H    2.3845091349   -2.0810920498    0.8642921732
 H    1.2958415938   -3.7278839927   -0.5757887155
 H   -1.0650600549   -3.7945715676   -0.8595256419
 H   -2.5052119723   -2.2538327299   -0.0078815757