18

 N   -0.0576310066   -1.1464307168   -0.3521532659
 C   -0.0281902497   -0.0026539468   -0.1929015787
 C    0.0124893990    1.4435864158    0.0238992059
 C    1.4227853394    2.0007482308    0.0644593281
 C    1.7124820956    3.5179800479    0.1562775801
 C    2.9624426707    3.0037759542   -0.5912780354
 C    3.7149301116    2.1728885857    0.4681734621
 C    2.4836229873    1.3729189288    1.0003233090
 O    2.1135243741    1.9920462350   -1.2239586783
 H   -0.5507681729    1.9388586296   -0.7737552919
 H   -0.4918615316    1.6700582310    0.9707533334
 H    1.0568522395    4.0985698265   -0.4941584994
 H    1.8248952378    3.9831486647    1.1390863876
 H    3.5279174239    3.6103143723   -1.2971295700
 H    4.4662591811    1.5290197570    0.0077252782
 H    4.1991553913    2.7900030128    1.2294600073
 H    2.2712953781    1.5470560076    2.0586533824
 H    2.5683771416    0.2982311339    0.8310797856