14

 C   -0.0048383567    1.4744338515    0.0734938717
 C    0.0190787712   -0.0129004972   -0.0381921516
 C   -0.0849723318   -0.7686430366   -1.1829865241
 N   -0.0047003852   -2.0865210900   -0.7354495605
 C   -0.0058536264   -3.4213004148   -1.0271081178
 N    0.1250705110   -4.1532304064    0.0387082549
 O    0.2210649187   -3.2498315788    1.1282555075
 C    0.1385947208   -2.0069331181    0.6263796040
 N    0.1604004134   -0.8032458788    1.1071331123
 H    0.9214038238    1.8440082071    0.5256973339
 H   -0.1225423677    1.9417978731   -0.9073898958
 H   -0.8293386808    1.8014312279    0.7155469629
 H   -0.2007909096   -0.5088848331   -2.2199709202
 H   -0.1014822407   -3.8464137257   -2.0134910472