21

 C    0.0887636007    1.5415239626    0.0743066457
 C    0.0740771917    0.0406792789    0.0182570648
 C   -0.8927217838   -0.8012245177    0.8050191268
 C    0.5850513362   -1.0090155568    1.0295731183
 C    1.1645608400   -1.8536570631   -0.1104350451
 C    0.6442622554   -0.7957974628   -1.1368937336
 C    1.2200380461   -0.8191784734    2.3529082922
 C    2.0205102384   -1.8669167057    3.0044429335
 O    2.6543638071   -0.7483414127    2.3824823459
 H    1.0793156328    1.9402640156   -0.1717681281
 H   -0.6277808761    1.9694072210   -0.6380068172
 H   -0.1816910659    1.9093606448    1.0696401776
 H   -1.4138173707   -0.2779956114    1.6024496913
 H   -1.4858245984   -1.5794288979    0.3274127446
 H    2.2548691333   -1.8946629312   -0.0758042158
 H    0.7697798802   -2.8709876974   -0.2053285876
 H   -0.0816751212   -1.1435669812   -1.8798206766
 H    1.4615338306   -0.2922109604   -1.6591746033
 H    0.7328893113   -0.0880897658    3.0009688285
 H    2.0879053677   -1.9021445204    4.0913010587
 H    2.1616620045   -2.8223684649    2.5007664793