18

 N   -0.0528928206   -1.0818343824   -0.0647315451
 C    0.0144707416    0.0684292735   -0.1345579092
 C    0.0600237106    1.5306955538   -0.2319593369
 O    1.3598114775    1.9740567289    0.0601407240
 C    1.4780310221    3.3863854686   -0.0085559978
 C    2.9274439935    3.7532879412    0.2853103251
 C    3.1366801772    5.2472816265    0.2652614045
 C    4.3457188217    5.8620114661   -0.2940811097
 O    3.1166529511    5.8737551283   -1.0221968298
 H   -0.2523896462    1.8249743339   -1.2475582247
 H   -0.6811039045    1.9511279561    0.4681294056
 H    1.1924150522    3.7489916913   -1.0080831871
 H    0.7995308794    3.8587859179    0.7219909746
 H    3.2061068098    3.3537700662    1.2675262893
 H    3.5731226631    3.2784161097   -0.4599535288
 H    2.5958607146    5.8078184822    1.0308496617
 H    4.6815333976    6.8304350724    0.0735135707
 H    5.1271560992    5.2250956159   -0.7064302865