21

 C    0.0381148622    1.5913764437   -0.0052832025
 C    0.0531066538    0.0600605846    0.0447859676
 C    0.9121017426   -0.4519717227    1.2216070165
 C   -1.3789122469   -0.5417359272    0.0947658770
 C   -2.1947131590   -0.2092557022    1.3578707863
 C   -3.6149670366   -0.7159379573    1.2305761725
 O   -4.1446599887   -1.4814746402    1.9928095104
 C    0.6846161987   -0.4974224918   -1.2290283293
 O    1.0943331385    0.1564180785   -2.1516479855
 H    1.0476717188    1.9780554350   -0.1651877506
 H   -0.5819728249    1.9531951836   -0.8301953267
 H   -0.3419579245    2.0147858640    0.9287661562
 H    0.5095549792   -0.1061887883    2.1775084271
 H    0.9475338801   -1.5466658321    1.2479079837
 H    1.9390837563   -0.0818463467    1.1418569686
 H   -1.9317916742   -0.1907861507   -0.7867940438
 H   -1.3100545655   -1.6334775454    0.0018360213
 H   -1.7574089450   -0.6437131118    2.2596139829
 H   -2.2482574146    0.8802077646    1.4873161524
 H   -4.1625766027   -0.3216203322    0.3416947418
 H    0.7450220124   -1.6122139254   -1.2471259860