17

 N    0.0559174990    1.3224630585    0.1508531574
 C   -0.0226849321   -0.0471578103    0.0357190117
 N   -1.0971114993   -0.7318781416    0.1807534027
 C   -0.7198928349   -2.1377204801    0.0384702490
 C   -1.2964537539   -2.7215730831   -1.2749297638
 C   -2.7564163571   -2.7115520193   -1.3122528428
 N   -3.9111259250   -2.7322990043   -1.3458489294
 C    0.8409500558   -2.1577172824    0.0323969029
 N    1.1540628340   -0.7487770386   -0.2429103153
 H    0.7138511364    1.7670230682   -0.4733278802
 H   -0.8534304907    1.7626864528    0.1430840255
 H   -1.1199326911   -2.7266106873    0.8703882647
 H   -0.9161111758   -2.1436805381   -2.1247802027
 H   -0.9567509944   -3.7563131839   -1.4032441634
 H    1.2334603253   -2.4750713373    1.0060780032
 H    1.2602177813   -2.8164623015   -0.7350029255
 H    1.9936607926   -0.3846854718    0.1873016360