20

 C    0.0620914254    1.5303717061    0.1301079839
 C    0.0776012949    0.0303797096    0.0057763929
 N   -0.8312625597   -0.8154496252    0.8169682801
 C    0.6312079990   -0.8963647446    1.0210083022
 C    1.2493406406   -2.0595344441    0.2786205585
 O    0.7568390878   -1.9635641189   -1.0544401662
 C    0.3597538078   -0.6171858519   -1.3443270504
 C   -0.8216831290   -0.7073688471   -2.3037024665
 O   -0.4862813968   -1.4426914785   -3.4652777079
 H    0.9737094864    1.9698215897   -0.2889408163
 H   -0.7905678788    1.9652805821   -0.4035855755
 H   -0.0085394917    1.8371017557    1.1786869828
 H   -1.2361639497   -0.2435184657    1.5557811492
 H    1.0714897151   -0.5432054440    1.9479211203
 H    2.3480229124   -1.9812635953    0.3063409391
 H    0.9563786318   -3.0387402460    0.6711277807
 H    1.1898931961   -0.0804705830   -1.8334569336
 H   -1.6697072396   -1.1528034951   -1.7652258235
 H   -1.1105208900    0.2958796925   -2.6369961427
 H   -0.1242542918   -2.2785273763   -3.1483373872