20

 C   -0.0809508062    1.5456025353    0.0936781623
 C    0.0207404895    0.0076738226   -0.0109178638
 C    0.7025309372   -0.4654275372   -1.3033087333
 C   -0.0382047545   -0.0820887950   -2.5789070184
 O    0.6222593400   -0.7237194468   -3.6600150844
 C    0.7945997960   -0.4914738809    1.2155543907
 C   -0.0317822162   -0.8653641646    2.4332312168
 O    2.0017756140   -0.5658176240    1.2158929907
 H    0.9125024323    1.9975718406    0.0117978159
 H   -0.7128437870    1.9550377180   -0.6986747716
 H   -0.5143002354    1.8558183613    1.0501744952
 H   -0.9968035752   -0.4032523418    0.0387265214
 H    1.7240883606   -0.0757497302   -1.3382183611
 H    0.7921581266   -1.5577776478   -1.2886519769
 H   -1.0922693180   -0.4028470286   -2.5114215407
 H   -0.0391425444    1.0103116795   -2.7131706440
 H    0.1990151969   -0.4471464837   -4.4778708283
 H   -0.7715521154   -0.0913569231    2.6637302185
 H   -0.5929405099   -1.7835210021    2.2201059707
 H    0.6181613789   -1.0327257415    3.2929253205