22

 C   -0.0474843435    1.6056257315    0.1071882049
 C   -0.0047358352    0.0784128360    0.0060810214
 C   -1.4000892887   -0.5478982228   -0.0801864839
 O   -2.0862208964   -0.1472994352   -1.2660741064
 C   -1.4174468287   -2.0961263837    0.0941860788
 C   -2.8660027550   -2.5975018001    0.0932222983
 C   -0.5964162363   -2.8121768090   -0.9804476355
 O   -0.7848047002   -2.4257985377    1.3376241799
 H    0.9602178280    2.0318725822    0.0997801401
 H   -0.6083046413    2.0360988763   -0.7275105934
 H   -0.5374666823    1.9254419341    1.0336561230
 H    0.5727694359   -0.2144026208   -0.8824433709
 H    0.5149285286   -0.3540756824    0.8661878771
 H   -2.0122442906   -0.1379513603    0.7373732170
 H   -1.4911343601   -0.2945166628   -2.0090627077
 H   -3.3679281376   -2.3385218756   -0.8413265640
 H   -2.8925925191   -3.6821160777    0.2314847201
 H   -3.4341024365   -2.1332236531    0.9094604965
 H    0.4598705939   -2.5406293726   -0.9138385230
 H   -0.6731280665   -3.8945430271   -0.8475308991
 H   -0.9637236793   -2.5685519775   -1.9820777042
 H   -1.3658192793   -2.1333480518    2.0483726710