18

 C   -0.0121063565    1.5429739148   -0.1468385619
 C    1.5410352800    1.5605039632    0.1400723140
 C    1.4045159453    0.1192045755    0.6634842981
 C    0.9346667036   -0.4775850949    2.0031204329
 C    0.9099885285   -1.7472516754    1.2144080030
 C   -0.3532119689   -0.8457908475    1.2565826890
 C    0.0033557377    0.0005646440    0.0348312850
 C    0.6702328656   -0.9524663120   -0.9979780877
 N    1.7315503252   -1.2576341006    0.0459455248
 H   -0.5833675363    2.0470855174    0.6362845468
 H   -0.3408464015    1.9276526583   -1.1150990351
 H    2.1479430042    1.6206917526   -0.7670496274
 H    1.9121419433    2.3041078298    0.8491310102
 H    1.1672546872   -0.2871974307    3.0428677804
 H    0.9256135409   -2.7759047603    1.5462355053
 H   -1.2986364485   -1.2133140734    1.6384888389
 H    0.1158902440   -1.8230288195   -1.3606441772
 H    1.1269291560   -0.4291866613   -1.8427391390