17

 O    0.2190382586    1.3136572470    0.0524141392
 C    0.0650084131   -0.0861132206    0.0011428796
 C   -1.3766063569   -0.4668391367   -0.0186637874
 C   -2.4872508018    0.2846887532   -0.0104544132
 C   -3.6985404062   -0.6298441879   -0.0413415610
 O   -3.1829251698   -1.9526915855   -0.0706081771
 C   -1.7650322080   -1.9224811658   -0.0553088020
 C   -2.6667054925    1.6852343371    0.0201676846
 C   -2.9610768240    2.8533188425    0.0441417496
 H    1.1595316048    1.5128725152    0.0504774626
 H    0.5494786060   -0.5171063158   -0.8946893401
 H    0.5422683028   -0.5806999766    0.8675439201
 H   -4.3348603172   -0.4886958770    0.8449762175
 H   -4.3226354458   -0.4453610970   -0.9283089096
 H   -1.3661722863   -2.4332896060   -0.9481118213
 H   -1.3837302501   -2.4723548197    0.8218831343
 H   -3.1718188666    3.8934631035    0.0667312443