15

 C    0.2224584939    1.5361162781   -0.0581594780
 N    0.8303135559    0.2477487983   -0.3307522805
 C    0.1736445609   -0.7497024784   -0.9642715854
 O   -0.9530254939   -0.6930050373   -1.4216883718
 C    0.9605974039   -2.0397768988   -1.0873641313
 O    2.3152788954   -2.0732976840   -0.6373140910
 C    1.3585436828   -2.8421585613    0.0950171251
 C    1.0734356041   -2.4092136831    1.4462681720
 N    0.8570126846   -2.0939745412    2.5366022677
 H    0.8002314230    2.3464219639   -0.5142583759
 H   -0.7796143276    1.5244766440   -0.4881551345
 H    0.1494362777    1.7155668792    1.0193960548
 H    1.7748590744    0.0627650819   -0.0302023393
 H    0.7523971445   -2.5864411600   -2.0044604199
 H    1.4512031805   -3.9202573314   -0.0191217620