12

 O   -0.0086722493   -0.0872709416    0.0033977386
 C    0.0090699509    1.1262484490    0.0090499988
 N   -1.1539392528    1.8949201673    0.0280483722
 N   -1.2436663812    3.2269984452    0.0357094513
 C   -0.1051473120    3.8749320806    0.0238943819
 N    1.1467463368    3.2836012033    0.0046078977
 C    1.1957501514    1.9937424140   -0.0023101086
 C   -0.1517150482    5.2996883962    0.0315376802
 C   -0.1689830327    6.5015437101    0.0376907355
 H   -2.0390291575    1.4016213254    0.0372771954
 H    2.1651203752    1.4987044089   -0.0174335758
 H   -0.1871492007    7.5638102716    0.0431736427