19

 C    0.4914417737    1.5609060801    0.0399261486
 C    0.0910734138    0.0877600257   -0.0432628878
 O    1.0599511980   -0.5465190186   -0.8497258662
 C    0.6932956424   -1.7737343578   -1.4373768878
 C    0.7500529944   -2.9779990446   -0.5362309176
 C    0.5846574401   -3.0200078205    0.7855113198
 C    0.2447243310   -1.9111603698    1.7125387277
 O    1.2047612124   -0.8653844611    1.9960440300
 C   -0.0115368864   -0.5066138551    1.3538854306
 H    1.4725174579    1.6482671305    0.5145314465
 H    0.5476353241    1.9913239560   -0.9625361510
 H   -0.2344366061    2.1306779995    0.6273891771
 H   -0.9049701851    0.0046062074   -0.5146871795
 H   -0.3121772733   -1.6995096013   -1.8920633374
 H    1.3958538217   -1.9245200986   -2.2653881942
 H    0.9533844109   -3.9138788894   -1.0545228980
 H    0.6693398943   -3.9885813564    1.2731651754
 H   -0.2486155438   -2.2627652175    2.6205303881
 H   -0.7136507200    0.0411121716    1.9909663256