20

 C   -0.0092007301    1.4696836172    0.0590104034
 N    0.0139352829    0.0189146688    0.0225641440
 C   -1.3091289580   -0.5527222232   -0.1748208053
 C   -1.2607248854   -2.0729118346   -0.3019899365
 O   -2.1028376340   -2.6798787262   -0.9337030664
 C   -0.1866076603   -2.7420560445    0.4438043005
 C    0.7104119901   -2.0534540098    1.1658618728
 C    1.7571351054   -2.7106213950    2.0153335632
 C    0.6978253028   -0.5463424491    1.1711733320
 H    1.0131911456    1.8555233098    0.1283854251
 H   -0.4558319147    1.8535641368   -0.8631533398
 H   -0.5863294803    1.8758313509    0.9123651970
 H   -2.0074552554   -0.3113084524    0.6566277626
 H   -1.7536815594   -0.1501116569   -1.0888980680
 H   -0.1872738102   -3.8277610740    0.4155291302
 H    1.6462630458   -3.7969691229    2.0249727036
 H    2.7631287263   -2.4661216788    1.6516408537
 H    1.7038560012   -2.3479668300    3.0496843295
 H    1.7312207498   -0.1756124466    1.1785785431
 H    0.2544270678   -0.2109208294    2.1370213155