20

 C   -0.0850523159    1.0503203444    0.1261604105
 N   -0.4956583667   -0.2132896026   -0.4497921967
 C    0.3829148807   -0.8994129050   -1.0269900558
 O    0.0618138516   -2.0958727038   -1.5787022424
 C    1.0923449833   -2.7578519940   -2.2789603116
 C    2.1459424992   -3.5157184154   -1.5148858299
 C    1.0338587568   -4.2526597144   -2.2364410767
 C   -0.0768324245   -4.9084494842   -1.4354661355
 O   -1.3398432443   -4.7722060143   -2.0590694720
 H    0.9835962915    1.2815338943   -0.0131412896
 H   -0.6737220237    1.8623031544   -0.3152715009
 H   -0.2998396749    1.0502694177    1.2007285188
 H    1.4423698915   -0.6261488138   -1.1380720215
 H    1.3661702432   -2.2660398506   -3.2089705495
 H    3.1532830360   -3.5424721061   -1.9151049853
 H    2.0878934507   -3.4841450662   -0.4317048069
 H    1.2869037325   -4.7583531588   -3.1631668401
 H    0.1133426858   -5.9836735033   -1.3545850635
 H   -0.0886483065   -4.5000217744   -0.4152255929
 H   -1.5535344563   -3.8320751341   -2.0340490087