21

 C   -0.0590098005    1.6258329167   -0.0007712875
 C    0.0564589803    0.1129038117    0.0164494358
 C    1.1558787358   -0.6066850172   -0.8249302877
 O    2.3697843480    0.1446067065   -0.7221754096
 C    2.8937805846    0.1410531106    0.5913780842
 O    1.8998642839    0.1351188778    1.5974091565
 C    0.7428777559   -0.6150238250    1.2137053474
 C    1.1382501787   -1.7575257325    0.2279580251
 C    0.1052745939   -2.8599745553    0.0141953965
 H    0.9018907880    2.1034857436    0.1961923293
 H   -0.4179074952    1.9759588398   -0.9746980568
 H   -0.7697227753    1.9688507478    0.7589333360
 H   -0.9166782776   -0.3439045851   -0.1825642065
 H    1.0009805210   -0.8182294841   -1.8854261599
 H    3.5598329538   -0.7260327792    0.7227672222
 H    3.4760603320    1.0591180129    0.7130931770
 H    0.1877858634   -0.8346573971    2.1285983528
 H    2.1071679025   -2.2237450583    0.4223416526
 H   -0.8982223146   -2.4761135055   -0.1876746897
 H    0.3921137288   -3.4937366180   -0.8318152843
 H    0.0410460627   -3.5006313200    0.9002545768