21

 O    0.8353670687   -0.0679317278    1.2088648413
 C    0.2918588757   -0.1793991135   -0.1069867510
 C   -1.1602951023   -0.5961231901   -0.0664552871
 C   -1.9419814456   -1.2094813718   -1.2065320860
 C   -1.2274161382   -1.8282604563   -2.4027369509
 C   -0.3495047587   -2.9919205647   -1.8770205710
 O    1.0187849165   -2.6527029817   -2.0998080968
 C   -0.7106433186   -3.1779891226   -0.3717847737
 C   -1.6372234078   -2.0341771860    0.0280887467
 H    0.7135051090   -0.9219690204    1.6359668425
 H    0.3763842303    0.8244903581   -0.5382992541
 H    0.8900871523   -0.8549399025   -0.7278356959
 H   -1.7520641202    0.0861691362    0.5407571648
 H   -2.9403691791   -0.8212985294   -1.3782812500
 H   -1.9748781929   -2.2082116714   -3.1061621894
 H   -0.5959931225   -1.1268390083   -2.9564417815
 H   -0.5724977533   -3.9152909869   -2.4290287723
 H    1.5628975594   -3.3720657802   -1.7636502265
 H   -1.2320828441   -4.1295084443   -0.2221575399
 H    0.2089663534   -3.2271168758    0.2254267409
 H   -2.4131925823   -2.2558400804    0.7532355197