22

 C    0.0313611409    1.4831094490   -0.3473827043
 C    0.0334296573    0.0358365153    0.1638117371
 C   -1.3457294920   -0.5518283722    0.2330239923
 N   -2.0246714162   -0.9852702600   -0.9895246161
 C   -1.8819708969   -1.9562589348    0.1009793283
 C   -1.2123185541   -3.2691459811   -0.1714548893
 C   -2.9486778615   -1.6855648513    1.1739466281
 C   -2.4029138216   -0.2214568316    1.3014752805
 O   -1.7789408752    0.0660376352    2.5348563548
 H    1.0488997709    1.8818325965   -0.4020158328
 H   -0.4102974872    1.5393933253   -1.3472482543
 H   -0.5457640145    2.1342011461    0.3175483343
 H    0.6462742857   -0.5886582150   -0.4955753345
 H    0.4806325236   -0.0060384735    1.1628865090
 H   -2.9717812444   -0.6173193368   -1.0761463815
 H   -0.3919253762   -3.1414596011   -0.8825126226
 H   -0.8137599951   -3.7068788628    0.7500229079
 H   -1.9199190510   -3.9863896752   -0.6050404690
 H   -3.9919403053   -1.8248694071    0.8660673473
 H   -2.7692785241   -2.2283104640    2.1063865918
 H   -3.1072921329    0.5781860660    1.0207169543
 H   -2.4615347903    0.1415702831    3.2091083088