17

 C   -0.0195215886    1.4678658835    0.1351342661
 C    1.3301387880    0.7931142862   -0.0127846236
 O    2.1518819268    0.4234171659    1.0531308034
 C    2.3063021477   -1.0078718719    1.0655649966
 C    0.9184904519   -1.7374575577    0.8957126918
 O   -0.0553034605   -0.7295564395    1.1611450849
 C    0.0430518853   -0.0105611536   -0.0540631843
 C   -0.0193373803   -1.0746094983   -1.1183987681
 C    0.5697814105   -2.1313166080   -0.5550861974
 H   -0.3517379484    1.7893567996    1.1160323306
 H   -0.3184843949    2.1062063739   -0.6896292752
 H    1.8533157392    0.9685704909   -0.9533182218
 H    3.0138228455   -1.3231286055    0.2853139240
 H    2.7377227540   -1.2416585977    2.0414483033
 H    0.8100791723   -2.5497132840    1.6173334678
 H   -0.3699290271   -0.9511408107   -2.1331492208
 H    0.7983040487   -3.0879270930   -1.0046192373