16

 O   -0.0002055617    0.0135199033    0.0493817755
 C   -0.0244394731    1.2144455629    0.0185407949
 C   -1.2708968749    2.1255400102   -0.0042869934
 C   -0.6147241679    3.5173568585    0.0073550546
 C    0.6175017482    3.3119320716   -0.8909080993
 C    1.1698208477    2.1764796632    0.0020878589
 C    1.1290665001    2.8949720608    1.3734096184
 O   -0.0403375218    3.7294355406    1.3067362630
 H   -1.8550837128    1.9403882247   -0.9128391091
 H   -1.9133624690    1.9429465510    0.8604214222
 H   -1.2709824829    4.3570744343   -0.2190366130
 H    0.3737761567    2.9906958814   -1.9068479632
 H    1.2656369936    4.1905593906   -0.9266192959
 H    2.1215081899    1.7118864884   -0.2478856974
 H    1.0469235405    2.2026959611    2.2188749008
 H    2.0208855173    3.5179345774    1.5184139128