17

 O    0.0365109363    1.3873566895    0.0324948139
 C   -0.0107424056   -0.0095805040   -0.0512039013
 C    0.2844916878   -0.6954190324   -1.4114101628
 C   -0.9300858412   -1.6325423613   -1.1593498776
 C   -1.3803474031   -0.7218684150    0.0250678510
 C   -1.4125954280   -1.3648358073    1.4091959461
 O   -0.0339517757   -1.4517862527    1.8409779887
 C    0.7590097103   -0.6239808455    1.1237292666
 O    1.8980993597   -0.3841129444    1.4152357486
 H    0.9318646998    1.6214207268    0.3129221616
 H    0.1011203059    0.0158547019   -2.2203472688
 H    1.2700279069   -1.1471923606   -1.5439838326
 H   -1.6416463009   -1.7279133571   -1.9803033868
 H   -0.6432853061   -2.6352814281   -0.8313096614
 H   -2.2486910267   -0.0985916378   -0.1858551474
 H   -1.9555072726   -0.7605337361    2.1436165978
 H   -1.8208452468   -2.3785565362    1.4111149545