16

 C   -0.0890765626    1.4178359488    0.0764307021
 N    0.1011484245   -0.0210980814    0.0158330790
 C    0.6563946480   -0.7260473905    1.0212203856
 N    0.6880857849   -2.0285161239    1.1467503677
 C    1.4024319021   -2.1557057022    2.3036460172
 O    1.6596898505   -3.3669100604    2.7799112299
 C    2.4111374944   -3.4048725399    3.9963815601
 N    1.7977644586   -1.0460899356    2.8865912562
 O    1.2757506899   -0.0527866287    1.9980039244
 H    0.8355470423    1.8961218188    0.4056163936
 H   -0.3286245633    1.7810087006   -0.9246220140
 H   -0.8936066136    1.7119725190    0.7628170005
 H   -0.4824403966   -0.5645048535   -0.5988112650
 H    3.3892636574   -2.9335320452    3.8612074040
 H    1.8763010477   -2.8855588937    4.7973040601
 H    2.5280934258   -4.4609547222    4.2394330184