12

 N    0.0570456753   -3.7092901535   -0.0185534310
 C    0.0460236066   -2.5464387274   -0.0119591023
 C    0.0271259135   -1.1845068191   -0.0041554307
 C    0.0004220711    0.0265713295    0.0029151732
 C   -0.0364916333    1.4340606086    0.0112528667
 C   -1.1616476437    2.2350125042    0.0309022352
 N   -0.6892752723    3.5169252369    0.0316602387
 C    0.6782862538    3.4519276350    0.0128318911
 N    1.1082482181    2.2182316683    0.0001577918
 H   -2.2122341554    2.0000333956    0.0437785255
 H   -1.2499474429    4.3533408254    0.0438762658
 H    1.2959595092    4.3373819665    0.0094191660