20

 C   -0.2198587513    1.5053456020   -0.1716009318
 N    0.0480436680    0.0898198486    0.0413658213
 C    1.3716132245   -0.5170719182   -0.1490362349
 C    2.5678729306    0.3813044633   -0.0953400382
 C    2.6862160271    0.9563180246    1.1015833427
 C    1.6328836174    0.4615543467    2.0876009309
 C    2.2577141816   -0.3655115016    3.2169550001
 O    0.8474195939    1.5238288832    2.6378754258
 C    0.7340007359   -0.4268753471    1.2084585760
 H    0.6067811510    2.1791340455    0.0801351119
 H   -0.4857825850    1.6452962584   -1.2247846272
 H   -1.0789594805    1.7854971732    0.4430312084
 H    1.3892798161   -1.4207295975   -0.7519164163
 H    3.2037938727    0.5690953604   -0.9533717316
 H    3.4154736255    1.7112467921    1.3807773960
 H    2.9654445726    0.2410907963    3.7947158064
 H    1.4752453470   -0.7217155887    3.8948904364
 H    2.8035870676   -1.2267635589    2.8209230644
 H    1.4169395380    2.0422625521    3.2166892614
 H    0.2548901274   -1.2730820946    1.6951498481