18

 O   -0.0147709028    1.4521507352    0.2509277024
 C    0.0466656043    0.0440106110    0.1452703727
 C    0.6384012166   -0.6789313536    1.3731800893
 C   -0.0950554213   -2.0326414977    1.3734563757
 N   -1.4593969833   -1.7612110816    0.8937174296
 C   -2.3697845360   -1.1074898356    1.8795839485
 C   -2.4691710986    0.1048758341    0.9417942411
 O   -3.1505510758    1.0819706925    0.8949652668
 C   -1.3924434637   -0.5285968120    0.0402267140
 H    0.8813740787    1.7987739037    0.2010015101
 H    0.6014499790   -0.2498894132   -0.7588782783
 H    1.7266713156   -0.7772930018    1.3257325594
 H    0.3915821561   -0.0935307106    2.2662338501
 H    0.3894821256   -2.7323176702    0.6812700699
 H   -0.1240568841   -2.5155892662    2.3540244692
 H   -3.3028688119   -1.6518680853    2.0591868685
 H   -1.9124803006   -0.8651466342    2.8499315429
 H   -1.7017960676   -0.6697955444   -0.9996811119