20

 C   -0.2233352855    1.5147468646   -0.0805128763
 C   -0.0117417714    0.0123126247    0.0207512983
 C    1.1363478213   -0.7142581027   -0.7639723457
 C    2.1457793644   -0.1490254316    0.2760912273
 C    0.9207114976   -0.6214276085    1.1148897044
 C    0.9633768820   -1.8923360080    0.2404801048
 O   -0.2257073039   -2.6626628223    0.2124931841
 C   -0.1841372894   -3.8144220284   -0.4834627181
 N   -1.2281213175   -4.5109525938   -0.6189642464
 H    0.6944883875    2.1017913906    0.0044440321
 H   -0.6879007572    1.7658612882   -1.0404824819
 H   -0.9055414703    1.8534202001    0.7069445685
 H   -0.9723588531   -0.4989210920   -0.0619866275
 H    1.2674822070   -0.7839945984   -1.8451111135
 H    3.0774856366   -0.7064185133    0.4117838549
 H    2.3391132031    0.9210311575    0.2452355026
 H    0.8020542350   -0.5831966508    2.1983697463
 H    1.8330147029   -2.5453776014    0.3744705242
 H    0.8139584862   -4.0518234476   -0.8779780774
 H   -1.0145637254   -5.3520973170   -1.1509862707