15

 C    1.1225930634    0.7018165205    0.1916744144
 C   -0.2827553866    0.3767472850   -0.2583597086
 O   -1.2695693714    0.9145867615    0.1818989636
 C   -0.3955674249   -0.6853298132   -1.3171548346
 N   -1.5512788453   -1.0682773331   -1.8012116593
 O   -1.2004204865   -2.0411415041   -2.7293888142
 C    0.1404109813   -2.1449056597   -2.7088067814
 C    0.7812719531   -3.1271663145   -3.6195123843
 N    0.6938997492   -1.3349500574   -1.8584752534
 H    1.6123393298   -0.1952070609    0.5843587797
 H    1.7266957910    1.0324702577   -0.6594568816
 H    1.0837052397    1.4788709233    0.9550902698
 H    0.5377173690   -2.9008817883   -4.6618172392
 H    1.8617936543   -3.0901468960   -3.4840007302
 H    0.4228369140   -4.1388491407   -3.4074756408