23

 C   -0.0822931814    1.5108109848    0.0841058439
 C   -0.0438317924   -0.0159574988   -0.0200508669
 C    0.7256235556   -0.5156235452   -1.2477317621
 C    0.7648242073   -2.0439409025   -1.3531008850
 C    1.5322381143   -2.5165067403   -2.5767887996
 O    1.5098249337   -3.9570162303   -2.5825036277
 C    2.1506283985   -4.5515851723   -3.6100493350
 C    2.0539334817   -6.0550559712   -3.5002534151
 O    2.7165529094   -3.9465084515   -4.4853539402
 H    0.9282537926    1.9287892414    0.1524643062
 H   -0.5639407855    1.9557498342   -0.7937488491
 H   -0.6375344878    1.8369022255    0.9690224054
 H    0.4120263914   -0.4350824433    0.8866073666
 H   -1.0687717782   -0.4083277732   -0.0523797265
 H    0.2701408126   -0.0967294113   -2.1557947880
 H    1.7516685457   -0.1234987641   -1.2163442150
 H    1.2286359784   -2.4701569017   -0.4550043808
 H   -0.2559457347   -2.4433320969   -1.3963938135
 H    1.0838297222   -2.1488999070   -3.5061126510
 H    2.5731765034   -2.1758188734   -2.5616994502
 H    1.0049966872   -6.3647338963   -3.4984402497
 H    2.5762650802   -6.5143227362   -4.3385136792
 H    2.4928733758   -6.3915814506   -2.5567123877