17

 N   -0.0005257910    1.3427362791   -0.1932361199
 C   -0.0227028265    0.0915927106   -0.0324150513
 C   -1.2979258510   -0.7014161929    0.0779099627
 C   -1.2228550615   -1.7632484623    1.1884249422
 N   -0.9660061063   -1.1481337868    2.4872829548
 C    0.2179278517   -1.0107022425    2.8891315657
 O    1.3716233735   -1.4387574849    2.2528660963
 C    1.8779598768   -0.6326990857    1.2083273627
 O    1.1152959955   -0.7101679598    0.0270907756
 H    0.9591681003    1.6845327429   -0.2813350616
 H   -2.1182401920   -0.0006373816    0.2440310776
 H   -1.4798485686   -1.2143902329   -0.8749575549
 H   -2.1873241096   -2.2751482542    1.2477030156
 H   -0.4514267502   -2.4966848807    0.9288539850
 H    0.4195953783   -0.5694276095    3.8659169852
 H    1.9555351066    0.4119382365    1.5398731907
 H    2.8598458439   -1.0425791154    0.9717511936