14

 C   -0.4598049193    1.5185172608    0.0356134493
 C    0.1622937591    0.1476690966   -0.0020692673
 O    1.0001412128    0.0013407494   -1.1830845616
 C    2.1607031876   -0.5278286049   -0.7156935011
 C    3.3654527728   -1.0225278522   -1.0571004389
 O    4.0325856096   -1.3300212865    0.0999419873
 N    3.2352928646   -1.0263925408    1.2314188969
 C    2.1533648577   -0.5591972617    0.6875730397
 O    0.9977671013   -0.0642526016    1.1731552920
 H    0.3205857110    2.2825788716    0.0614745648
 H   -1.0786633356    1.6639796010   -0.8532717869
 H   -1.0886840905    1.6139454544    0.9241498088
 H   -0.5831544838   -0.6577760264   -0.0206828260
 H    3.8953340327   -1.2177195998   -1.9732331970