25

 C   -0.5267866010    1.4184941346    0.0346609747
 C    0.1396939236    0.0434229216   -0.0334211535
 C    1.1827833121   -0.0986599068   -1.1558533375
 C    1.9128963850   -1.3967848976   -0.7943271407
 C    2.0917189049   -1.2865122804    0.7308108201
 C    0.8763781167   -0.4557328418    1.2643678355
 C    1.3703153308    0.6868250934    2.1660360220
 C   -0.0838106852   -1.3517065953    2.0565333434
 O    0.5689163411   -1.8204644020    3.2286943352
 H    0.2036262508    2.2188818225    0.1887430530
 H   -1.0543312116    1.6308325629   -0.9015321965
 H   -1.2619187671    1.4776725816    0.8444937698
 H   -0.6523645543   -0.6897396520   -0.2486372646
 H    0.7289169730   -0.1097198675   -2.1520842347
 H    1.8816376854    0.7487829009   -1.1274577227
 H    1.2803682949   -2.2567959346   -1.0482971764
 H    2.8608403467   -1.5288388052   -1.3241405549
 H    2.1651777623   -2.2553668100    1.2311446087
 H    3.0220937787   -0.7525155453    0.9527296980
 H    2.0285055608    1.3683640801    1.6173164111
 H    0.5414213480    1.2743298705    2.5748935567
 H    1.9322604684    0.2773534894    3.0087702022
 H   -0.9914965945   -0.7802859565    2.3144604335
 H   -0.3968096580   -2.1963168739    1.4211159932
 H   -0.0435324416   -2.3833212688    3.7103285242