18

 C   -0.2529279347    0.5969221750   -0.5310830723
 O   -0.4804029630   -0.1566553617    0.6502460469
 C    0.6620046029   -0.3592747291    1.4444548140
 C    0.1907692667   -0.8377151622    2.8243899561
 O    0.0398563840   -2.2745965559    2.7211024056
 C    0.6875021265   -2.7161048846    1.6193470504
 N    0.6391602331   -3.8682362534    1.1079106271
 C    1.4948671857   -1.5889660739    1.0101300733
 O    1.7044034366   -1.7576559088   -0.3599653030
 H    0.4297121363    0.0837662917   -1.2134392504
 H   -1.2265062814    0.7253439878   -1.0098169998
 H    0.1551747470    1.5908804609   -0.2901410617
 H    1.2636197311    0.5575065870    1.5126312829
 H    0.9178606691   -0.6119297832    3.6114713541
 H   -0.7808513202   -0.4148123485    3.0819027073
 H    0.0179050771   -4.4971615201    1.6153676117
 H    2.4590925262   -1.5387154404    1.5480587161
 H    1.4484465871   -2.6750544805   -0.5460770085