14

 N    0.0112396599    1.3422701618    0.1192669991
 C    0.0082694872   -0.0183738866    0.0370768707
 N   -1.0658767513   -0.7461659459    0.0154757700
 C   -0.6827306536   -2.1695578030   -0.0055984376
 C    0.8193163050   -2.1385852974   -0.0111055891
 C    1.2281999950   -0.8321539181    0.0168228312
 N    2.5827299717   -0.7584419846    0.0085477645
 N    3.0438285064   -1.9773804950   -0.0218922360
 N    1.9683094405   -2.8315198596   -0.0327605803
 H    0.8426784643    1.8236011938   -0.1813714028
 H   -0.8644193774    1.8014129214   -0.0772010848
 H   -1.0930109211   -2.6877748925    0.8701558992
 H   -1.1022277058   -2.6610520637   -0.8920503879
 H    2.1457427291   -3.8228651107   -0.0551906562