10

 N    0.0653499156    1.3508248851    0.1419796123
 C    0.0244153063   -0.0071966205    0.0340984383
 N   -1.0751880072   -0.7206460276    0.0117278935
 O   -0.6514686783   -2.0387073268   -0.0297376898
 N    0.6863940834   -2.1426362700   -0.0443905457
 C    1.1407389122   -0.9119113390   -0.0052499543
 C    2.5166957390   -0.5739160348   -0.0113543456
 N    3.6159604562   -0.2130106891   -0.0211432334
 H    0.8967353680    1.8076318878   -0.1991563753
 H   -0.7956476953    1.8358434448   -0.0595903800