21

 C   -0.4424305044    0.7498964298   -0.3715949924
 C   -0.1602842225   -0.6771134487    0.0920880843
 O    0.2957827879   -1.5364799183   -0.9443830405
 C    1.6250950099   -1.3188366588   -1.3462507949
 C    2.0863461178   -2.4038687573   -2.3086527385
 O    3.2671270125   -2.5269451580   -2.5583726653
 C    1.0667021847   -3.3191800363   -2.9793581735
 C    0.1516589669   -2.5161392920   -3.9219931658
 O    1.7404782605   -4.3345796626   -3.6771973729
 H    0.4659722770    1.2627293682   -0.7017565814
 H   -1.1594045889    0.7503519158   -1.1978456106
 H   -0.8672884177    1.3305354600    0.4534441077
 H    0.5676490069   -0.6754068868    0.9188303173
 H   -1.0795685058   -1.1407891086    0.4623415398
 H    1.7552678207   -0.3513651267   -1.8587432994
 H    2.3161186616   -1.3211864931   -0.4887848290
 H    0.4467024690   -3.7580296735   -2.1845176959
 H    0.7455595954   -2.0063075008   -4.6872000729
 H   -0.5251743483   -3.2105738255   -4.4255097596
 H   -0.4381362850   -1.7841914987   -3.3662419026
 H    2.6790238917   -4.0894124880   -3.6459545138