18

 C    0.0717467160    1.5786966365   -0.0100547073
 C    0.1875690341    0.0660605350   -0.0257274422
 O    1.0709731004   -0.3366090104   -1.0670198154
 C    1.3899287335   -1.6962492806   -0.8217832486
 C    1.5776702039   -1.8069670441    0.7054486921
 N    2.9636003047   -1.5308934001    1.1145066602
 C    2.9339423206   -0.4147504567    1.7118924663
 O    1.7554717266    0.2289464726    1.8920399872
 C    0.7560156799   -0.5948408949    1.2447413106
 H    1.0414988357    2.0328450579    0.2011398007
 H   -0.2828082199    1.9340696571   -0.9807970327
 H   -0.6380468728    1.8999009992    0.7579837391
 H   -0.8072893044   -0.3847887136   -0.1977407281
 H    0.5704956883   -2.3542382994   -1.1541993091
 H    2.2993331858   -1.9464394698   -1.3704434437
 H    1.2643013288   -2.7814274656    1.0870413293
 H    3.7916994027    0.1003237986    2.1300323891
 H   -0.0122832440   -0.8230724217    1.9854808327