16

 C   -0.0422277992    1.5657831302    0.0864139783
 C    0.0524523469    0.0596151018   -0.0319517076
 C    0.7059027058   -0.6256953999   -1.2242302881
 C    1.2964507882    0.1432054336   -2.3867891469
 C    1.3838677810   -0.6503121788    0.1193754578
 O    2.5588415823    0.1037330651    0.2355390387
 H    0.8986069870    2.0513078709   -0.1817756785
 H   -0.8270490321    1.9696701767   -0.5622812759
 H   -0.2851264026    1.8594919450    1.1143124894
 H   -0.8004341475   -0.4691613756    0.3873663215
 H    0.2419063109   -1.5655507226   -1.5131540041
 H    1.8902070865    0.9937050436   -2.0491729081
 H    1.9580073284   -0.5020914819   -2.9746895120
 H    0.5116156325    0.5120506473   -3.0562561927
 H    1.4041911099   -1.5939043335    0.6651490260
 H    2.5833823822    0.4809564181    1.1211116122