18

 C    0.0859769603    1.4001723600   -0.2715315837
 N   -0.1062165308    0.0872257291    0.3294370122
 C   -1.3923116323   -0.4956877793    0.0895981674
 C   -1.8272718180   -1.0484307420   -1.3440603373
 C   -1.9654468416   -2.4350765728   -0.7217740550
 N   -0.6423958772   -2.7798955348   -0.1740933324
 C   -1.5612713485   -1.9248500476    0.6324417940
 C   -2.0002031954   -2.3225906878    1.9278860128
 N   -2.3684355392   -2.6349053250    2.9802583672
 H    1.0966626982    1.7546009783   -0.0516798822
 H   -0.0557980649    1.4266895870   -1.3659996610
 H   -0.6192220532    2.1124784832    0.1716859372
 H    0.6121422108   -0.5611964193    0.0246230882
 H   -2.1716842659    0.1641246494    0.4819862227
 H   -2.7740039107   -0.6264859957   -1.6859415771
 H   -1.0775043561   -0.9772631826   -2.1351615386
 H   -2.6922967665   -3.2052103843   -0.9461640538
 H   -0.6894637691   -3.7233252557    0.2103645795