20

 C   -0.0921827686    1.4730110648   -0.1937040461
 C    0.0152715611   -0.0356281325    0.0596836974
 C    0.8709440982   -0.3587713826    1.2912197223
 C   -1.3798949289   -0.6402980879    0.2149403411
 O   -2.2276833679   -0.4448725803   -0.9562900207
 C   -2.4203191975   -1.8656030769   -1.1488227110
 C   -1.5397412276   -2.1343462181    0.0434928587
 N   -1.0742436169   -3.1245643924    0.6734699257
 O   -1.5033663218   -4.3329545803    0.0961232613
 H    0.8968417667    1.9065117510   -0.3724943536
 H   -0.7221071076    1.6777603069   -1.0631271996
 H   -0.5293522264    1.9849531260    0.6720393322
 H    0.4734713934   -0.5047282359   -0.8210900229
 H    0.4487601636    0.1007250092    2.1929289522
 H    0.9343993976   -1.4373575839    1.4613624444
 H    1.8860231451    0.0306657877    1.1660264348
 H   -1.8676815341   -0.2366887204    1.1152266579
 H   -3.4685313599   -2.1712343071   -1.0382785028
 H   -2.0428162424   -2.2213482616   -2.1156133274
 H   -1.0912091662   -4.9909771057    0.6664286459