19

 C   -0.0164762699    1.4929164768    0.0271324284
 C   -0.0998248113   -0.0157252171    0.0298737121
 N   -0.3172473408   -0.6019120816    1.1379209294
 N    0.0835978389   -0.6904272486   -1.2076632714
 C    0.0269651869   -0.0296735054   -2.4289962582
 O    0.0174014230   -0.5772781524   -3.5054120064
 C    0.1115676295   -2.1354018993   -1.2223389796
 C    1.1961257853   -2.8353346344   -1.9889881406
 C    1.2184936912   -2.8595970247   -0.4869999616
 H    0.9151425792    1.8539660262   -0.4193787335
 H   -0.8482299283    1.9494846323   -0.5191962512
 H   -0.0673913581    1.8171035094    1.0656868636
 H   -0.3588355485   -1.6143776929    1.0284036457
 H   -0.0059550444    1.0639629182   -2.3227879174
 H   -0.8725954220   -2.5963101693   -1.2249860291
 H    0.9166660825   -3.7324522480   -2.5282872828
 H    1.9219611173   -2.2157491416   -2.4988910412
 H    1.9598479668   -2.2509757809    0.0174838348
 H    0.9601646928   -3.7759270566    0.0321571689