19

 C    0.5064525113    1.4608675782   -0.1934560231
 C   -0.0752959743    0.0671026317    0.0808953728
 N    0.1377264009   -0.8568854521   -1.0533323409
 C    1.4016478925   -1.5765151889   -0.7895796207
 C    1.5192513575   -1.6743250235    0.7259155373
 C    1.6755097825   -2.9526265342    1.4798518833
 N    2.7647110649   -1.9735216931    1.4523247590
 C    0.6328150536   -0.5820260276    1.2820147011
 O    0.4945265174   -0.2982648786    2.4438147645
 H    1.5791441419    1.4099174858   -0.4065196833
 H    0.0104349150    1.9072444124   -1.0588405054
 H    0.3647748526    2.1049348054    0.6787502401
 H   -1.1442865011    0.1622121845    0.2926127541
 H   -0.6171091457   -1.5347895057   -1.0616788361
 H    1.3985669671   -2.5458315272   -1.2944871925
 H    2.2406466696   -0.9964161209   -1.1976727451
 H    1.1838729496   -3.0482818996    2.4440926144
 H    1.7663181667   -3.8699273646    0.9026559747
 H    3.4713800980   -2.2640913121    0.7778778258