14

 O    0.1239384385    1.3971316624    0.0185204023
 C    0.0517105320   -0.0108130383   -0.0541108979
 C   -1.3746668307   -0.5077948434   -0.0880734966
 C   -1.8892556203   -1.3226274863   -1.0346564483
 C   -3.2557879323   -1.7482063179   -0.9610207804
 N   -3.8505597857   -2.5428698976   -1.7562999838
 N   -4.0001160219   -1.1696882424    0.1544007967
 N   -3.5900990131   -0.4380779178    1.0093733850
 O   -2.0759334111   -0.0466292254    0.9473885875
 H   -0.3740087003    1.6710792444    0.7969459649
 H    0.5593511502   -0.3156301211   -0.9729681137
 H    0.5659171530   -0.4906723644    0.7945395042
 H   -1.2821380822   -1.6623670269   -1.8621260927
 H   -4.8250262661   -2.6629002254   -1.4760670573