19

 C    0.0443259558    1.4479748462   -0.1941450788
 C    1.5328631365    1.4689122039    0.2004963125
 C    1.2695009978    0.0280637944    0.7057004813
 O   -0.0752209531    0.0530122314    0.1653999775
 C    2.0790089541   -1.0829086022    0.1325308756
 C    2.2519880526   -1.5002852428   -1.3380468082
 C    2.4902384861   -2.9701187264   -0.8401483173
 C    2.3067400630   -2.4656975985    0.5970521097
 O    3.2869905894   -1.4438749173    0.8194765833
 H   -0.6071781304    2.0815503225    0.4209082987
 H   -0.1893927050    1.6185633164   -1.2508878041
 H    2.2236064900    1.5209100549   -0.6430619578
 H    1.8314821306    2.1941529627    0.9575989487
 H    1.2650312536   -0.0655003634    1.7998346532
 H    1.3289161560   -1.3979288977   -1.9113476686
 H    3.0778365744   -1.0184984094   -1.8666762829
 H    1.7002004436   -3.6531452847   -1.1597709890
 H    3.4665534732   -3.4115870784   -1.0524433858
 H    1.9351071118   -2.9893322117    1.4708403420