17

 C    0.3994430311    0.8676386100   -0.8095316397
 C   -0.0660598242    0.1016411801    0.4061318115
 O    0.4720807721    0.1832123169    1.4869269291
 C   -1.3045431194   -0.7736767595    0.2654873023
 C   -2.1900168177   -0.8229418182    1.4890297512
 O   -1.9639673825   -0.7320396294   -1.0042992547
 C   -1.2811728138   -1.9434831933   -0.6620278005
 C   -0.1491334668   -2.3477441455   -1.4513466839
 C    0.7757765276   -2.7503504635   -2.1053926006
 H    1.2708462312    1.4655426617   -0.5409032741
 H    0.6453741888    0.1842251679   -1.6267027698
 H   -0.4074210794    1.5116301802   -1.1747072657
 H   -2.6113591882    0.1670146278    1.6902231069
 H   -3.0134073815   -1.5254943632    1.3427398919
 H   -1.6003853884   -1.1188567416    2.3588078218
 H   -1.9483734971   -2.7633703952   -0.3934831859
 H    1.5983121181   -3.0965297553   -2.6820136897