22

 C    0.0970682086    1.6470182272   -0.0325562026
 C   -0.0029393053    0.1093129229    0.0172151181
 C    0.6718362035   -0.5743535902   -1.1954604138
 C    2.1240180233   -0.8119889808   -0.7422093839
 C    1.9907095583   -1.2387666104    0.7344193894
 C    3.2383277759   -1.0442474247    1.5955785141
 C    0.7635061226   -0.4643287837    1.1985801741
 N    0.4869762317   -0.3766382704    2.4375058500
 O   -0.7099862060    0.3387556782    2.6575806473
 H    1.1349644958    1.9761495523   -0.1488392212
 H   -0.4742964001    2.0335387164   -0.8828138374
 H   -0.2996675692    2.0868414265    0.8838593644
 H   -1.0611745980   -0.1568502538    0.1040754457
 H    0.1880040197   -1.5365747030   -1.4002186787
 H    0.5991938896    0.0263491292   -2.1067868683
 H    2.6483760708   -1.5553586639   -1.3489166638
 H    2.6992082950    0.1202848570   -0.8051281832
 H    1.7202227388   -2.3056409313    0.7520127277
 H    3.5523821912    0.0049641280    1.5934379697
 H    3.0422158797   -1.3312707308    2.6314876960
 H    4.0696663022   -1.6490637768    1.2188620296
 H   -0.7790153281    0.3218714920    3.6177534868