14

 O    0.0438085609    0.0569068374    0.5048903466
 C   -0.0198058802    1.2067835584    0.1168037214
 C   -1.2985213169    1.8980353515   -0.1375625144
 C   -1.3779702449    3.0337081664   -0.8411026316
 C   -0.1991970118    3.7469674791   -1.4374605014
 C    1.1358675397    3.2602241752   -0.9218967236
 O    1.3043158369    3.2812337042    0.4871495843
 C    1.2313790753    1.9981169695   -0.1571239562
 H   -2.1855769709    1.3963241379    0.2351503801
 H   -2.3519067094    3.4795611018   -1.0295472953
 H   -0.2262583077    3.6404417738   -2.5315914764
 H   -0.2858417262    4.8258423608   -1.2487400715
 H    2.0120175121    3.5827210523   -1.4845000847
 H    2.1513042430    1.4177804018   -0.1447932873