17

 O   -0.4871004281    1.3002812949   -0.6968044682
 C   -0.0569668826    0.0948269489   -0.0895126967
 C   -1.3060089612   -0.7858924475    0.1343569107
 C   -1.1994420953   -1.9175922815   -0.8728720038
 C   -1.0376474594   -1.6547085351   -2.3401362344
 C   -1.2499386188   -0.3893050525   -2.9926699390
 N   -1.4147413363    0.5671392202   -3.6219974535
 N    0.1365920816   -1.9534213534   -1.4838531221
 C    0.8780577701   -0.7812796976   -0.9727646432
 H    0.2738928647    1.7577643699   -1.0674077593
 H    0.4388376553    0.3188134095    0.8658906614
 H   -1.3108919787   -1.2144195331    1.1404959519
 H   -2.2079330539   -0.1801841168    0.0215629842
 H   -1.6298156911   -2.8789099175   -0.6040541136
 H   -1.2690885126   -2.4822049124   -3.0076910139
 H    1.3102396679   -0.2082680635   -1.7998503376
 H    1.7037910684   -1.1798796724   -0.3753488730