20

 C    0.0378540690    1.5273860187    0.1754234237
 C   -0.0924289961    0.0444952238   -0.0313664264
 C    0.3476678898   -0.6487666639   -1.3383169526
 N   -0.7428890557   -1.6825706546   -1.2136123411
 C   -0.3587261842   -2.6879581898   -0.1575668039
 C   -0.6960124787   -1.6979074864    0.9775355284
 C   -1.2361824277   -2.1504469525    2.3049866627
 O    0.3763847125   -0.7231833680    1.1128964322
 C   -1.3744689876   -0.8255815565   -0.1114136933
 H    1.0938192334    1.8008706295    0.2808841308
 H   -0.3746156607    2.0767020738   -0.6765488805
 H   -0.4843477800    1.8411356794    1.0839920658
 H    0.1605299577   -0.0343057087   -2.2258233964
 H    1.3680099046   -1.0422708836   -1.3728609371
 H   -1.0521818184   -3.5351141181   -0.1987546804
 H    0.6711594555   -3.0539121985   -0.2080638405
 H   -0.4555023177   -2.6716397055    2.8705617133
 H   -1.5711542983   -1.2962742766    2.9006489070
 H   -2.0770162103   -2.8376449109    2.1689952051
 H   -2.4134816872   -0.5075064917   -0.1836880570