14

 C   -0.0354852179    1.4715990173   -0.0345945745
 C   -0.0110303442   -0.0203069385    0.0228002083
 N   -0.0274050519   -0.7567811409   -1.0811549716
 N    0.0039688891   -2.0357234508   -0.6455299960
 C    0.0396885846   -2.1414945659    0.6981191944
 C    0.0313617480   -0.8453351857    1.1905320318
 C    0.0585321758   -0.4270198527    2.5384108303
 C    0.0811112248   -0.0424387346    3.6800332498
 H    0.8562396850    1.8995391193    0.4356422045
 H   -0.0779822975    1.8035791738   -1.0735911027
 H   -0.9029751743    1.8729073675    0.4998476215
 H   -0.0017232188   -2.7800031843   -1.3216382585
 H    0.0674910850   -3.0924841852    1.2050592385
 H    0.1013496023    0.2912090908    4.6873247042