21

 C    0.0693538825    1.5395768868    0.1445265888
 C    0.0209923591    0.0206756759   -0.0452740425
 C    0.6696635518   -0.4712220899   -1.3145178994
 C    0.4360008974    0.1113437937   -2.7451141444
 C    1.8697043676   -0.4628785516   -2.8658289131
 O    2.0822462173   -0.0979464989   -1.4716517365
 C    1.6316034137   -1.9882053325   -2.7970084495
 C    2.0500849280   -2.6662046795   -1.5173985020
 C    0.7010279833   -1.9970884869   -1.6003127206
 H    1.0991186050    1.9013046243    0.0833927501
 H   -0.5155225383    2.0579648917   -0.6219383668
 H   -0.3374967272    1.8218708288    1.1199745085
 H    0.5212779577   -0.4770292764    0.7953305317
 H   -1.0178183094   -0.3339618138   -0.0357278686
 H   -0.3573560623   -0.3194015359   -3.3623366168
 H    0.4183011891    1.2024915970   -2.7625724087
 H    2.6233755542   -0.0670152632   -3.5465545426
 H    1.4466780514   -2.5511037992   -3.7036743752
 H    2.0441349758   -3.7512637857   -1.5304822326
 H    2.8254484030   -2.2139826807   -0.9119113190
 H   -0.2183162297   -2.5688803141   -1.5607269007