19

 C   -0.1310654271    1.6479341680    0.0360151629
 C    0.0253491342    0.1389114781    0.0277886405
 C    1.1656770953   -0.5841638277   -0.7781814697
 C    2.4259029754   -0.0212029777   -0.1271159713
 C    2.1398953870   -0.0463079906    1.1804773390
 C    0.7310123931   -0.6243363844    1.2178612926
 O    0.1590697023   -0.8074614217    2.4675440292
 C    0.9343910354   -1.8088426314    0.2067621869
 O   -0.2490907428   -2.5582995044    0.0685986938
 H    0.8181978861    2.1560728427    0.2236444401
 H   -0.5269982736    2.0057186967   -0.9209783823
 H   -0.8375839358    1.9509594907    0.8167151227
 H   -0.9322325812   -0.3424624111   -0.1912734238
 H    1.1255630538   -0.6996351839   -1.8604396117
 H    3.3362018161    0.2751304718   -0.6286823115
 H    2.7303572368    0.2197318788    2.0451937725
 H   -0.5988637426   -1.3912820819    2.3457056351
 H    1.8084414821   -2.4477010542    0.3790114473
 H   -0.0761643345   -3.3099716378   -0.5053107623