10

 O   -0.0513107598    1.3169612530    0.0103499324
 C    0.0388734538   -0.0155476715    0.0025694562
 N    1.1281501994   -0.7106290058   -0.0076884300
 N    0.6590662013   -2.0233217323   -0.0119277835
 C   -0.7095671558   -2.1357892628   -0.0045291507
 O   -1.4194941754   -3.1150311405   -0.0056766112
 N   -1.0932643881   -0.7767535759    0.0052184414
 H    0.8503926435    1.6656354326    0.0068071600
 H    1.3082179375   -2.7887539873   -0.0203346871
 H   -2.0455400564   -0.4558164893    0.0126383825