19

 O    0.5712622886    0.1011515613   -0.7039847327
 C   -0.3045280818    0.4089413523    0.3726591843
 C   -1.5949940543   -0.3510359706    0.1972778297
 C   -2.4994337956   -0.7197773411    1.4399935388
 C   -3.0609844629   -1.7516850652    0.4551051917
 C   -4.1317014190   -1.3581043875   -0.2636919675
 C   -3.6658685366   -0.7687916673   -1.5916495285
 C   -2.1712690133   -0.5848029581   -1.2657308581
 C   -1.7740578879   -1.7214097334   -0.3914695768
 H    1.3521471518    0.6561116089   -0.6222653163
 H    0.1451045010    0.1242672870    1.3391384298
 H   -0.5091963226    1.4914483148    0.4173661015
 H   -1.8483152700   -1.0960844884    2.2395233391
 H   -3.2028589650    0.0150593362    1.8441566447
 H   -5.0322832383   -0.9761945082    0.2102898921
 H   -3.7845466626   -1.3821540537   -2.4970190289
 H   -4.2168247458    0.1635769920   -1.7678446682
 H   -1.4821578900   -0.2320636154   -2.0277837170
 H   -1.0505783957   -2.5082756535   -0.5584340377