21

 C   -0.0079062653    1.5044114196   -0.0267752810
 C   -0.0246591989   -0.0118289678   -0.0009728189
 C   -0.8571607234   -0.6817427092    1.0754004717
 C    0.6468418459   -0.7163128999    1.1579639540
 O    1.2893645184   -1.9502093957    0.9938405625
 C    1.7199574776   -2.2283593711   -0.3281344119
 C    0.5588430818   -2.1113338154   -1.3132258691
 C    0.0702936518   -0.6576457748   -1.3713656521
 O   -1.2025375536   -0.5334539695   -2.0003436457
 H    0.9140058887    1.8848031825   -0.4828903441
 H   -0.8547347583    1.8821195835   -0.6088222537
 H   -0.0787613718    1.9219884306    0.9822110938
 H   -1.4109460277   -0.0441898893    1.7564923639
 H   -1.3455915187   -1.6192509051    0.8363047389
 H    1.1415487292   -0.0947699355    1.9018281462
 H    2.5382702104   -1.5500239883   -0.6237733478
 H    2.1214331306   -3.2451995048   -0.3019913656
 H    0.8714859363   -2.4383520976   -2.3127233178
 H   -0.2583985902   -2.7667571092   -0.9927371054
 H    0.8202605043   -0.0808588174   -1.9404280021
 H   -1.1173747570   -0.8517511156   -2.9052021959