21

 C   -0.0901018962    1.5198684983    0.0186541485
 C    0.0034121386   -0.0019328571   -0.0021224756
 C    1.1559829061   -0.5885061530   -0.8778248265
 C    2.0701069547   -0.5009816334    0.3814319698
 C    0.7551866387   -0.6333045782    1.2095224736
 C    0.4410405215   -2.1235461774    1.2970023942
 O   -0.7480805470   -2.5975805011    0.6551547024
 C    0.5167214878   -2.8623722647    0.0272042738
 C    0.8705978663   -2.0626333019   -1.2217926187
 H    0.8751574213    1.9998843669    0.2101348962
 H   -0.4592752225    1.8952412696   -0.9422783496
 H   -0.7863588883    1.8565945038    0.7946659751
 H   -0.9828983353   -0.4303581477   -0.1898879057
 H    1.4545773256   -0.0273993404   -1.7680306802
 H    2.8316922554   -1.2756375424    0.5161322068
 H    2.5381013106    0.4789090275    0.4888089894
 H    0.6835112740   -0.1354030541    2.1799033340
 H    0.6766413224   -2.6257801665    2.2345840901
 H    0.7871865737   -3.9174736967    0.0267721173
 H    0.0622168085   -2.1431392835   -1.9592417314
 H    1.7620998443   -2.5142057180   -1.6751192735