16

 C    0.0462298064    1.3245411329   -0.0230732979
 O   -0.0048899197   -0.0914739840   -0.0516384754
 C   -1.2525958785   -0.6207680425   -0.0398949648
 C   -2.4885445384   -0.0507256929   -0.0012157844
 O   -3.4392340263   -1.0467412374   -0.0126224123
 C   -2.7903326761   -2.2413003880   -0.0378858179
 N   -3.5790590098   -3.3860761776   -0.1308442183
 C   -1.4448715830   -2.0406970069   -0.0530942422
 O   -0.4751576020   -3.0046953166   -0.0672033260
 H    1.1002983612    1.6049116212   -0.0411721531
 H   -0.4638399088    1.7516746587   -0.8964805919
 H   -0.4227917290    1.7145147459    0.8898604509
 H   -2.8563719716    0.9574906355    0.0416217638
 H   -4.2166968011   -3.4869168927    0.6530261017
 H   -2.9929860696   -4.2098896019   -0.1895361578
 H    0.3744722164   -2.5538908639   -0.1217193145