19

 C   -0.1028913818    1.6029829201   -0.0521611622
 C    0.0115348833    0.0918519430    0.0164933196
 O   -1.2426934824   -0.5447234387   -0.1923819597
 C    1.1677544739   -0.6232846385   -0.7559854954
 O    2.3267488787    0.0747666891   -0.2847063236
 C    2.2315479479   -0.3426866345    1.0951664564
 C    2.4639703678   -1.8642964321    0.9811250122
 C    1.0926360473   -1.8147782349    0.2909557197
 C    0.6759565909   -0.6090953355    1.2136118755
 H    0.8746916333    2.0743111141    0.0625407454
 H   -0.5137839024    1.9150593660   -1.0213975804
 H   -0.7756672352    1.9699252938    0.7292752246
 H   -1.5804947634   -0.2457683248   -1.0437123981
 H    1.1847140497   -0.7456901662   -1.8393139255
 H    2.7998128492    0.3227410194    1.7427726509
 H    3.3508193058   -2.1866951809    0.4297440802
 H    2.3952270875   -2.3746346616    1.9457686439
 H    0.4596555749   -2.6703907594    0.0799094508
 H    0.2143582449   -0.7106518280    2.1939755759