17

 C    0.0439319948   -1.2283887880   -0.0848078705
 C    0.0034880780   -0.0282484238   -0.0621021224
 C   -0.0443098795    1.4286591554   -0.0062449318
 N    1.2885614381    2.0050861601    0.0964293621
 C    2.0900393298    1.7782558356    1.3188204367
 C    2.6167320662    3.2279520489    1.1971282583
 C    1.3906566767    3.4662621258    0.2694988126
 C    1.5650745683    4.2405472375   -0.9586975023
 N    1.7051917538    4.8627214144   -1.9224708168
 H    0.0764179422   -2.2894510158   -0.1178361390
 H   -0.5127343627    1.8202082906   -0.9183590273
 H   -0.6906151420    1.7358926950    0.8403955621
 H    1.4724359773    1.6364396584    2.2196754608
 H    2.8075291832    0.9582646238    1.2450137905
 H    2.6596983161    3.8317457464    2.1021798700
 H    3.5591415710    3.2961299359    0.6543163618
 H    0.5461577888    3.8965439597    0.8343762552