18

 C   -0.0987223353   -1.1920517733    0.0436583606
 C    0.0100266302    0.0030629216    0.0186363923
 C    0.0976260188    1.4631139726   -0.0365322133
 C    1.4984803000    1.9115132412   -0.1132138659
 N    2.5852181357    2.2949913710   -0.1912467205
 C   -0.7168552904    2.0454659539   -1.2145316964
 C   -2.2594987406    1.8869613272   -1.1782822346
 C   -2.3713623171    3.3301082171   -1.7433756667
 C   -0.9062266653    3.5838329324   -1.2928787165
 H   -0.1824432769   -2.2506690270    0.0714434660
 H   -0.3171600474    1.8759412180    0.8944303747
 H   -0.3061336328    1.6531609996   -2.1486901740
 H   -2.6955002902    1.0686373535   -1.7537439596
 H   -2.6308670059    1.8250408413   -0.1501330449
 H   -2.4670546587    3.3331137358   -2.8323422124
 H   -3.1455601623    3.9759804527   -1.3249620953
 H   -0.8627513565    4.0436841620   -0.2999915718
 H   -0.2463363454    4.1399374404   -1.9608598717