19

 C   -0.1806599547    1.5972453624   -0.0101051282
 C   -0.0258276061    0.0846914772    0.0048608686
 C    1.1990198916   -0.5707071180   -0.6787804348
 C    2.1471913005   -0.2709832518    0.5385351948
 C    2.6161396014   -1.7398411376    0.5972384504
 O    3.0736232167   -2.2940186511    1.8079389258
 C    1.1240018607   -1.8299780313    0.2334444065
 O    0.3534660301   -2.9347598743   -0.0605395873
 C    0.7410804026   -0.5974884473    1.1616696125
 H    0.7569351561    2.1076068949    0.2330941673
 H   -0.5052530870    1.9482212951   -0.9961466674
 H   -0.9345557350    1.9205910745    0.7165544409
 H   -0.9745341508   -0.4061960143   -0.2399772462
 H    1.4964841077   -0.5670053952   -1.7286647765
 H    2.7291648202    0.6336956382    0.6947086445
 H    3.3222168852   -2.0599836700   -0.1756440747
 H    2.5537990264   -1.9171137111    2.5265780446
 H    0.4927424577   -3.5880232795    0.6343929314
 H    0.4858177267   -0.6188015707    2.2240852377