22

 C    0.1266780121    1.3222471686   -0.5745664890
 C   -0.1349598295    0.1516006008    0.3790652190
 C   -1.4545311908   -0.5400400850    0.1000823957
 C   -1.5536978495   -1.6046321849   -0.9772414474
 C   -1.6821519913   -1.9706165838    0.4800445797
 O   -0.6150648593   -2.6305396271    1.1183739400
 C   -0.5210492362   -3.9592626235    0.8807827496
 N    0.3700403719   -4.6454117088    1.4415999675
 C    0.4099653586   -6.0597759285    1.1355360485
 H    1.0803858131    1.8086473664   -0.3480429157
 H    0.1595578016    0.9835956418   -1.6154916247
 H   -0.6603365162    2.0809259335   -0.4988250166
 H    0.6771479857   -0.5786889540    0.3120447426
 H   -0.1323342243    0.5113439278    1.4156193690
 H   -2.3272000004    0.0999417235    0.2089233557
 H   -2.4342745829   -1.6543615649   -1.6082029749
 H   -0.6270069921   -1.8898609265   -1.4649183996
 H   -2.6579051422   -2.2581962276    0.8654889044
 H   -1.2728263366   -4.3459208876    0.1761727091
 H    1.3883847529   -6.3179467751    0.7142341333
 H    0.3003015288   -6.6392342888    2.0594317398
 H   -0.3683267934   -6.3890344962    0.4271853138