17

 O    0.9480008589   -0.0973039313   -1.0807940346
 C    0.0357558483   -0.0265914061   -0.0173862396
 C   -1.2344275994   -0.7873741509   -0.3586536755
 O   -1.3570462554   -1.3685617736   -1.4110379514
 C    0.6338487648   -0.5981388291    1.2625309948
 C    1.2468322824    0.3034147509    2.3077701347
 O    1.1210555967    1.6839605746    2.0736595639
 C   -0.0474053952   -0.4113681907    2.6099700320
 O   -1.2042728117    0.3687876937    2.6900896091
 H    0.5082393330   -0.6397638306   -1.7555484464
 H   -0.2572801214    1.0187191482    0.1629153326
 H   -2.0261831454   -0.7762265351    0.4129033831
 H    1.1435452821   -1.5435961254    1.1020888593
 H    2.1790099201   -0.0025207612    2.7758112068
 H    1.3643234171    2.1455387495    2.8833715627
 H   -0.0640678161   -1.2431969294    3.3075993203
 H   -0.9168808688    1.2856657764    2.5697836981