19

 C   -0.0378036040    1.5517606963    0.0282219556
 C    0.0662306995    0.0440773933    0.1206340283
 C    1.2973775134   -0.7853136509   -0.2031534569
 C    2.5834592922   -0.0794575576    0.2712087344
 C    2.0013988177   -0.0797871048    1.7340240478
 C    0.7252749229   -0.7483569732    1.2134956193
 O    0.0864748093   -1.7749562285    1.8862502655
 C    3.8086147029   -0.9453166945    0.1528580889
 O    4.8464307089   -0.6082306740   -0.3562757753
 H    0.8569286717    2.0557092580    0.4024418975
 H   -0.1846411134    1.8687017126   -1.0098012696
 H   -0.8897218877    1.9200246385    0.6104373701
 H   -0.8250102305   -0.4776547561   -0.2259914763
 H    1.2632061170   -1.5751973104   -0.9441303335
 H    2.7970651883    0.8962501977   -0.1708232954
 H    2.5581809140   -0.7570773712    2.3876876887
 H    1.9124625517    0.8931490246    2.2264798136
 H   -0.6640540078   -1.4082038238    2.3658928954
 H    3.6859728539   -1.9645977459    0.5909345420