15

 C   -0.0200464957    1.5036541654    0.0965364153
 C   -0.0091085187    0.0136447195   -0.0230721384
 C   -0.0245552362   -0.7724997166   -1.1278597960
 O   -0.0062999797   -2.0703330143   -0.8009411276
 N    0.0231142346   -2.1961335933    0.5897484368
 C    0.0210318552   -0.9583912146    1.0322792715
 N    0.0454765872   -0.6219555437    2.3817734245
 C    0.0733464704   -1.4684175572    3.4732167540
 O    0.0818825285   -2.6695102070    3.4402917485
 H    0.8721217160    1.8781856848    0.6132835008
 H   -0.0448338015    1.9731627076   -0.8897479561
 H   -0.8965271483    1.8621880778    0.6501503322
 H   -0.0480540415   -0.5495452102   -2.1837987225
 H    0.0419427380    0.3657618438    2.5847135399
 H    0.0877770817   -0.8771000221    4.4110337871