20

 C    0.0253914239    1.5817527208   -0.1387634904
 C    0.0081162989    0.0612724792   -0.0078407769
 C   -1.3968085684   -0.5168244257    0.0868714067
 O    0.6185221174   -0.5351805069   -1.1715762579
 C    1.9500033323   -0.6798395516   -1.1593391589
 N    2.5668391453   -1.0823763051   -2.1829916147
 C    3.9959525783   -1.2584947881   -2.0702287399
 C    4.3969292624   -2.6751046486   -2.4647027613
 O    5.3994966239   -3.2197206053   -2.0838921084
 H    1.0495302489    1.9590572219   -0.2162876537
 H   -0.5224911981    1.8911716670   -1.0338257685
 H   -0.4432109019    2.0452864523    0.7347998560
 H    0.5871987268   -0.2395382578    0.8769164470
 H   -1.9768450820   -0.2548365472   -0.8029659465
 H   -1.3609929275   -1.6062150330    0.1656961615
 H   -1.9120060055   -0.1189395525    0.9658141412
 H    2.4310160848   -0.4360510752   -0.1983052899
 H    4.4983936931   -0.5927791983   -2.7902960196
 H    4.4199265549   -1.0390814733   -1.0772757654
 H    3.6798957124   -3.1664935326   -3.1581083904