12

 O   -0.0347322754    1.2863563424    0.0093296732
 C    1.2088802027    1.7620194060   -0.0000251802
 C    2.0940955745    0.7133874456   -0.0141227491
 C    3.4954546530    0.4766254503   -0.0288041481
 N    3.9969777160   -0.7274739010   -0.0400804237
 N    3.1670190014   -1.8358376991   -0.0380976914
 C    1.8705033336   -1.7104820791   -0.0250141953
 C    1.2407466795   -0.4287330856   -0.0120945216
 N   -0.0408900111   -0.1051045656    0.0019273299
 H    1.3070524849    2.8361622324    0.0047996079
 H    4.2139244933    1.2923800902   -0.0313006975
 H    1.2872915876   -2.6267941465   -0.0243495542