21

 C   -0.0071271109    1.5494583847    0.0225751980
 C    0.1312758908    0.0291132602    0.0532371324
 C    0.8021213174   -0.5883347196   -1.2042471630
 C    1.4928445092   -1.8114242053   -0.6564328027
 C    1.5902060583   -1.7805306663    0.6763063714
 C    0.9646307759   -0.5211237851    1.2408509361
 C    2.2429713862   -2.8046132064    1.5101540827
 C    2.8933632421   -2.4957076929    2.7980862827
 O    1.6169836672   -3.1226930267    2.7698179679
 H    0.9743496984    2.0323041030   -0.0519445801
 H   -0.6049820815    1.8775352822   -0.8345831362
 H   -0.4942321161    1.9240825565    0.9292501522
 H   -0.8705138062   -0.4114065682    0.1313336439
 H    0.0789960379   -0.8172859457   -1.9955108260
 H    1.5329029875    0.1053260716   -1.6487097843
 H    1.8908952578   -2.6004883283   -1.2865481555
 H    1.7457345869    0.1954053754    1.5381235010
 H    0.3610852115   -0.7157983755    2.1328106812
 H    2.6041798950   -3.6803586116    0.9703251785
 H    3.7194807593   -3.1192016793    3.1391137751
 H    2.9044517833   -1.4704774227    3.1644342547