20

 C    0.0099899844    1.6412228888    0.1019916767
 C    1.5450473297    1.3329645166    0.0071091040
 C    1.7159947066    0.5330039124    1.3026157659
 C    1.8219240894   -0.9517981517    1.2432891539
 C    2.2886620746   -1.7333198081    0.0361814216
 C    2.0897441810   -0.9331407803   -1.2617832747
 C    1.1445188434    0.2319868297   -1.0179310025
 C   -0.0657503453    0.0949841526   -0.0427940000
 N    0.4839877569   -0.3209712514    1.2915332496
 H   -0.3682601467    2.0616115199    1.0366611170
 H   -0.3784376173    2.1853998767   -0.7620856464
 H    2.2888797870    2.0960036172   -0.2238140376
 H    1.9394767024    1.0678234305    2.2224809949
 H    2.0459383402   -1.4383224073    2.1917991733
 H    3.3372847214   -2.0180563764    0.1734035781
 H    1.7199139177   -2.6711044800    0.0049030548
 H    3.0464515853   -0.5359988176   -1.6226388070
 H    1.7036064522   -1.5769295775   -2.0589869201
 H    0.8252166341    0.6934253889   -1.9552808011
 H   -0.9814271070   -0.4368951130   -0.3006923503