16

 C   -0.1089421063    1.5093692463    0.0273934927
 C    0.0853735760    0.0076189022    0.0836726936
 O    1.1819297375   -0.5013601570    0.2691716962
 N   -1.0502235734   -0.7376044391   -0.0872981470
 C   -1.1142158950   -2.1281905930   -0.0745111126
 N   -2.2251534780   -2.8064962770   -0.2426000873
 C   -1.8324949398   -4.1272084953   -0.1572470377
 C   -0.4853987770   -4.2226107083    0.0618333139
 N   -0.0294759744   -2.9187568305    0.1137679044
 H    0.5197887629    1.9147786379   -0.7698471414
 H   -1.1442227427    1.8121052663   -0.1451464151
 H    0.2384263306    1.9435355444    0.9687204205
 H   -1.9391950184   -0.2872984038   -0.2383076856
 H   -2.5481407017   -4.9280133693   -0.2594777095
 H    0.1793689005   -5.0607432866    0.1830960081
 H    0.8977584392   -2.5441814172    0.2572460670