18

 C    0.0017968821    1.4389479388    0.0190964524
 N    0.0114528589   -0.0102189919    0.0182408973
 C   -0.0018415073   -0.7968978456   -1.0927542723
 C    0.0136506105   -2.1229628696   -0.6922808382
 C    0.0064710174   -3.2711306976   -1.5816790784
 O    0.0201121620   -4.4322337458   -1.2280394565
 C    0.0374062798   -2.1201098802    0.7367368915
 C    0.0357311695   -0.8152148606    1.1549057112
 C    0.0549425240   -0.2323716574    2.5288867663
 H    0.8961087375    1.8392299641    0.5074444221
 H   -0.0184700149    1.7943159390   -1.0120954392
 H   -0.8803349371    1.8273276652    0.5382223449
 H   -0.0211522146   -0.3636420297   -2.0811815653
 H   -0.0133412044   -3.0076731005   -2.6654158373
 H    0.0536693892   -2.9955929345    1.3665903334
 H    0.9373955425    0.3955118797    2.7047971800
 H   -0.8283081368    0.3855232700    2.7337278421
 H    0.0715605716   -1.0386418733    3.2649553458