17

 C   -0.2824865327    1.6193370261    0.2836736241
 C    0.2370439667    0.1976127400    0.0197688544
 N    0.8322170165   -0.3828547563    1.2119055243
 C    0.0891023013   -1.0409873710    2.0174706937
 N   -1.2425551278   -1.3503455401    1.9343403779
 C    0.7364715892   -1.6249227766    3.2524334783
 O    0.0697090929   -2.2122219459    4.0841346563
 C    2.1626572943   -1.4485574063    3.3958338433
 C    3.3448482155   -1.3561472803    3.5997871135
 H    0.5227545688    2.2500405921    0.6698415227
 H   -0.6644676877    2.0672068948   -0.6388837663
 H   -1.0896076178    1.6204673251    1.0239584620
 H   -0.5724549093   -0.4281627133   -0.3910454774
 H    1.0165480325    0.2440978058   -0.7483001492
 H   -1.8524221553   -0.7872608297    1.3685945575
 H   -1.6350835855   -1.7638143804    2.7674768889
 H    4.3910524284   -1.2642100439    3.7626549660