20

 C    0.3558136944    1.5594466882    0.0049537263
 O   -0.1283424817    0.2646207629   -0.2871733052
 C    0.6666614443   -0.4452603064   -1.2119194850
 C    1.9987282690   -0.7632244896   -0.6666755974
 C    3.0860822004   -1.0287823020   -0.2281606437
 C   -0.0284343662   -1.7314501989   -1.6544555129
 N   -0.7949782236   -2.4990778187   -0.6760827439
 C   -1.4895732714   -1.9486889621   -1.8543537492
 C   -2.5873778064   -0.9379935887   -1.6228182066
 H    1.3515455554    1.5256841030    0.4662628262
 H    0.4095548531    2.1845880830   -0.9002151708
 H   -0.3500724922    2.0089578398    0.7064651097
 H    0.8149263182    0.1715439135   -2.1179359626
 H    4.0450415391   -1.2636740945    0.1634934728
 H    0.6214829023   -2.2854499133   -2.3317806960
 H   -0.6162819841   -3.4939596532   -0.7751780716
 H   -1.7128978203   -2.6583768397   -2.6529274296
 H   -2.3435606072   -0.2886532411   -0.7841769046
 H   -2.7376591955   -0.3210500453   -2.5161911773
 H   -3.5310531975   -1.4536401867   -1.4128722987