16

 O    0.1228836750    1.3537788781   -0.1807978744
 C    0.0981543440   -0.0552425565   -0.1829265744
 C   -1.3164810941   -0.5888421151    0.0414302886
 O   -2.1351972843   -0.0460836333   -1.0163946231
 C   -3.1899532528   -0.7714357075   -1.4603751468
 N   -3.5021812863   -1.9700900564   -1.2242988027
 C   -2.6265453722   -2.7797054245   -0.3947650449
 C   -1.3730192633   -2.1100421663    0.1415630517
 O   -0.4759479883   -2.7255389313    0.6660159619
 H   -0.4801698708    1.6476487918   -0.8727800650
 H    0.4907438743   -0.4748475166   -1.1218715223
 H    0.7361880908   -0.4011321803    0.6319979934
 H   -1.7023558632   -0.1818593705    0.9884255216
 H   -3.8015056838   -0.1581688166   -2.1192769951
 H   -3.1937886121   -3.1612772329    0.4661714859
 H   -2.3189343631   -3.6724395220   -0.9525991644