18

 C   -0.0419798283    1.5193726410    0.1169996439
 C   -0.0023106129    0.0357055362   -0.0359955917
 C   -0.0142298751   -0.7740032173   -1.1519837848
 C   -0.0884217275   -0.3715696842   -2.5924370705
 C    0.0672809400   -2.1273636764   -0.6834747639
 O    0.0097410666   -3.3008957161   -1.4142841056
 C    0.1160330053   -2.0962891150    0.6845339287
 O    0.1709508710   -3.0887843393    1.6076615332
 N    0.0734984293   -0.7905238934    1.0801051002
 H    0.8884655096    1.9253921842    0.5371133690
 H   -0.1924533692    1.9963151441   -0.8540733188
 H   -0.8615805171    1.8465902818    0.7704523374
 H    0.8598399042   -0.5369540459   -3.1218564108
 H   -0.8528146159   -0.9497704340   -3.1241784163
 H   -0.3365079854    0.6873761848   -2.7042983376
 H    0.7893533425   -3.3538608645   -1.9775357252
 H    0.1372033795   -3.9171008648    1.1139398752
 H    0.0716114634   -0.4893077912    2.0386678776