19

 C   -0.1496964697    1.5069791717    0.0918598569
 C    0.1576642375    0.0493978820   -0.0004352841
 O   -0.7047235316   -0.8795896666    0.7058883134
 C    0.7084877823   -0.9109781306    0.9751585208
 C    1.3156727611   -1.7812900320   -0.1454154531
 O    0.8643797217   -3.1040450981   -0.2267881277
 C    0.7382931869   -0.7452765153   -1.1565806875
 C    0.1376912469   -1.0350957730   -2.4956060567
 C    1.4171964593   -0.2345708502   -2.3905920007
 H    0.7192848254    2.1034671362   -0.2029506781
 H   -0.9825422870    1.7740666739   -0.5684926690
 H   -0.4292576231    1.7732848503    1.1142546186
 H    1.0214308082   -0.7850248071    2.0060892528
 H    2.4088484464   -1.8066011251   -0.1384510135
 H   -0.0946700762   -3.0568431148   -0.1164349145
 H    0.2045534382   -2.0602115106   -2.8457458658
 H   -0.7714294459   -0.5171721446   -2.7834999133
 H    1.3682591877    0.8293698794   -2.6020001320
 H    2.3481890620   -0.7044779955   -2.6921954465