19

 C   -0.0479175054    1.4521911805    0.0435659158
 C    1.3359283027    0.8040844652   -0.0579688487
 C    2.1940990959    0.4410540824   -1.2436964855
 O    2.3039060147   -1.0014860814   -1.3115950642
 C    1.0930506642   -1.7248540653   -1.0402452028
 C    0.8754245029   -2.0136112397    0.4834846671
 O   -0.0152440222   -0.9792136338    0.9813958994
 C    0.0696880472   -0.0217160873   -0.0439125112
 C   -0.1187731925   -0.8289851768   -1.3160336023
 H   -0.2598480665    1.9131728455    1.0016969983
 H   -0.4885425886    1.9654054725   -0.8062798021
 H    1.8560177754    0.7897137379    0.8952907511
 H    1.7958502094    0.8412871888   -2.1857470733
 H    3.2235364943    0.7945240481   -1.1482252665
 H    1.1591627775   -2.6473247792   -1.6212458488
 H    0.3956406852   -2.9820876699    0.6544228520
 H    1.8343524525   -1.9798957092    1.0120865768
 H   -0.0505500827   -0.2779408411   -2.2534529679
 H   -1.0635620442   -1.3781139073   -1.2858094571