16

 N    0.0844600209    1.2925802986    0.0701492944
 C    0.0605841842    0.0376327256    0.1668643911
 O    1.1386482678   -0.7925058820    0.2673229516
 C    0.6645576197   -2.1377032316    0.2654700924
 O   -0.7016180868   -2.0922572681    0.5852797670
 C   -1.1832567055   -0.8177754978    0.1982710365
 C   -2.4111821473   -0.3307452973    0.9868198945
 O   -3.2301407739   -0.3169816095   -0.1980576810
 C   -2.1412019964   -0.7623954759   -1.0240489360
 H    1.0402167649    1.6495955396    0.0568100189
 H    0.8379401436   -2.5716132707   -0.7313338668
 H    1.1985669715   -2.7094615621    1.0291744306
 H   -2.7594037418   -1.0523387227    1.7343325582
 H   -2.3008314504    0.6646368751    1.4283899455
 H   -1.8768048053   -0.0288647721   -1.7932581332
 H   -2.3270920652   -1.7444487491   -1.4752468135