15

 C   -0.1774384347    1.4348856766   -0.1034681103
 C    0.0110725836   -0.0339974165    0.2209501540
 N    0.2224728311   -0.5463910830    1.3641943468
 N   -0.0832774047   -0.8282124019   -0.9212201068
 C    0.0365403612   -2.1944313668   -1.0421355599
 N    0.2341638714   -2.7415005913   -2.2432992521
 N    0.2392837708   -4.0319973663   -1.9197261602
 N    0.0697561889   -4.2838136995   -0.6368448032
 N   -0.0677715498   -3.1191567419   -0.0510873466
 H    0.5707572058    1.7780859172   -0.8275476410
 H   -1.1663803994    1.6152060943   -0.5391590677
 H   -0.0807564986    2.0375336548    0.8002469844
 H    0.2448121554    0.1819263741    2.0750134138
 H   -0.1033435975   -0.3516386168   -1.8081032868
 H    0.3709264665   -4.7630747131   -2.6017342042