22

 O   -0.2028120768    1.5287484327   -0.3754396406
 C   -0.0436242647    0.2018543539    0.1057893825
 C   -1.3668909266   -0.5270204699   -0.0833862675
 C   -1.3053886814   -1.9833237463    0.3764436137
 N   -2.6230970932   -2.6061319081    0.2389222338
 C   -2.9439562310   -3.2463250147   -1.0319420814
 C   -2.7258950081   -4.0632478921    0.1976303243
 C   -1.5355729068   -5.0034653931    0.3429518520
 O   -0.5298887438   -4.8866221128   -0.6516454193
 H    0.6295209230    1.9938523248   -0.2515989012
 H    0.7559432648   -0.3257727940   -0.4402809332
 H    0.2360874622    0.1967911983    1.1724723600
 H   -2.1527553815   -0.0006296560    0.4682773088
 H   -1.6406258862   -0.4832587135   -1.1443995455
 H   -0.5222152708   -2.5255432895   -0.1736065155
 H   -1.0384112055   -2.0221855075    1.4408585650
 H   -3.9459247946   -3.0784427041   -1.4189317950
 H   -2.1621346090   -3.2740621788   -1.7900272217
 H   -3.6055311647   -4.4374083725    0.7226348230
 H   -1.0269459992   -4.8143918384    1.2953982697
 H   -1.9243570860   -6.0324123354    0.3906087413
 H   -0.9180063800   -5.1559490231   -1.4904272531