20

 C   -0.7193020004    1.2483820274    0.0069389037
 C    0.1066508728   -0.0376339322   -0.0848434149
 C    1.2611823165    0.0036361059   -1.0600207087
 C    2.3146907275   -0.6836699494   -0.6217989740
 C    2.0475919735   -1.2993597265    0.7287250576
 C    0.7843897388   -0.5330023542    1.2320357127
 C    1.2035869174    0.6092751289    2.1630277941
 O   -0.1564805203   -1.3777325011    1.8922468917
 H   -0.1015724360    2.1190242985    0.2481028350
 H   -1.2128465085    1.4499242974   -0.9496160454
 H   -1.4996098960    1.1573560110    0.7689306949
 H   -0.5787769404   -0.8454533775   -0.3823668832
 H    1.1931218246    0.5113262997   -2.0166665760
 H    3.2425828540   -0.8290816583   -1.1641377200
 H    1.8094922740   -2.3679677004    0.6383355058
 H    2.8936850576   -1.2169836099    1.4222499653
 H    1.8983325118    1.2917318674    1.6638703722
 H    0.3378274943    1.1795612066    2.5079424927
 H    1.7173236557    0.2032527219    3.0433315274
 H    0.1990442229   -1.5982317752    2.7595697989