14

 O   -0.0303866973   -0.0499257328    0.2959604815
 C   -0.0505105936    1.1303862600    0.0728321001
 N   -1.2142684102    1.8794293664    0.0566026641
 C   -1.2229111299    3.2704309036    0.0323946811
 C   -0.1304904777    3.9419771017   -0.3209931029
 C    1.0743784889    3.1433699671   -0.7468919950
 O    1.0932419690    1.8313293415   -0.1223823255
 C    1.1625248774    3.0115543597   -2.2042819096
 C    1.2298186277    2.9249713129   -3.4006803192
 H   -2.0387479809    1.3644887975    0.3176651281
 H   -2.1535256887    3.7392273171    0.3277298917
 H   -0.0892650743    5.0210087850   -0.3439983261
 H    1.9944271118    3.6105215066   -0.3801815424
 H    1.2909293777    2.8416655937   -4.4579903561