20

 C    0.0384536003    1.6010398358   -0.0123429689
 C    0.0269679034    0.0684159837    0.0258492575
 C    0.7229340355   -0.5944232264   -1.1989828397
 C    1.5112789872   -1.7841234859   -0.6324790877
 C    1.3558838039   -3.1943905501   -1.1716754290
 C    2.6397956419   -2.4379082538   -1.3926526327
 C    1.5737097986   -1.5351731794    0.8320963092
 C    0.7774510024   -0.5313945098    1.1983244992
 H    1.0650483167    1.9818187838   -0.0508484487
 H   -0.4948552328    1.9777299562   -0.8918873000
 H   -0.4435021127    2.0246038062    0.8755207817
 H   -1.0239935164   -0.2554323250    0.0770979021
 H    0.0130634873   -0.8876629567   -1.9777719999
 H    1.4176815959    0.1255924262   -1.6489602985
 H    1.3584367406   -4.0170933184   -0.4639840264
 H    0.6930228001   -3.3377560418   -2.0191149678
 H    2.8503156326   -2.0697934603   -2.3920970117
 H    3.5210807843   -2.7467595563   -0.8393059026
 H    2.1838306180   -2.1376624443    1.4973656165
 H    0.6347309433   -0.1818964636    2.2155313174