17

 C   -0.0342300040    1.5746926962    0.0195997403
 C    1.5126900624    1.5039834274    0.0127682821
 C    2.0607290696    1.4799995041    1.4472832952
 C    1.7693434870    0.0508088203    1.8686956861
 C    0.5095181477   -0.6395480624    1.3482598808
 C    1.8585740070   -0.8337272229    0.6703129555
 N    1.4400272048    0.0397498181   -0.4683095667
 C    0.0194961124    0.0399367528    0.0639653113
 H   -0.5081634676    2.1054337201    0.8487320510
 H   -0.4446193109    1.9324817037   -0.9276651911
 H    2.0537753824    2.1671543750   -0.6637205663
 H    3.1418504124    1.6608140703    1.4768875737
 H    1.5786591740    2.2385071507    2.0728373546
 H    2.1390583884   -0.3245775237    2.8170656255
 H   -0.0534219026   -1.3215951429    1.9748235478
 H    2.4998777245   -1.6955859542    0.5328023256
 H   -0.7114181374   -0.5446863927   -0.5018984456