20

 C    0.0067559580    1.5004410634   -0.0818635587
 C    0.0082380946   -0.0033238412   -0.0157416602
 C    0.0015701329   -0.6966329725    1.3226290934
 C    1.2084507643   -0.3527044015    2.1907933972
 C    1.4481695433   -1.2089875241    3.4550131454
 C    2.8147381135   -1.5126633028    2.8089707361
 O    2.4586141299   -0.7918058439    1.6113513137
 N    0.0124973722   -0.7704873042   -1.0383320023
 O    0.0284341748   -0.0440007446   -2.2410221689
 H    1.0220145343    1.8785514908   -0.2495908715
 H   -0.6058645505    1.8442341348   -0.9177883834
 H   -0.3660903370    1.9371570027    0.8481270366
 H   -0.9013330694   -0.4064193199    1.8809149781
 H   -0.0337405887   -1.7768710114    1.1565912103
 H    1.2385702504    0.7287005333    2.3882957088
 H    1.4673798177   -0.6743993426    4.4056499196
 H    0.7830956806   -2.0711369386    3.5392952483
 H    3.6767465898   -1.0604095212    3.3162740128
 H    3.0386555534   -2.5654058395    2.6023679617
 H    0.0047848856   -0.7472809069   -2.8980107471