20

 O   -0.1424233093    1.4778957218   -0.0799109387
 C   -0.0021180550    0.0660498692    0.0253096323
 C   -1.4260222884   -0.4833939053    0.0952670879
 C   -1.5507743475   -2.0060267655    0.2215645292
 C   -0.9900536299   -2.8102553691   -0.9694574004
 C    0.5239976109   -2.9808786600   -0.9475635900
 O    1.0566287211   -4.0711120576   -0.8445728046
 N    1.2699655920   -1.8346937181   -1.0292693760
 C    0.7980318517   -0.4698252575   -1.1793342067
 H    0.7297806966    1.8775177545   -0.0016747975
 H    0.5436118128   -0.2091992380    0.9427986730
 H   -1.9245719519   -0.0024767671    0.9434087232
 H   -1.9536490102   -0.1443264429   -0.8064756205
 H   -1.0733136439   -2.3516757581    1.1469626573
 H   -2.6145563410   -2.2466440960    0.3222684032
 H   -1.3933872639   -3.8241762278   -0.9640635494
 H   -1.2992454770   -2.3372140121   -1.9111982929
 H    2.2643396793   -1.9991286867   -0.9916264212
 H    0.1958596118   -0.3488942872   -2.0902019772
 H    1.6848435617    0.1584983236   -1.3103659611