13

 O   -0.1200653903   -0.0114446974    0.0010671168
 C   -0.0347137998    1.1953133753    0.0098097628
 C    1.2375584598    1.9282225476    0.0015150444
 C    1.2496966325    3.2861625572    0.0122073647
 O    2.3592031910    4.0120213766    0.0056412589
 C    3.6596881493    3.4125811346   -0.0136743664
 O    4.5936593185    4.1583203155   -0.0177961403
 C    3.6551906493    1.9620625721   -0.0250220875
 C    2.5052649029    1.2532257721   -0.0179126500
 H   -0.9407517284    1.8403101282    0.0249062346
 H    0.3517577766    3.8978450761    0.0270717056
 H    4.6319530401    1.4954371348   -0.0394783684
 H    2.5008965985    0.1683600972   -0.0264503852