17

 C   -0.0303473162    1.5928554896   -0.0359586939
 C   -0.0306081476    0.0523047476    0.0043654863
 C    0.7579743012   -0.4976921448    1.2330285137
 C    2.1675494698   -0.1304844797    1.2102512283
 C    3.3294020928    0.1751455922    1.1672179488
 C   -1.3877758270   -0.4801545605    0.0076773822
 C   -2.5142783427   -0.9235717463    0.0250762396
 C   -3.7825821472   -1.4165518959    0.0434199394
 C   -4.9075166777   -1.8554215345    0.0596576635
 H    0.9978329545    1.9627021180   -0.0514988034
 H   -0.5503953489    1.9554431231   -0.9257234125
 H   -0.5359431315    2.0008907223    0.8444988561
 H    0.4793404897   -0.3150990133   -0.8961169918
 H    0.2856479652   -0.1239915975    2.1496430795
 H    0.6603517062   -1.5886326618    1.2567301278
 H    4.3579515700    0.4381619722    1.1440430626
 H   -5.8972099904   -2.2392076307    0.0740421339