23

 O    0.3312613703    0.9782711677   -0.7114695857
 C    0.0540553049   -0.1410430928    0.0994748522
 C   -0.2166451312    0.0634754985    1.6136910313
 C   -1.4015225356   -0.9334728055    1.4820393080
 C   -1.3781042207   -0.7213207388   -0.0636599498
 C   -2.4092389752    0.2742642020   -0.6057196318
 C   -3.8014731367   -0.3144379865   -0.7177760355
 C   -4.8050728262   -0.1980454314    0.4047456277
 C   -5.0031378623    0.5821924791   -0.8717904173
 H    1.2204267124    1.2855928413   -0.5094186213
 H    0.8045808535   -0.9307422286   -0.0545377634
 H    0.5858447051   -0.1775084521    2.3158489799
 H   -0.5601403939    1.0841021414    1.8044335640
 H   -1.1208747372   -1.9511828584    1.7658690494
 H   -2.3275456274   -0.6758902205    1.9984335539
 H   -1.4265240035   -1.6384162106   -0.6603444022
 H   -2.4407528642    1.1719447902    0.0249980148
 H   -2.0739112693    0.6156105699   -1.5922596567
 H   -3.8421851201   -1.2444028443   -1.2814628384
 H   -5.4625383631   -1.0369731908    0.6057170308
 H   -4.5148879987    0.3570043598    1.2908485603
 H   -4.8404318064    1.6548807472   -0.8388620842
 H   -5.7954114947    0.2765064531   -1.5464216757