23

 O   -0.1739299274    1.5306075346    0.2558460967
 C    0.0341695665    0.1325537866    0.0884834068
 C   -1.3344419360   -0.5157280611   -0.0520800646
 C   -2.1018663794   -0.1317528265   -1.3616053090
 C   -2.5268459105   -1.5015945638   -1.9392784380
 C   -1.2727306175   -2.2035785799   -2.5114238079
 C   -0.4792543587   -2.6121950260   -1.2276154358
 C   -1.3618303075   -2.0654872256   -0.0808159455
 C   -2.7754793763   -2.3170250887   -0.6507021886
 H    0.6855219891    1.9610599090    0.2792264849
 H    0.6487359639   -0.0629781015   -0.8038051488
 H    0.5663430358   -0.2940732133    0.9552592789
 H   -1.9160049584   -0.1832433152    0.8157447788
 H   -2.9702313975    0.4945419459   -1.1394440831
 H   -1.4707587008    0.4332042199   -2.0551422816
 H   -3.3584334313   -1.4457411563   -2.6448119608
 H   -1.5485719054   -3.0836708936   -3.1005656888
 H   -0.7000856911   -1.5416287632   -3.1684052997
 H   -0.3975133423   -3.7007739523   -1.1478616216
 H    0.5406411842   -2.2199084478   -1.2138118319
 H   -1.1474410894   -2.5187653139    0.8900501919
 H   -3.5727969370   -1.9057022154   -0.0236347257
 H   -2.9828071830   -3.3756680920   -0.8384972267