17

 C    0.0762347778   -1.1540021765    0.1125554558
 C   -0.0186324332    0.0459592173    0.0443773405
 C   -0.0756713262    1.4541871441   -0.0512840250
 C   -1.1704154689    2.2391403771   -0.0969126754
 C   -0.7482113703    3.6835000526   -0.0223300826
 C   -0.1625672767    3.9191244717    1.4318274268
 C    1.2093338402    3.5380215280    0.8933960265
 C    0.7327743448    3.6998304351   -0.5334296262
 C    1.1439811246    2.3316840677   -0.0736620497
 H    0.1426427349   -2.2113643851    0.1786070934
 H   -2.1948387631    1.8979873989   -0.0196096762
 H   -1.4577983817    4.4238450801   -0.3866741612
 H   -0.1872969439    4.9825117196    1.6830177809
 H   -0.6005862460    3.3343834296    2.2473615933
 H    2.1616240760    3.8109486510    1.3319498353
 H    1.1481028770    4.2428936814   -1.3733470773
 H    2.1020651947    1.9237951174   -0.3715674990