20

 C   -0.0838534125    1.6542505554    0.0893391109
 C    0.0087050409    0.1356529623    0.0317211921
 O   -1.3326800757   -0.3733005864   -0.0665501040
 C   -1.9230357116   -0.3264897724   -1.2742250246
 N   -3.1338537690   -0.6649692569   -1.4018022096
 C    1.1070260152   -0.6070354251   -0.8074338878
 C    2.1240657077   -0.1894132938    0.2948313207
 C    0.8550577308   -0.6625834845    1.0645828732
 C    0.8206185273   -1.8656159560    0.0719474562
 H    0.8781273797    2.1402294070    0.2522864423
 H   -0.5042935381    2.0478383353   -0.8421614358
 H   -0.7590276740    1.9418387398    0.9006665453
 H   -1.2554462007    0.0053238309   -2.0805493946
 H   -3.4106299708   -0.5893170695   -2.3785646178
 H    1.2602117702   -0.5681952434   -1.8872064726
 H    2.9934591509   -0.8425192780    0.3910822658
 H    2.4179718861    0.8574064354    0.3636573314
 H    0.7013483636   -0.6857734184    2.1438827313
 H   -0.1328284800   -2.3715206456   -0.0614328202
 H    1.6487651100   -2.5719634061    0.1598839977