21

 C   -0.4716009808    1.3722536811    0.1815725815
 C    0.0739555938   -0.0463602268    0.0414805432
 C    1.1593904063   -0.2420656383   -1.0323370772
 C    1.7477116307   -1.6364276995   -0.7283530159
 C    1.5235666219   -1.8584852363    0.7968136418
 C    0.7483866606   -0.6250272618    1.2984188599
 O    1.6911941668    0.3423293447    1.8133337528
 C    1.5756529024    0.7449544695    3.0890812103
 O    2.3165176030    1.5368391719    3.5911358280
 H    0.3279263566    2.0780159900    0.4229710929
 H   -0.9400502475    1.6989064524   -0.7519912261
 H   -1.2295022539    1.4362324346    0.9703895753
 H   -0.7588314236   -0.7274570387   -0.1881119135
 H    0.7657227398   -0.1577663421   -2.0490167076
 H    1.9251405427    0.5322729481   -0.9108102011
 H    1.2191051751   -2.4046142545   -1.3013960934
 H    2.8024124684   -1.7076605971   -1.0038587325
 H    0.9394692933   -2.7644882088    0.9828181374
 H    2.4585548098   -1.9578828916    1.3523846199
 H    0.0311818650   -0.8643733480    2.0921430887
 H    0.7273645696    0.2640626412    3.6156937657