12

 O   -0.0175371180   -0.0544663718   -0.0013593052
 C   -0.0062818174    1.1371906975    0.0064942856
 N    1.1821933210    1.9144067297   -0.0006690429
 N    2.4029691699    1.3249821407   -0.0184243155
 C    3.2208912075    2.3595304633   -0.0194356954
 N    2.6212983961    3.5835297605   -0.0035139965
 C    1.3397346733    3.2915104518    0.0083388362
 C    0.2321123580    4.2801190536    0.0279754453
 O    0.4198367886    5.4676408988    0.0358702865
 H   -0.9042218978    1.7739359361    0.0223872733
 H    4.2930251094    2.2315885912   -0.0320952228
 H   -0.7919972006    3.8553611485    0.0349969312