19

 C   -0.6058519991    1.3123286508    0.0696384307
 C    0.1812223404    0.0084441133   -0.0236455335
 C    1.1059103862    0.0054559939   -1.2576987959
 O    1.8595592619   -1.2064750982   -1.4258403065
 C    2.1462697682   -1.8848878137   -0.2333144887
 C    3.5947326808   -1.9461878670    0.3691146535
 N    2.9857325614   -1.5303111804    1.6681877367
 C    1.8387814990   -1.0910954311    1.0134932165
 N    1.0022604619   -0.1621926305    1.1981700750
 H    0.0742577619    2.1668219468    0.1464265956
 H   -1.2493309992    1.4543766561   -0.8046453537
 H   -1.2310861780    1.3039673479    0.9660587111
 H   -0.5273709639   -0.8281680038   -0.1229308053
 H    0.5257686308    0.1169051806   -2.1787993228
 H    1.7915622337    0.8625101312   -1.1752872907
 H    1.6919079836   -2.8815562363   -0.2585321681
 H    4.0938518091   -2.9172664499    0.3957952999
 H    4.2460580449   -1.1872386128   -0.0758647202
 H    3.4670863366   -0.9401807671    2.3357191464