16

 O    0.0143171528   -0.0583369533    0.1286733789
 C   -0.0052049233    1.1470575479   -0.0127036267
 C   -1.3078544910    1.9459208027   -0.0708226181
 N   -1.2356038390    3.1720663439   -0.8665962226
 C   -0.1186977267    4.0358880247   -0.4612488362
 C    1.1883763326    3.2874579875   -0.2397592909
 C    1.2293709932    1.9600344791   -0.0811520640
 C    0.0665074165    5.1119891611   -1.4353927023
 C    0.2439564560    5.9780244660   -2.2482200662
 H   -2.1027044587    1.3016918676   -0.4542075442
 H   -1.5820180404    2.2124131864    0.9609079347
 H   -1.1089302898    2.9331653118   -1.8458887295
 H   -0.3982250727    4.4971637798    0.5025012219
 H    2.0942220818    3.8877375001   -0.2084013450
 H    2.1646864505    1.4251746757    0.0534835661
 H    0.3889840481    6.7514300190   -2.9618119960