20

 C   -0.0297377244    1.5188901700    0.0279813236
 C    0.0897120438   -0.0089752083    0.0124252192
 C    0.6786912861   -0.5574336639    1.2722072070
 C    0.6223951899   -0.1330784892    2.6998055446
 C    1.0158965724   -1.5506249717    3.1719085069
 C    1.0752100769   -1.9972817960    1.6999616368
 C    2.2880777439   -1.4041653987    2.3731114005
 C    3.6853086003   -1.8752991589    2.5703006318
 N    1.9133876924    0.0161471334    1.9280144886
 H    0.9436598319    1.9766704996    0.2238547772
 H   -0.4008682947    1.8888947920   -0.9317761223
 H   -0.7229657906    1.8531053868    0.8067487501
 H   -0.8964333923   -0.4656902379   -0.1468245616
 H    0.7162162553   -0.3249777878   -0.8328912853
 H    0.1486595459    0.7093378625    3.1907782081
 H    0.7921888609   -2.1366980521    4.0523455250
 H    0.9018558780   -2.9778492043    1.2778187043
 H    4.2605719328   -1.7950986498    1.6411999215
 H    4.1947943644   -1.2820009235    3.3376264499
 H    3.6937127273   -2.9236988121    2.8872748741