20

 C    0.0133132231    1.5206873649   -0.1756868162
 C    1.5320167703    1.5507980921    0.1314333072
 C    1.4088420872    0.0711139574    0.5166445873
 C    2.3555452363   -0.8600539564    1.3266906949
 C    1.4687231588   -2.0246991246    0.8457744966
 C    1.6367157058   -1.0978506510   -0.4067364781
 C    3.1584158054   -1.0190601105   -0.0557895196
 C    0.3325959925   -0.7415096425   -1.1513023565
 N   -0.1080314673    0.0512835805    0.0911952574
 H   -0.5854861714    2.0866778180    0.5440264113
 H   -0.2933648898    1.8104714851   -1.1850494433
 H    2.1979044365    1.7713250720   -0.7100114634
 H    1.8088992867    2.2062448512    0.9611496129
 H    2.8094315965   -0.7281183410    2.3134513590
 H    1.9452243433   -3.0061647005    0.7753452583
 H    0.4660221979   -2.0813498541    1.2698498737
 H    3.7031790179   -0.1426816100   -0.4135228180
 H    3.7620946449   -1.9275999055   -0.1435805919
 H    0.4452473951   -0.1020057763   -2.0340337925
 H   -0.3305536094   -1.5768035986   -1.3891210593