17

 C    0.1025050120   -1.1619273561    0.0243898992
 C    0.0200735393    0.0366707538   -0.0020376553
 C   -0.1118376108    1.4737359836   -0.0247114192
 C   -1.0218025843    2.1144537684    1.0310013872
 C   -1.0469755136    3.6105007570    0.6138293752
 C   -0.5422238351    3.6094668133   -0.8300264664
 C    0.8100448051    2.9686664456   -1.0706268406
 O    1.1911104467    2.1736625373    0.0540604305
 C   -0.4308052311    2.1954469699   -1.3661364371
 H    0.1851560384   -2.2207035536    0.0439905956
 H   -2.0176472724    1.6616982366    0.9800196746
 H   -0.6223510753    1.9538604286    2.0352008098
 H   -2.0558454304    4.0271817200    0.6765299932
 H   -0.4011191803    4.2126224631    1.2589907716
 H   -0.8354885932    4.3978268353   -1.5148028832
 H    1.5972900317    3.3673302264   -1.6991306225
 H   -0.8524854669    1.7713699009   -2.2657487626