22

 C    0.1190675267    1.4554077123   -0.2060127833
 C    0.0378608743   -0.0332144656    0.1362020538
 O    0.7256862431   -0.3325488533    1.3499425373
 C   -1.3874730763   -0.5235119057    0.1835583810
 C   -2.4092338256   -0.2608057762    1.3068863828
 C   -2.9876951330   -1.7026878008    1.0727367253
 C   -4.4712820973   -1.8705334293    0.7695011923
 C   -1.9703545463   -1.8841044386   -0.0701012371
 N   -2.0638362288   -0.8244155522   -1.0727993860
 H    1.1621460543    1.7818094770   -0.2394751522
 H   -0.3446969749    1.6526013974   -1.1768303842
 H   -0.4055460125    2.0585903359    0.5465157527
 H    0.5561632518   -0.6079241405   -0.6391177201
 H    0.4437849316    0.3085752096    2.0108555225
 H   -1.9609178115   -0.1542696679    2.2978855026
 H   -3.0922537885    0.5793636135    1.1368905407
 H   -2.7091893903   -2.3433833067    1.9153175601
 H   -4.7845768675   -1.2618267508   -0.0864857647
 H   -4.7106381720   -2.9142611125    0.5386857303
 H   -5.0840319257   -1.5674068738    1.6253821502
 H   -1.4844012483   -2.8099981489   -0.3591973518
 H   -2.9926389333   -0.4120425228   -1.1404927726