18

 O   -0.1431766692   -0.0023879801    0.0523970229
 C   -0.0216545721    1.2012889110    0.1120454640
 C    1.2590538195    1.9206820734    0.0302661839
 C    1.2515213988    3.2646510996    0.0631776595
 C    2.4969081945    4.0488602321   -0.0439458006
 N    3.6125908364    3.6547136465    0.8695147020
 C    3.7161065079    3.3479738055   -0.5571031693
 C    3.5857586812    1.8917867203   -0.9537040661
 C    2.5405766018    1.1397435098   -0.1056950389
 H   -0.9099885727    1.8629746461    0.2307274439
 H    0.3080446668    3.8002253626    0.1453820919
 H    2.3886223897    5.1084103832   -0.2544607673
 H    4.1611916314    4.4813125533    1.0937000710
 H    4.4008067067    3.9433337882   -1.1581697750
 H    3.3003658063    1.8563043035   -2.0127911794
 H    4.5566870008    1.3913508905   -0.8696475291
 H    2.9526902601    0.9577038741    0.8924217152
 H    2.3201355522    0.1598362005   -0.5370980887