21

 C   -0.3448894239    1.5165450685   -0.1157680183
 C   -0.3800648845    0.0051648996   -0.3515678583
 C    0.7114443682   -0.5441833509   -1.2586573895
 C    1.3449030157    0.2691087317   -2.3059223856
 O    2.0230583486    0.0008591609   -1.0688326184
 C    0.6828832475   -2.0480758184   -1.4283453298
 O   -0.5008096128   -2.5234770353   -2.0218350017
 C    1.9269518256   -2.7882309542   -1.8036246056
 C    1.3617176380   -2.9196592059   -0.4021048836
 H    0.6524564030    1.8325931189    0.2010680739
 H   -0.6107376928    2.0755993187   -1.0180772070
 H   -1.0582282144    1.7972339543    0.6642283337
 H   -0.2943030441   -0.5159515390    0.6115834727
 H   -1.3489653054   -0.2861314251   -0.7753979532
 H    1.7624377423   -0.2280438794   -3.1794421763
 H    1.0542320905    1.3064495849   -2.4528586083
 H   -1.1736085704   -2.5884297652   -1.3359618089
 H    1.7964868379   -3.6270954574   -2.4768497450
 H    2.8406648890   -2.2186865304   -1.9207359171
 H    1.8999351969   -2.4348893108    0.4050450974
 H    0.8727304450   -3.8521304254   -0.1415782712