17

 N   -0.0776671539    1.3143181163   -0.2082247785
 C   -0.0095213580    0.0848099480    0.0723005069
 O    1.1920652153   -0.5675821454    0.1507674821
 C    1.4608730528   -1.6104754344    1.0998211263
 C    0.7847125234   -2.9120002684    0.7377708868
 N    0.0580688725   -3.5840939459    1.8307480067
 C   -0.6960723921   -2.9307111341    0.7468345877
 C   -1.3978029526   -1.6411060806    1.1051275884
 O   -1.1657468989   -0.6181225433    0.1303276448
 H    0.8660066389    1.6865807759   -0.3013723028
 H    2.5488595158   -1.7104330863    1.0849294832
 H    1.1674336243   -1.3047222775    2.1088725912
 H    1.2895845873   -3.5268045556   -0.0023131164
 H    0.0695303612   -4.5909344281    1.6920716658
 H   -1.1930383269   -3.5579285253    0.0117278903
 H   -2.4830896252   -1.7660884698    1.1103912155
 H   -1.0956840339   -1.3110474655    2.1038343719