18

 N    0.1551282628    1.3435324537   -0.0105436090
 C   -0.0528591981   -0.0310599306   -0.0173519770
 C   -1.1764239661   -0.8125228500   -0.0071234889
 C   -0.6825860416   -2.1612623030    0.0673828160
 C    0.6618797926   -2.0819484188    0.0930516380
 C    1.4068227373   -3.3590526356    0.2455478497
 C    0.2276105598   -4.3694222993    0.0222163504
 C   -1.1252441010   -3.5897431711    0.1929364366
 O    1.0865770809   -0.7799643437    0.0512677447
 H    0.9988613492    1.6078305753   -0.5045135875
 H   -0.6388998451    1.8540355813   -0.3722399365
 H   -2.1943612883   -0.4603026272   -0.0606149323
 H    2.2127685862   -3.5078688909   -0.4825165455
 H    1.8583411059   -3.4686933649    1.2419039479
 H    0.2869262091   -4.7592686070   -0.9978121002
 H    0.2944612478   -5.2265258083    0.6968339615
 H   -1.5819175216   -3.7868264613    1.1721111722
 H   -1.8600156799   -3.8996491386   -0.5586290501