20

 C    0.0199801687    1.5387049328    0.0290736166
 C    0.0402433114    0.0225101207    0.0206983942
 C   -1.1931033082   -0.6029214365   -0.6108478457
 C    1.3306529906   -0.7825973684   -0.2753466491
 C    2.4800813174   -0.1273774676    0.4021375866
 N    3.6455519891    0.1996543658    0.0742332523
 O    1.8352819485   -0.0275039218    1.6358767597
 C    0.6932265781   -0.7753220102    1.1080046926
 C    0.1399347867   -1.8226479176    2.0162231232
 H    0.8823042066    1.9568380275    0.5493923892
 H    0.0108079001    1.9279865525   -0.9944320637
 H   -0.8846142983    1.9004868235    0.5311054457
 H   -1.3173594213   -0.2392375150   -1.6363944282
 H   -1.1328420289   -1.6941641706   -0.6531275251
 H   -2.0953953838   -0.3337466171   -0.0507999148
 H    1.3799506256   -1.5388844719   -1.0459320426
 H    4.1481986186    0.6041216154    0.8663383044
 H   -0.2617913863   -1.3596639164    2.9245017529
 H   -0.6686885039   -2.3750538611    1.5328112263
 H    0.9196546193   -2.5304113440    2.3127229455