15

 C    0.0077515313    1.5008073840    0.0840944410
 C    0.0056142652    0.0150301528   -0.0427722210
 C   -0.0525674633   -0.7996315015   -1.1728302788
 C   -0.1362074692   -0.3961447836   -2.5200712202
 N   -0.1976689106   -0.0881094372   -3.6370387876
 C   -0.0048039976   -2.1385414172   -0.6687168565
 N   -0.1025285973   -3.2972535166   -1.4088352568
 N    0.0816108769   -2.1509755487    0.6528107135
 N    0.0798812247   -0.8294254884    0.9989608504
 H    0.9899702814    1.8762408505    0.3926435980
 H   -0.2376923666    1.9555232035   -0.8774158829
 H   -0.7272507919    1.8406013835    0.8210156019
 H    0.2551779507   -3.2325500859   -2.3504859427
 H    0.2202816852   -4.1200742745   -0.9204497675
 H    0.1325168811   -0.5900552606    1.9744315592