21

 C   -1.2887199612    0.2960732736   -2.5291276982
 C   -1.0612128102    0.6051347955   -1.0409275884
 C   -2.2019974486    0.1451491102   -0.1585794490
 N   -2.9037612301    1.0110945976    0.4471286957
 C   -3.9519513534    0.6675210690    1.3864893659
 N   -2.4089213130   -1.2705365278   -0.1094767537
 C   -1.2807693711   -2.1743169442    0.1091683587
 C   -3.6394993243   -1.8163333297   -0.4009481116
 O   -3.8819524082   -3.0023324455   -0.4249498271
 H   -0.4443550927    0.6512946296   -3.1266328365
 H   -1.3991936621   -0.7775699568   -2.7104615956
 H   -2.1929398555    0.7925089023   -2.8943995109
 H   -0.1261217746    0.1374889894   -0.7092808036
 H   -0.9575729906    1.6800622231   -0.8827365617
 H   -3.8741727015    1.3469945377    2.2417061940
 H   -4.9351105473    0.8460661254    0.9353273478
 H   -3.9250689224   -0.3669745801    1.7532126177
 H   -0.6894012760   -1.8403929334    0.9654028964
 H   -1.6937559726   -3.1627914775    0.3095229751
 H   -0.6312793983   -2.2391418271   -0.7704022654
 H   -4.3884456262   -1.0419641114   -0.6368516094