14

 C    0.0328291377    1.5613535721   -0.0168839267
 C    0.0871380010    0.0542236398   -0.0174597330
 O   -0.9966381373   -0.5810945802   -0.6234260441
 C    1.3235026051   -0.7452024945   -0.1887849524
 O    2.4600549319   -0.0391384040    0.3593294905
 C    1.9260613283   -0.1596680930    1.6495813380
 O    2.4419868467    0.1625002108    2.6683609726
 C    0.6567454932   -0.7948807250    1.1717444222
 H    0.9536308929    1.9974098257    0.3723005048
 H   -0.1186976142    1.9199357490   -1.0396459527
 H   -0.8014687242    1.9149797430    0.5995896431
 H   -1.8049946909   -0.2776771521   -0.1947802761
 H    1.5059261459   -1.5184247193   -0.9216655962
 H    0.0609720839   -1.5527020223    1.6577338199