19

 C    0.0126317694    1.6345203969   -0.0623335915
 C    0.0272648515    0.1062434219   -0.0308774283
 C    1.0294644864   -0.5210755615   -1.0755350275
 N    2.2857900237   -0.8263108580   -0.3337272335
 C    1.9065500337   -0.8058343425    0.8782880261
 C    2.4310556595   -0.6038782649    2.2904665516
 O    3.6407236842    0.0678234961    2.4567724276
 C    1.0607799665    0.1664950002    2.4835010496
 N    0.6010571458   -0.4645098621    1.2089516534
 H    1.0242413752    2.0448797783    0.0268379953
 H   -0.4043840632    1.9786603097   -1.0138400155
 H   -0.6019601855    2.0504094636    0.7420923113
 H   -0.9871738798   -0.2728652059   -0.1844710865
 H    0.6212234992   -1.4465704029   -1.4989309538
 H    1.2380245814    0.1594117244   -1.9069779369
 H    2.4663386693   -1.5169874474    2.8896567045
 H    3.8068628743    0.5809091578    1.6577240696
 H    0.4486317662   -0.0817857255    3.3532646409
 H    1.2161861524    1.2487885518    2.4220305037