19

 O   -0.2244702613    0.6054449840    1.3449900456
 C    0.5473741557    0.7010585773    0.4269502894
 C    1.1799103847    2.0099695354   -0.0574045337
 C    1.3860479472    3.0310580433    1.0860572641
 C    2.8517677555    3.0158656692    1.5406861192
 C    3.7522691184    3.3547159129    0.3174355626
 C    3.5728419364    1.8655838479   -0.0720734678
 C    3.4086194867    1.5637014138    1.4428261190
 O    2.3570513274    1.6914875082   -0.7971863788
 H    0.8589815362   -0.1753754219   -0.1840422991
 H    0.4644152207    2.4075417734   -0.7918801833
 H    1.1133146377    4.0384074725    0.7556090293
 H    0.7074159478    2.7542425864    1.8990642674
 H    2.9936393224    3.5729169365    2.4688091430
 H    3.3958620510    4.0978770804   -0.4006789580
 H    4.7816535921    3.5784455247    0.6093913470
 H    4.3426828100    1.3539515699   -0.6518121626
 H    4.3841952259    1.4685615111    1.9256174714
 H    2.7768601756    0.7262583451    1.7505136153