21

 C   -0.0259441350    1.4144559511   -0.3120019185
 C    0.1865306578   -0.0584436322   -0.0379961672
 C    1.5698591370   -0.6702876412    0.0136788137
 C    0.7323605829   -0.5951901764    1.2672959358
 C    1.1428244283    0.3439200851    2.3847206943
 C    0.1003747474   -1.8994232491    1.7904987298
 O   -0.4184153850   -2.7328169985    0.7561767622
 C    1.0360110817   -2.6529479719    2.6336429009
 C    1.8220670494   -3.2949958946    3.2787307933
 H    0.7806393899    2.0345327311    0.0891751711
 H   -0.0687555106    1.5979059896   -1.3913768048
 H   -0.9675341775    1.7721684238    0.1200709099
 H   -0.5587407638   -0.7049936704   -0.4909749486
 H    1.7195176425   -1.6326785031   -0.4652218272
 H    2.4274506440   -0.0076749360   -0.0522837086
 H    1.6022813665    1.2557336937    1.9975672647
 H    0.2781375238    0.6400546742    2.9914782625
 H    1.8673481324   -0.1364516271    3.0498051279
 H   -0.7733639908   -1.6227036037    2.3966367808
 H    0.2960637782   -3.3049738708    0.4576503416
 H    2.5053853911   -3.8598976934    3.8637093864