16

 N   -0.0034571445   -1.1507218065   -0.3803248547
 C    0.0056869432   -0.0337866467   -0.0860901110
 C    0.0264684000    1.3763345018    0.2969327431
 C    1.3549374128    2.0570540976   -0.0428555927
 O    1.5664667693    2.1819547499   -1.4642461104
 C    1.7915968648    3.6101344703   -1.3814967693
 C    1.4351716590    3.5785286804    0.1006246393
 C    0.7102533676    4.5196513332    0.9520679640
 O    2.1151500871    4.2609161559    1.1220513677
 H   -0.7919957470    1.8979157077   -0.2100491284
 H   -0.1490680855    1.4481969152    1.3770540059
 H    2.1875811849    1.5350694578    0.4462384688
 H    2.8352110117    3.8799291743   -1.5826010076
 H    1.1277806204    4.1721924155   -2.0472979832
 H    0.4607459401    5.5080832215    0.5694950310
 H    0.0710250962    4.1560688321    1.7552222174