17

 C   -0.0047567890    1.5063286525    0.4278611567
 C    1.2675430573    0.8493858665   -0.0503529616
 C    2.3639207081    0.5063377508    0.9442659623
 C    1.8965036676   -0.3465781089    2.0928813596
 C    0.7543211425   -1.0321264412    2.1013021445
 C   -0.2305995822   -1.0509192189    0.9633909871
 C   -0.0285278767    0.0714747429   -0.0407952748
 H   -0.1043193406    1.6853119493    1.4939643146
 H   -0.4635769765    2.2630621288   -0.1990566792
 H    1.6311650162    1.1704245451   -1.0221467202
 H    3.1744091824   -0.0221408240    0.4197286643
 H    2.8245042121    1.4268916818    1.3301414015
 H    2.5613687042   -0.4058027857    2.9514513540
 H    0.5032321034   -1.6411140984    2.9666252712
 H   -0.1510541311   -2.0181185141    0.4442386174
 H   -1.2553659969   -1.0218914818    1.3602129559
 H   -0.4933648210   -0.1047294848   -1.0064810734