17

 C    0.0136041503    1.4246842268    0.4693400625
 C   -0.0608630824   -0.0592543904    0.1725409203
 C   -1.2781080362   -0.6890937131   -0.3513103726
 O   -0.1636594992   -0.4239564298   -1.2068630072
 C    1.3687161150    2.0020467028    0.1820889977
 C    2.1908886692    2.6597545900    1.0430627147
 O    3.3417113324    3.0387130180    0.4255428758
 C    3.2530062175    2.6087107459   -0.8616026673
 C    2.0751055945    1.9702525255   -1.0726516415
 H   -0.7518290163    1.9300828279   -0.1325534537
 H   -0.2451721327    1.5902760264    1.5221897555
 H    0.6347687882   -0.6804232425    0.7389131263
 H   -1.4756462183   -1.7415767647   -0.1534987030
 H   -2.1617320292   -0.0779495605   -0.5324388030
 H    2.1040664100    2.9321890749    2.0824909483
 H    4.1007165164    2.8335870678   -1.4876368362
 H    1.7333651708    1.5166699447   -1.9893833969