19

 O   -0.0324321077    1.4390618980   -0.2473711637
 C   -0.0773539950    0.0978531035    0.2239163893
 C   -1.4759735506   -0.4284961377   -0.0272105747
 C   -1.9359017362   -0.6690376948   -1.5111315143
 C   -2.1467264858   -2.1462539014   -1.1555693327
 O   -0.8841851356   -2.6519695222   -0.6981705398
 C   -1.7150197550   -1.9286348247    0.2375540137
 C   -2.0140629038   -2.6260570693    1.5246063885
 O   -0.8695143524   -2.6702142914    2.3671230009
 H    0.8679581491    1.7611420265   -0.1472373274
 H    0.6456196610   -0.5393630032   -0.3051542337
 H    0.1456928113    0.0386332414    1.3006549770
 H   -2.2050802330    0.1876518906    0.5077997966
 H   -2.8588744660   -0.1405948761   -1.7581267622
 H   -1.1895073681   -0.4838391585   -2.2864354679
 H   -2.8395896301   -2.8677763042   -1.5746157003
 H   -2.7803430126   -2.0791507452    2.0835400562
 H   -2.4007936861   -3.6334044987    1.3103204664
 H   -0.1853404335   -3.1428655927    1.8796595481