19

 C    0.0369927352    1.5210499775    0.0829989386
 C   -0.0299807212    0.0318379445   -0.0279195950
 C   -0.0884254749   -0.7216533720   -1.1311089643
 C   -0.1019623695   -2.2115075042   -0.8318942013
 O    0.9964324522   -2.9105947682   -1.3970211278
 C   -0.0770936645   -2.2568005657    0.7090292874
 C   -0.6569747443   -3.4258748227    1.4490822203
 O    1.1774551002   -1.7378118146    1.1930588586
 C    0.0070383206   -0.8703247168    1.1746598952
 H    0.9610499309    1.8370718845    0.5830683955
 H   -0.0018085833    1.9982249217   -0.8995151618
 H   -0.7933915622    1.9128407342    0.6838052100
 H   -0.0516136301   -0.3512389143   -2.1500048965
 H   -0.9979446581   -2.7044545762   -1.2275661429
 H    1.7752820035   -2.5698099210   -0.9365171880
 H   -0.1722035452   -4.3522907095    1.1222770561
 H   -0.5063189394   -3.3174878171    2.5259741439
 H   -1.7297203465   -3.5189843766    1.2496378048
 H   -0.3285981335   -0.5416184033    2.1548148469