20

 C    0.0208171997    1.5000447834   -0.3116609489
 C    0.0275841496    0.0196695285    0.0950386600
 C   -1.3520296448   -0.5301737067    0.2793939121
 C   -2.3714063306   -0.2157135274    1.4020577075
 C   -2.9143370229   -1.6549661645    1.2002122312
 C   -3.3244853563   -2.5933920529    2.2658432846
 N   -4.2808452883   -2.1523254348    1.2261351492
 C   -1.9260369550   -1.8757374982    0.0741871920
 O   -2.1378764593   -0.8234352998   -0.8851674063
 H    1.0403912910    1.8712845243   -0.4494876166
 H   -0.5235815436    1.6394225461   -1.2501955392
 H   -0.4606438524    2.1199570441    0.4519957185
 H    0.5364188209   -0.5763052545   -0.6705021775
 H    0.5887117810   -0.1095392331    1.0291040238
 H   -1.9231921095   -0.0580360887    2.3869974337
 H   -3.0587826488    0.6014972059    1.1677253541
 H   -3.0521579442   -3.6445776066    2.2132071088
 H   -3.4223133311   -2.2022881549    3.2759411526
 H   -4.9063347505   -1.4424778109    1.5997641721
 H   -1.4852637247   -2.7982147994   -0.2869160619