18

 C   -0.0617529790    1.4908008837   -0.1728675296
 N   -0.1496480140    0.0501791315   -0.3047541927
 C   -1.1432953169   -0.6672333565    0.2644948024
 O   -2.0489294969   -0.1866445095    0.9333815541
 C   -1.0900462993   -2.1662907468    0.0306077837
 C   -1.6531467780   -3.0169891341    1.1863250906
 C   -2.4673354060   -2.8558797494   -0.0316581322
 C   -0.0356748155   -2.8297430571   -0.7619019846
 O    0.9023161153   -2.2986922804   -1.3185863618
 H    0.8728430178    1.7856492238    0.3172085174
 H   -0.1086994994    1.9800240694   -1.1521721823
 H   -0.9039500899    1.8240738981    0.4337891868
 H    0.5441032852   -0.4624430389   -0.8362332088
 H   -1.1670046351   -3.9670858009    1.3788372153
 H   -1.9263781559   -2.4328733445    2.0561271199
 H   -3.2973797741   -2.1615604927    0.0051999616
 H   -2.5685066095   -3.6897793068   -0.7175552344
 H   -0.1613855588   -3.9336448889   -0.8239157656