16

 O    0.1689709065   -0.1764275266    0.2382033027
 C    0.0809413664    0.9480877155   -0.1750352931
 C    1.1857243666    1.9897678418   -0.0445313647
 N    1.2286130968    2.9017815826   -1.1600326945
 C    1.6527327664    2.6028297444   -2.4696290839
 C    1.6143697363    3.6805784619   -3.2575329994
 C    1.1226420351    4.8488300448   -2.4445431826
 C    0.8973393345    4.2489302869   -1.0508987728
 O    0.5179864903    4.7900951671   -0.0369566460
 H   -0.8356430333    1.3241015525   -0.6842251576
 H    0.9652671624    2.6039544802    0.8390875053
 H    2.1425311083    1.4816006039    0.1149158356
 H    1.9540141879    1.5909037343   -2.7027432605
 H    1.8853442600    3.7139793078   -4.3011021038
 H    1.8398628626    5.6746377180   -2.3745382750
 H    0.1847210331    5.2811463450   -2.8121493296