16

 O    0.2022886687   -0.1633454930   -0.0560398658
 C    0.0749367438    1.0264158970   -0.1899210695
 C    1.1911301525    2.0331330941    0.0334948093
 C    1.2828112517    3.0262358963   -1.1020733447
 C    1.9588927917    2.6872030824   -2.4193750890
 C    2.5180475694    3.7872331936   -1.5646566980
 O    2.0617327317    5.1018496705   -1.8539924297
 C    0.7220376500    5.0633220897   -1.6379467945
 N    0.1983663236    3.9866056558   -1.2087954295
 H   -0.8942028055    1.4777373136   -0.4922516273
 H    0.9725256386    2.5755583591    0.9636835265
 H    2.1287353435    1.4869507741    0.1666794160
 H    2.5409119783    1.7719798583   -2.4439666188
 H    1.4529457126    2.9414231708   -3.3447241300
 H    3.5117131641    3.7675714726   -1.1366590320
 H    0.1993638052    5.9874288753   -1.8513209129