14

 O    0.1902678015    1.4185179921   -0.1748316059
 C    0.0611846501    0.0164355466   -0.0421538684
 C    0.6016234123   -0.5586865267    1.2752401249
 C   -0.3336703482   -1.2901189736    1.8882628579
 N   -1.5052585133   -1.2663894498    1.0991402417
 N   -2.7361141484   -1.7805334872    1.2224272772
 N   -3.4035897587   -1.3649804704    0.1748646352
 C   -2.5935291474   -0.5876784280   -0.6136981451
 C   -1.3570187932   -0.5165370822   -0.0227232184
 H   -0.3203442299    1.8292253916    0.5326877394
 H    0.6221931615   -0.3983439090   -0.8883062028
 H    1.6066809763   -0.3759822733    1.6261058774
 H   -0.3238814368   -1.8445085522    2.8139692425
 H   -2.9594710259   -0.1472441879   -1.5261812457