21

 C    0.6496824560    1.2637304085   -0.1370765234
 O    0.8384402469   -0.1179603514   -0.3172622334
 C   -0.1548721956   -0.6987098969   -1.1440050518
 C    0.0943065847   -2.1814019989   -1.2238900994
 C   -0.1642978306   -2.9536711639   -2.5006122724
 O   -0.6551425218   -2.2227017273   -3.5900035340
 C    1.2547307596   -2.7523359916   -2.0003977756
 C    2.2249297795   -1.8681408734   -2.7471190190
 O    1.8413999753   -3.8505462800   -1.3461580854
 H    0.6854276476    1.8122620375   -1.0925370021
 H   -0.3158448982    1.4869768744    0.3453355634
 H    1.4560293777    1.6245399385    0.5064302222
 H   -1.1566361833   -0.5118799688   -0.7210150417
 H   -0.1437579422   -0.2421931957   -2.1436133459
 H   -0.1229319795   -2.7267297310   -0.3108318372
 H   -0.5807556399   -3.9545517483   -2.3854025303
 H   -0.2891201950   -2.6028789556   -4.3953424058
 H    1.7036488572   -1.1013647033   -3.3238842226
 H    2.9090151359   -1.3776271356   -2.0503032705
 H    2.8193215828   -2.4660552478   -3.4507371625
 H    2.2448813532   -4.4133599694   -2.0170700626