19

 C    0.6375810467    1.4873960828   -0.4592478621
 N    0.4591187574    0.0978721646   -0.0564597436
 C    0.6943730543   -0.8664138540   -1.1225653889
 C    0.6931015325   -2.3080316485   -0.5701156758
 C    1.8740571809   -2.6913760345    0.2984880952
 C    3.2220323525   -2.1163868897    0.2055427973
 O    2.3430882099   -1.7567115407    1.2804812296
 C   -0.3607708505   -0.7467454490   -2.1490453484
 N   -1.1714689224   -0.6642902113   -2.9680239662
 H    1.6276540480    1.7051414504   -0.8988168189
 H   -0.1226053247    1.7604827757   -1.1983302310
 H    0.5018204930    2.1310615528    0.4134726878
 H    1.0809731881   -0.1392941600    0.7100004594
 H    1.6466387078   -0.6913213585   -1.6619487863
 H   -0.2291117383   -2.4435987546    0.0053649113
 H    0.6532982841   -3.0137863889   -1.4071857856
 H    1.8049379161   -3.7111204198    0.6805720749
 H    4.0818854603   -2.7177087750    0.4949382142
 H    3.4374100842   -1.3209440119   -0.5043272228