16

 C   -0.0980478268    1.5668495773    0.0858286244
 C    0.0234355775    0.0651778818   -0.0433615626
 C    0.6882259514   -0.6139823117   -1.2081866360
 C    1.3027675412    0.1357441609   -2.3686695509
 C    1.3603767439   -0.6508003495    0.1670067470
 C    2.5500652395    0.1164556062    0.3986525740
 N    3.5086355189    0.7392125246    0.5825699599
 H    0.7987041953    2.0877058550   -0.2561683120
 H   -0.9485169751    1.9347513809   -0.4976972004
 H   -0.2609921347    1.8495016549    1.1306439328
 H   -0.8148072321   -0.4790746384    0.3836245966
 H    0.2529556209   -1.5699233693   -1.4872832523
 H    1.8230236577    1.0414275780   -2.0500921457
 H    2.0320655292   -0.4937359033   -2.8882465509
 H    0.5319676649    0.4226616879   -3.0916481694
 H    1.3409356382   -1.5925029853    0.7049738156