19

 C    0.0919631168    1.5107825888    0.1405694226
 C   -0.0119800539   -0.0055122958    0.0116571456
 O    0.7363993938   -0.6677064363    1.0543263835
 C   -1.4495931604   -0.5032161644   -0.0138393026
 O   -2.3613884767    0.1533484745    0.8304575998
 C   -2.0008984060   -1.1664727215   -1.2736787197
 O   -1.1872900314   -1.3231392525   -2.3896096004
 C   -1.6635801013   -1.9987871674   -0.0562926461
 O   -0.5505407903   -2.8297723535   -0.2084248908
 H    1.1421438789    1.8097378881    0.1752171980
 H   -0.3785551186    2.0049642427   -0.7164650787
 H   -0.4018375412    1.8606433285    1.0527955985
 H    0.4734090200   -0.3228106838   -0.9134974888
 H    0.3007052494   -0.4622322475    1.8902939158
 H   -2.6481728991    0.9627278320    0.3924140492
 H   -3.0476806540   -0.9861205901   -1.5067742679
 H   -0.6430807576   -2.1041197801   -2.2043296352
 H   -2.4735781075   -2.3973188932    0.5503713823
 H    0.1468242292   -2.4589002586    0.3570717947