19

 C    0.0138443254    1.5349636243   -0.0780166539
 C    0.0157282089    0.0327668281    0.0509733187
 N    1.3495732746   -0.6508748460   -0.0766772344
 C    0.6186086728   -0.6646965505    1.1839429713
 C    1.1338134471   -0.2613449972    2.5788913714
 N   -0.1984844850   -0.7769621571    3.0973480430
 C    0.2567807856   -1.8336840258    2.1059770341
 C    1.7175719535   -1.7067687095    2.6925787775
 O    2.8534764330   -2.0932326902    1.9879805713
 H    0.8935831732    1.9636192904    0.4087517620
 H    0.0269825106    1.8368566187   -1.1303748505
 H   -0.8815741839    1.9575626850    0.3892624986
 H   -0.8141852965   -0.4743200923   -0.4386971859
 H    1.2280329691   -1.5388279099   -0.5604167570
 H    1.5598638184    0.6866777977    2.9081231646
 H   -0.0597101034   -1.1379290123    4.0481869316
 H   -0.3370106067   -2.7229277517    1.8878581618
 H    1.8092544098   -2.0835850356    3.7169415674
 H    2.8857131535   -1.5756548563    1.1719933384