18

 O   -0.7040613297    0.6892593601    0.6013219148
 C    0.1301410632    0.9273489271   -0.2347459120
 C    1.3304362998    1.8258244697   -0.0170710149
 C    1.4098158813    2.9170424683   -1.0851811307
 C    2.5938732899    3.9033284334   -1.1743310445
 C    3.8350481623    2.9858630099   -1.3268340406
 C    3.1938075104    2.5283736426   -2.6358374216
 C    2.3874409733    3.7663607708   -2.7361093773
 N    1.6884120662    2.4756479726   -2.4961061635
 H    0.0654996301    0.4902165326   -1.2550915396
 H    1.2646846922    2.2619198998    0.9848173525
 H    2.2260681552    1.1938008835   -0.0627395390
 H    0.4635890748    3.4684019413   -1.1190996777
 H    2.6362857842    4.8127883303   -0.5781537790
 H    4.7316218229    3.5751323442   -1.5353816932
 H    4.0542157466    2.2593121293   -0.5384387253
 H    3.6100313072    1.9158777009   -3.4242127637
 H    2.1561805801    4.4508850535   -3.5410053547