21

 C   -0.1360679521    1.4737176849   -0.0129482704
 N    0.0088448003    0.0295767202    0.0214677824
 C    0.6813766445   -0.6022769562   -1.0079163213
 O    1.2931581705    0.0224644699   -1.8661088595
 N    0.6422230464   -1.9803716872   -0.9828296426
 C    0.0777598818   -2.7356899089    0.1228756446
 C    1.2985248881   -2.6877001040   -2.0735519117
 C    2.7586332422   -3.0266264085   -1.7964550494
 O    2.8070744155   -3.9749163764   -0.7358596449
 H    0.7912265913    1.9026651808   -0.3925768700
 H   -0.9536845611    1.8080125616   -0.6663098783
 H   -0.3203569892    1.8450779475    0.9990080166
 H   -0.7175784641   -0.4822895135    0.4936750981
 H   -1.0233035190   -2.7576051656    0.1022391246
 H    0.4438819316   -3.7598501739    0.0721878212
 H    0.3991065531   -2.3227865514    1.0852163807
 H    0.7456615068   -3.6121403635   -2.2752840479
 H    1.2531592715   -2.0520960194   -2.9595334441
 H    3.2097178149   -3.4354331335   -2.7151749903
 H    3.2912130126   -2.1018360232   -1.5377030323
 H    3.7205075744   -4.0647563200   -0.4509133856