19

 C    0.0485293228    1.4732888483    0.0327949190
 C   -0.0102502223   -0.0217998062   -0.0113699871
 C   -0.1135363648   -0.7756710233   -1.1142536160
 C    0.0508971776   -2.2446347810   -0.8549640247
 O    1.3861500370   -2.3866840590   -0.2270562765
 C    0.7417760758   -2.2451467336    1.0255181171
 C   -0.6234408560   -2.7206194931    0.5028749279
 C   -1.3417458028   -1.6278433694    1.2980345109
 C    0.0032332940   -0.8250520519    1.2672201557
 H    0.9968272473    1.8130776519    0.4689716882
 H   -0.0400315355    1.9085931716   -0.9664523139
 H   -0.7492585241    1.8888551358    0.6614903583
 H   -0.1748371990   -0.3775009217   -2.1209378803
 H   -0.0492221746   -2.8934587820   -1.7254458639
 H    1.3100479842   -2.6470134840    1.8664325443
 H   -0.9557421587   -3.7591235684    0.5107267952
 H   -2.2202533202   -1.1370434135    0.8715447336
 H   -1.5732132066   -1.9922654380    2.3041971338
 H    0.2772013660   -0.2488568724    2.1520279186