20

 C   -0.0368682036    1.4443715832    0.0433890735
 N    1.2411292893    0.7440383745   -0.0012828252
 C    2.0886528400    0.4811865118    1.1609071152
 C    2.3030461491   -1.0533231562    1.2195025083
 C    0.9844351123   -1.8276310814    0.9304053351
 C   -0.1958928757   -0.9078260140    1.2478138895
 C   -0.0042758294   -0.0382481033    0.0080642891
 C    0.0158119482   -1.0766899470   -1.0890162675
 O    0.8183483379   -2.1123921269   -0.4804233251
 H   -0.3670894020    1.8934623209    0.9819774403
 H   -0.2687247978    2.0357501879   -0.8391651763
 H    3.0428764235    1.0018765187    1.0338109084
 H    1.6520360977    0.8475639147    2.1035562254
 H    3.0404843957   -1.3593260293    0.4719968864
 H    2.6936330865   -1.3316837263    2.2048453034
 H    0.9789094321   -2.7929659754    1.4419843044
 H   -1.1516419803   -1.4383037074    1.2204496828
 H   -0.1127580246   -0.3813046723    2.1982648550
 H   -0.9754212584   -1.4766945316   -1.3434775792
 H    0.5125678895   -0.7153974806   -1.9926363835