18

 O   -0.2616171359    1.5196786827    0.4373795227
 C   -0.3152287233    0.3596445293   -0.3799688145
 C   -1.4708932732   -0.4959192231   -0.1111125297
 C   -2.4194782023   -1.1974420008    0.1363164698
 C   -3.5645230725   -2.0479624987    0.4747164122
 O   -3.1681363643   -3.3673507318    0.8436930156
 C   -4.4227813089   -1.3909808249    1.5454111164
 C   -5.6330733273   -0.6290307986    1.1516742085
 N   -5.7543301000   -1.9297298684    1.8293199430
 H   -0.3235546133    1.2317988207    1.3540719242
 H   -0.3533774010    0.7248557526   -1.4122156976
 H    0.6051712070   -0.2396319957   -0.2911668811
 H   -4.1842113079   -2.1942510410   -0.4199895472
 H   -2.5456330056   -3.2914503589    1.5757616862
 H   -3.8698749347   -1.0806757471    2.4307325994
 H   -5.9520283565    0.2272964322    1.7382117816
 H   -5.8659441812   -0.5619288130    0.0915154829
 H   -5.9801333790   -2.6657271754    1.1634717974