23

 C    0.0090995180    1.5134099192    0.0400254618
 C   -0.0019617011    0.0149858130   -0.0150798672
 C   -0.0272140651   -0.7040629312   -1.1404487488
 C   -0.0361370610   -2.2132573272   -1.0700687842
 C   -0.0129435443   -2.7050667677    0.3921950023
 C   -0.0213253074   -4.2199884360    0.4924922881
 C   -1.0610008904   -1.8897035922    1.2135695804
 C    0.0163752465   -0.7671687729    1.2880796394
 C    1.0751003093   -1.9041214240    1.1748428877
 H    0.8994264560    1.8847192472    0.5646630135
 H   -0.0056121423    1.9548751438   -0.9604400251
 H   -0.8570872733    1.8965370674    0.5956730585
 H   -0.0417196468   -0.2296300614   -2.1185628749
 H   -0.9244368450   -2.6150425685   -1.5806658391
 H    0.8275486759   -2.6268865057   -1.6124472981
 H    0.8510146092   -4.6555620770   -0.0099124685
 H   -0.0047319547   -4.5479890394    1.5373902935
 H   -0.9169341114   -4.6436946000    0.0218870091
 H   -2.0160624776   -1.6455014793    0.7402305816
 H   -1.2375910367   -2.3510842558    2.1902561697
 H    0.0366898457   -0.1209239219    2.1680227855
 H    1.2807303449   -2.3680802376    2.1446012913
 H    2.0155855415   -1.6727138329    0.6671377534