17

 O    0.0050572872    0.0113955469    0.3261801315
 C    0.0813402654    1.2243786748    0.3668444195
 N    1.1832816416    1.9303257538    0.0419924927
 C    2.4962494694    1.4687148462   -0.4131005062
 C    2.9490963089    2.9594898764   -0.4794665387
 C    1.5398586099    3.3383701848    0.0041861824
 C    0.6606411920    4.4650782713   -0.4446324689
 C    1.1341563308    4.3836632174    0.9976126039
 H   -0.7597460503    1.8772824029    0.6791259700
 H    3.0153714786    0.8457376325    0.3208534347
 H    2.4624789868    0.9381905722   -1.3689412470
 H    3.7537952211    3.2219011644    0.2091774504
 H    3.1984223389    3.3149022532   -1.4805633774
 H    1.0935101647    5.2226139175   -1.0903348061
 H   -0.3827076320    4.2463724644   -0.6467322382
 H    0.4054270156    4.1108696798    1.7537798590
 H    1.8899633314    5.0856700915    1.3354072082