14

 O   -0.2264363875    0.1821385308    0.3673224478
 C    0.3935169294    0.7270434565   -0.5117512457
 C    1.3725282141    1.8246381878   -0.2192143696
 O    2.3741398956    2.0781584416   -1.2169452102
 C    1.4234794833    3.0974886782   -0.9864959065
 C    0.5010757699    3.4710355130   -2.1062810170
 C    0.9177807894    3.3123816348   -3.5081270764
 O   -0.0347986361    2.4283610041   -2.9101785956
 H    0.3001558361    0.4564720241   -1.5784450884
 H    1.7238671699    1.8423216965    0.8121777377
 H    1.8057202325    3.9643044660   -0.4412761432
 H   -0.2038719843    4.2643565710   -1.8544017637
 H    0.5199865859    3.9807099241   -4.2689865660
 H    1.8883028817    2.8677447415   -3.7148157233