21

 C    0.0855270561    1.5245688350   -0.3586528151
 C   -0.0650876908    0.0744559105    0.0253728869
 O    1.1140656366   -0.7382319588    0.0217503600
 C    0.4407077880   -0.5310534381    1.2712219130
 C    1.1812956079    0.2008650396    2.3525340171
 C    0.3819278315    0.6135060702    3.6241235458
 C    1.6073142684    0.2244754942    4.4727550154
 O    1.2827737052   -0.4162440467    5.6834939462
 C    2.1247534730   -0.6243940023    3.2783883059
 H    0.9485752258    1.9876229839    0.1232420342
 H    0.2163208319    1.6146800845   -1.4422081249
 H   -0.8134719317    2.0867009772   -0.0831044840
 H   -0.9275846873   -0.4174997747   -0.4310860840
 H   -0.0882632034   -1.4187846104    1.6304016741
 H    1.7167364982    1.0541588327    1.9310861092
 H    0.0000854855    1.6340956358    3.6933689428
 H   -0.4335123380   -0.0895724563    3.8230457690
 H    2.2583794005    1.0942857657    4.6443574623
 H    2.1003227042   -0.6171155294    6.1500862671
 H    1.7725116001   -1.6561556477    3.3791432806
 H    3.1939486080   -0.6259801951    3.0549764084