21

 C    0.1983984613    0.8340186693   -0.6585980004
 C   -0.3253212806   -0.4494343169   -0.0086037458
 C   -1.8163249168   -0.3678824561    0.3094046166
 O   -2.2822615388   -1.5281042437    0.9961347171
 C   -2.6874318283   -2.5636109230    0.2269864479
 N   -2.9757377257   -3.6662111084    0.7551754686
 C   -3.4530782534   -4.7752504823   -0.0530012945
 C   -3.5834994863   -4.5889031607   -1.5689162123
 H    1.2675151594    0.7566442013   -0.8748892319
 H   -0.3165290901    1.0449718434   -1.6025134625
 H    0.0542848806    1.6995116283   -0.0025437151
 H   -0.1478710442   -1.3068101988   -0.6696714556
 H    0.2153283863   -0.6562837690    0.9217070239
 H   -2.0209282196    0.4726702460    0.9797657290
 H   -2.4012407058   -0.2094192012   -0.6084838640
 H   -2.7455809335   -2.3197212962   -0.8425325967
 H   -2.7879515499   -5.6258570386    0.1480596686
 H   -4.4274719850   -5.0735495745    0.3570154173
 H   -2.6213259234   -4.3518792781   -2.0358738376
 H   -3.9511592863   -5.5150448793   -2.0210361700
 H   -4.2909355199   -3.7924225715   -1.8237948127