6

 O    0.0033712246   -0.0314658631    0.0015720628
 C   -0.0171317373    1.1708140858    0.0067644382
 C    1.2655578297    1.9971940991   -0.0000770322
 O    1.2450706894    3.1994658927    0.0068127529
 H   -0.9469048284    1.7767814241    0.0185266798
 H    2.1953441020    1.3912137414   -0.0100673915