22

 C   -0.2368717809    1.4289589009    0.0399331329
 C   -0.0072816031   -0.0659469712    0.0589632944
 C    1.3787934378   -0.6346412937   -0.1728462287
 C    0.7401282340   -0.7158896808    1.1841308394
 C    1.2926616144   -0.0975139401    2.4963736286
 C    0.9191542589   -1.4120471768    3.1994073461
 C    0.3890885521   -1.9893025484    1.9263282860
 N   -0.5319273400   -1.6074896101    3.0210825163
 C   -1.0381068578   -2.7619316624    3.7592062227
 H    0.6156460830    1.9654773646    0.4694842091
 H   -0.3774625097    1.7966554046   -0.9827520912
 H   -1.1254149518    1.7007616624    0.6201538720
 H   -0.8278926309   -0.6515482753   -0.3498445291
 H    1.4783948765   -1.5467777603   -0.7536492903
 H    2.1981002894    0.0668667694   -0.3048539219
 H    2.3713442223    0.0771859334    2.4590002646
 H    0.7849776669    0.7923423050    2.8784564725
 H    1.4385253944   -1.8989778244    4.0161205101
 H    0.4084993885   -3.0090581749    1.5578950311
 H   -0.3228571199   -3.5997618229    3.8306039821
 H   -1.2997651027   -2.4516455188    4.7761064791
 H   -1.9459211013   -3.1307921604    3.2709863841