19

 O    0.0761934528    1.3966948884    0.1467417142
 C    0.0551458844   -0.0109461765    0.0487708450
 C   -1.3702278048   -0.5445479229   -0.0342380654
 C   -1.4487554778   -2.0712000896   -0.1495723755
 C   -2.8402658148   -2.5849161282    0.1807882961
 O   -3.1569797966   -2.6986390124    1.5743668828
 C   -3.8182518081   -1.6889289335    0.8190683744
 C   -3.4191455885   -0.2615184226    1.1236122290
 O   -2.0177975053   -0.0861090794    1.1523876898
 H   -0.5397833780    1.6138470078    0.8569868995
 H    0.6066289044   -0.2831155733   -0.8573209887
 H    0.5578577182   -0.4862539727    0.9070034684
 H   -1.8675848694   -0.0839122712   -0.9047306891
 H   -1.1766173777   -2.3727424412   -1.1670070461
 H   -0.7325175392   -2.5408826807    0.5347131929
 H   -3.2069667412   -3.4171901385   -0.4191485855
 H   -4.8857488267   -1.8484580579    0.6594693364
 H   -3.8829755794    0.3999542485    0.3711214728
 H   -3.7881155721    0.0357178658    2.1107833389