18

 C   -0.1201124764    1.5621761489    0.0481857601
 C    0.0770782328    0.0469382928   -0.0354720414
 C    0.9245604897   -0.4591060699   -1.2210831656
 C    1.9814735382   -1.3507363291   -0.6019405012
 C    2.9656129136   -2.0800983767   -1.4554229157
 C    1.9015364023   -1.3640069408    0.7385405921
 C    0.8024082575   -0.5032760833    1.2111972977
 O    0.5027201634   -0.2496321126    2.3569718579
 H    0.8426324062    2.0846643075    0.0193849388
 H   -0.7308988875    1.9327841601   -0.7806717380
 H   -0.6125440747    1.8189866765    0.9897360254
 H   -0.9092851906   -0.4334909431   -0.0519489259
 H    0.3367200972   -1.0077455065   -1.9674134043
 H    1.4016100704    0.3679770213   -1.7646971413
 H    3.5404519019   -1.3768114068   -2.0710509355
 H    3.6652467133   -2.6721828263   -0.8610971938
 H    2.4494019743   -2.7499901560   -2.1545723451
 H    2.5504378385   -1.9057472961    1.4158524259