13

 N   -0.0829346977    1.3764963702    0.0495097118
 C   -0.0962908787    0.0399191753   -0.0746632329
 N   -1.1478379122   -0.6564598161    0.1954632615
 C   -1.0161798664   -2.0197060433    0.1482946132
 N    0.0666168078   -2.7194083689    0.3253542764
 O   -0.3480896900   -4.0770686707    0.1893312013
 C   -1.6948835544   -4.1439283253   -0.0465983215
 O   -2.3276107720   -5.1503058134   -0.1979089273
 N   -2.1080772696   -2.8225156536   -0.0641891814
 H    0.7163529885    1.9168251581   -0.2267205663
 H   -0.9089432334    1.8548811917    0.3716074536
 H    0.8417276189   -0.4046688969   -0.4173583392
 H   -3.0526101908   -2.5178306970   -0.2215476593