12

 O   -0.0088417513   -0.0461659434    0.3531272495
 C    0.0730670529    0.9775167623   -0.2643487267
 C    1.2566301229    1.9344460093   -0.0995330966
 N    1.3221348139    2.9127044695   -1.1618887621
 N    1.5581756528    2.5891504836   -2.4291497064
 C    1.4857459377    3.7772926968   -3.0154343265
 N    1.2136897737    4.7755158418   -2.1437391436
 N    1.1080753613    4.2116121438   -0.9683532391
 H   -0.7038433833    1.3138650421   -0.9831675649
 H    1.1424590433    2.4883045720    0.8363587993
 H    2.1839025714    1.3583732175   -0.0595453269
 H    1.6302388049    3.9257766546   -4.0730432660