19

 C    0.0868208520    1.5358119872    0.0544222318
 C    0.0048799568    0.0101922865    0.0329510938
 O    0.6573423368   -0.5596429649    1.1686494149
 C   -1.4399280630   -0.4916909596   -0.0872113097
 C   -1.5218158167   -2.0148954737   -0.1591200390
 C   -2.9360233438   -2.5544983507   -0.0740442446
 O   -3.9118757285   -1.8564899497    0.1016064123
 C   -3.0556567607   -3.9993818106   -0.2118303449
 C   -3.1344408030   -5.1948202674   -0.3291119627
 H    1.1256525254    1.8591137736    0.1617809213
 H   -0.3200102485    1.9678156543   -0.8653918510
 H   -0.4892250239    1.9433071354    0.8949137244
 H    0.5840072099   -0.3648182043   -0.8210636768
 H    0.2466032221   -0.1850501635    1.9564343203
 H   -2.0211150200   -0.1369316045    0.7733941854
 H   -1.9129126486   -0.0478358377   -0.9704789909
 H   -1.0671217340   -2.4019790942   -1.0813409233
 H   -0.9357957144   -2.4631370141    0.6539859360
 H   -3.2223021478   -6.2493891519   -0.4302606473