19

 C   -0.7356734663    1.3007504330    0.2077621006
 C   -0.2498862284   -0.1421454415    0.1190765327
 C    0.7969497148   -0.4067563113   -1.0033858291
 C    1.9192625303   -0.4382701804    0.0660308209
 C    0.8481443369   -0.5661383075    1.1757263621
 C    1.0192742935    0.3275570523    2.3902515343
 N    0.3462368125   -0.0804659959    3.5075278130
 O    1.6804827125    1.3505856104    2.3738183181
 H    0.1005916895    2.0027823100    0.2684169608
 H   -1.3342249110    1.5514783143   -0.6747331395
 H   -1.3609614032    1.4580487363    1.0935066969
 H   -1.1117100612   -0.8163903849    0.1029708610
 H    0.6496911279   -1.3741083519   -1.4915251141
 H    0.8746196078    0.3605303957   -1.7785663129
 H    2.6545345059   -1.2431204259   -0.0001402657
 H    2.4431927348    0.5144910754    0.1638012691
 H    0.6934696983   -1.6044020327    1.4857518211
 H   -0.2360902450   -0.8988011056    3.5145855018
 H    0.3565804805    0.5163533102    4.3184154590