17

 C    0.0070714266    1.4688404081    0.0558079136
 C   -0.0288679075   -0.0352651638   -0.0444392918
 C    0.7975197787   -0.6844673576   -1.1751345519
 O    1.0495359710   -2.0012801786   -0.6587863459
 C    0.5143017031   -1.9782709900    0.6691401578
 O    0.6321050478   -0.6493880539    1.1009429581
 C   -1.0093429615   -2.1273642578    0.4901885584
 O   -1.7028258352   -3.0866550661    0.6782010080
 C   -1.4110008707   -0.7238974883   -0.0049922212
 H    1.0388494755    1.8235360244    0.1303779551
 H   -0.4535934824    1.9209196952   -0.8277975973
 H   -0.5410156048    1.8080322357    0.9389608698
 H    0.2541878840   -0.7506071445   -2.1232417930
 H    1.7473246856   -0.1616974341   -1.3335587497
 H    1.0312873599   -2.6866825125    1.3127003875
 H   -2.0659070185   -0.2449003185    0.7291065266
 H   -1.9354545215   -0.7695132777   -0.9623248640