19

 O    0.0990535121    1.3749884710   -0.1251635124
 C    0.0284734262   -0.0200764127    0.1390400143
 C   -1.3848807857   -0.5398835435    0.1140232968
 C   -2.4018580768    0.0339445534    1.1087357093
 C   -3.2768517585   -1.1469865319    1.4697360251
 C   -2.8724181887   -2.2736585954    0.8712190229
 C   -1.7111740517   -2.0385164793   -0.0318846576
 C   -1.9682976902   -1.0703471391   -1.1750036685
 O   -3.2438089442   -0.7376077925   -1.6205748529
 H   -0.3400700460    1.5298362846   -0.9685579441
 H    0.6493315788   -0.5958530810   -0.5674779411
 H    0.4694124512   -0.1486373144    1.1346848583
 H   -1.9033718002    0.4579637528    1.9896585987
 H   -2.9849348585    0.8496707397    0.6624866959
 H   -4.1314572879   -1.0608397204    2.1317660830
 H   -3.3363552413   -3.2470502895    0.9843164786
 H   -0.9443862916   -2.7974440728   -0.1495112457
 H   -1.2852681208   -1.1462353557   -2.0174690483
 H   -3.8725745962   -1.0357353133   -0.9494866121