21

 C   -0.0285483208    1.5414199866    0.0222323334
 C   -0.0103230138   -0.0030023681    0.0113887443
 C    0.7380015608   -0.5114898217    1.2631884435
 C   -1.4581329049   -0.5237587010    0.0442139020
 C    0.7027529625   -0.4887223693   -1.2329927720
 C    0.2144078654   -1.2724119526   -2.2337538981
 O    1.1578010275   -1.4991552640   -3.1899101101
 C    2.2785144997   -0.8444866955   -2.7925802032
 C    2.0666348695   -0.2111187265   -1.6123553458
 H    0.9857054436    1.9523129510    0.0061940854
 H   -0.5615865657    1.9328213563   -0.8497782031
 H   -0.5271007385    1.9142433045    0.9238553127
 H    0.2462453362   -0.1573725174    2.1760093030
 H    0.7598048319   -1.6053783752    1.2890129567
 H    1.7729491578   -0.1560012303    1.2810028768
 H   -2.0275441464   -0.1723374017   -0.8224499409
 H   -1.4875872040   -1.6182425833    0.0512512109
 H   -1.9691749385   -0.1699549632    0.9453906940
 H   -0.7416339664   -1.7342405466   -2.4117397684
 H    3.1277586820   -0.9266051984   -3.4507818570
 H    2.7866143721    0.3824984566   -1.0706954740