16

 C   -0.0463860566    1.4128264455    0.0127689618
 O   -0.0018496137    0.0033562903   -0.0011510103
 C    0.7182878217   -0.5159525885   -1.0910615160
 C    0.6535186196   -2.0480963176   -0.9889093731
 C   -0.8149884814   -2.5039260582   -1.0207787770
 O   -1.3200811830   -3.2147909280   -0.1994648997
 C    1.3609664167   -2.6747063795   -2.0984414704
 C    1.9039580774   -3.1846826679   -3.0418097414
 H    0.9616027664    1.8492508904    0.0852068032
 H   -0.5320315899    1.8130896060   -0.8904645689
 H   -0.6259096976    1.7099185827    0.8893129487
 H    0.2809231559   -0.1884032008   -2.0493947693
 H    1.7684449706   -0.1858452660   -1.0794801378
 H    1.0704107054   -2.3664836935   -0.0277975938
 H   -1.3764065310   -2.1230121901   -1.9032923579
 H    2.3991028495   -3.6455701047   -3.8607704581