17

 O    1.0458524644   -0.2994550688   -0.2514447023
 C    0.4835002658    0.7440925896   -0.0412921545
 C    1.1487928151    2.0845273605    0.0794714123
 C    0.5393996998    3.2403265589   -0.7847132386
 C    0.6101308065    4.1355750977    0.4562203672
 C    1.2733513801    5.4536359020    0.5479657040
 N   -0.1810080343    5.3091862208    0.7828860435
 C    0.8000166676    2.9166992807    1.3609894602
 H   -0.6264960083    0.7835001860    0.0859006346
 H    2.2235989538    1.9722854102   -0.0693790414
 H    1.0983851944    3.5373408986   -1.6750320986
 H   -0.4959647078    3.0202944039   -1.0723508191
 H    1.8514699875    5.7169850818    1.4300269604
 H    1.6121552586    5.9219495031   -0.3733075242
 H   -0.7030927858    5.6256404745   -0.0313503438
 H   -0.1457220650    2.5981228589    1.8129023181
 H    1.5668977476    2.9630795215    2.1363537124