18

 O    0.5215785915    0.4836876938    0.8817003087
 C   -0.0534989984    0.1987776566   -0.3793270639
 C   -1.3963262606   -0.4776574335   -0.2257563730
 O   -2.3136915180    0.3392588132    0.4674019875
 C   -1.9235722141   -1.4399685121   -1.2599157822
 C   -1.5239263807   -1.9309115845    0.1193923569
 C   -0.3086933465   -2.8178263690    0.3408626425
 C   -0.6278914384   -4.2376177945    0.1811782409
 N   -0.8918430220   -5.3553106368    0.0545003335
 H   -0.1819235812    0.8823609256    1.4088169881
 H   -0.1868225899    1.1172224644   -0.9781487848
 H    0.6557276160   -0.4324486699   -0.9224625092
 H   -2.6080766820    1.0335692846   -0.1343236140
 H   -2.9826388680   -1.4060865930   -1.4888939806
 H   -1.2832363184   -1.6890455626   -2.1008261977
 H   -2.3542808840   -2.1462869890    0.7839242963
 H    0.4940401396   -2.5710029556   -0.3614140937
 H    0.0999930052   -2.6581461176    1.3449392948