19

 C    0.0489550488    1.7024269902   -0.0939638034
 C    0.0490764343    0.1770556237   -0.0811993593
 C   -1.3813330291   -0.4083739844   -0.0966049762
 C   -2.1653065326   -0.0923233732    1.1590677076
 O   -3.2574417628    0.4181595826    1.1671101011
 C    0.9088090041   -0.4468861395   -1.2015865066
 O    1.4349683881   -1.6154120051   -0.5939827618
 C    1.7216687384   -1.2158509443    0.7211619504
 O    0.7168492293   -0.2941623260    1.1078456378
 H    1.0712692485    2.0835894193   -0.0250428710
 H   -0.4042168099    2.0799565453   -1.0166184929
 H   -0.5234373505    2.1009042274    0.7481506643
 H   -1.9460547915   -0.0456913500   -0.9606856509
 H   -1.2886378520   -1.5004837439   -0.1682512645
 H   -1.6526428104   -0.3754588331    2.1021340596
 H    0.3385971856   -0.7406004382   -2.0846495861
 H    1.7154352428    0.2408764108   -1.5002256889
 H    1.6986345494   -2.0962813774    1.3711389285
 H    2.7110016694   -0.7282861344    0.7790302322