21

 C    0.4549590276    1.4729531752    0.2037807139
 C   -0.1504374726    0.1073226386   -0.1390791486
 C    0.5035171182   -0.5344506149   -1.3461126459
 C    1.8136042414   -1.2983519636   -1.2034795081
 C    0.5284048092   -2.0228181109   -1.5254513984
 O   -0.0826068060   -2.7670797263   -0.5103622612
 C    0.3260228411   -2.6199237741   -2.9161979223
 C    0.8619709179   -3.9767587746   -2.9956036966
 C    1.3016487546   -5.0962983886   -2.9926801509
 H    1.5235721765    1.3854468674    0.4267568265
 H    0.3487022771    2.1769651522   -0.6293328901
 H   -0.0364684816    1.9145114266    1.0764187781
 H   -0.0636544345   -0.5710993625    0.7146715738
 H   -1.2257283213    0.2191781645   -0.3288566228
 H    0.3996756378    0.0383732998   -2.2663122503
 H    2.5754997291   -1.1966822277   -1.9692994286
 H    2.1945615747   -1.4280897664   -0.1956766436
 H    0.3248880000   -3.6423136155   -0.5171945351
 H   -0.7473869300   -2.6373991653   -3.1442389374
 H    0.8037849765   -1.9818549540   -3.6685097593
 H    1.6922698144   -6.0833102898   -3.0240392333