14

 N    0.1628514915    1.4085223342   -0.0709405678
 C   -0.0126848558    0.0062824301   -0.0453411789
 C   -1.1079847571   -0.8138075470   -0.1929723384
 C   -0.6445430301   -2.1639895272   -0.1450785060
 C    0.7170917282   -2.1285233385    0.0517128064
 N    1.6989167975   -3.1277602589    0.2396552267
 N    1.0892946886   -0.8044636470    0.1065362376
 H   -0.5834493999    1.8491098605   -0.5954094701
 H    0.1542386434    1.8137742611    0.8614980138
 H   -2.1277401894   -0.4827371835   -0.3212873258
 H   -1.2418414357   -3.0581500014   -0.2434893491
 H    1.2767363567   -3.9754383453    0.5993111568
 H    2.1696719261   -3.3716595206   -0.6279059460
 H    2.0308954960   -0.4765711464    0.2386202109