20

 C   -0.0280622772    1.4490085311    0.0465410970
 C    0.0500902352   -0.0551593994   -0.0177709182
 C    0.0498105885   -0.7382552082   -1.3821192819
 C   -0.7630725443   -2.0358079498   -1.1320970517
 O   -0.2518724715   -3.2019271012   -1.7524688496
 C   -0.6862375817   -2.1857435156    0.3834413521
 C    0.7741486071   -2.2773436462    0.8920506511
 C    0.6673865251   -0.7777618156    1.1277035371
 N   -0.8405425687   -0.7767872854    0.9403328936
 H    0.8654767078    1.9058699922   -0.3935098469
 H   -0.9020633471    1.8154822075   -0.5027947469
 H   -0.1141758575    1.7901708369    1.0817593141
 H   -0.4129219142   -0.0981014024   -2.1398636096
 H    1.0582887509   -0.9888395055   -1.7278963250
 H   -1.8133050975   -1.8726196336   -1.4177566719
 H   -0.3524745871   -3.1066591651   -2.7041607773
 H   -1.4018828309   -2.8937928192    0.7995571504
 H    0.8417352644   -2.8264299948    1.8331574572
 H    1.5326406677   -2.6531199945    0.2002945358
 H    1.1290007111   -0.2340939313    1.9481926607