17

 C   -0.1896552441    1.5268045711    0.1563339800
 C    0.0438089882    0.0039798911    0.0293144427
 C    0.7520199258   -0.5189795772    1.1915150308
 C    1.3602085002   -0.9339159979    2.1523171000
 C    2.0398706777   -1.3988168168    3.2359201915
 C    2.6446918235   -1.8127229875    4.1956041144
 C   -1.2856857926   -0.7032326580   -0.2292697128
 C   -1.6482315765   -2.0118505003    0.3220567563
 O   -2.1915967117   -0.8010909402    0.8626816870
 H    0.7556788677    2.0539853561    0.3025469283
 H   -0.6661471080    1.9108191322   -0.7510808329
 H   -0.8423270642    1.7344908725    1.0075178385
 H    0.6699157704   -0.1751472014   -0.8577634574
 H    3.1737287034   -2.1741790128    5.0421194878
 H   -1.7496462114   -0.3949774076   -1.1687751289
 H   -2.3568237112   -2.6416491381   -0.2137133317
 H   -0.9460103572   -2.5308200253    0.9701578364