15

 C    0.0531842243   -1.1155761704    0.0519865153
 C   -0.0088196034    0.0847067947    0.0148234697
 C   -0.0432318684    1.5104223926   -0.0234358634
 O   -1.1112734328    2.1274883051    0.6674788550
 C   -1.3444868187    3.4016990104    0.0549287458
 C   -0.0675355620    3.6703192907   -0.7222238028
 O    1.0280664069    3.6560742915    0.2517868114
 C    1.2801188276    2.2995285202   -0.0826188774
 C    0.3530778895    2.2857663615   -1.2632543190
 H    0.1008171676   -2.1757728272    0.0870785403
 H   -2.2256900341    3.3647875803   -0.6040221679
 H   -1.5079415229    4.1407403378    0.8441859857
 H   -0.0444878768    4.5478962712   -1.3681921683
 H    2.2624720673    1.8819707958    0.1021076852
 H    0.4171085360    1.9226194058   -2.2790106796