23

 C   -0.0748456796    1.5672798070    0.1410748708
 C    0.0481399711    0.0431191870    0.0653414391
 C    0.6327318790   -0.4426402450   -1.2666913737
 C    0.7315936232   -1.9706031539   -1.3354370302
 C    1.4763133774   -2.5235604707   -2.5789839714
 C    0.8224577563   -2.0838364398   -3.9008278678
 N    2.8652737217   -2.0424166810   -2.5618568542
 C    1.4268640961   -4.0079349443   -2.5053130037
 N    1.4307673193   -5.1628447630   -2.4393534856
 H    0.9018011574    2.0489105146    0.0206004236
 H   -0.7312812002    1.9515992325   -0.6475589656
 H   -0.4880950523    1.8869193331    1.1026683696
 H    0.6784040198   -0.3153546627    0.8899635567
 H   -0.9387575540   -0.4131720788    0.2194990799
 H    0.0043173124   -0.0709388290   -2.0854626535
 H    1.6273950746   -0.0094300653   -1.4176578442
 H    1.2526387003   -2.3428257276   -0.4436099937
 H   -0.2692526601   -2.4167135345   -1.3085466942
 H    0.9127359001   -1.0017361453   -4.0107904138
 H    1.3188657167   -2.5602310373   -4.7514423210
 H   -0.2334640527   -2.3643553658   -3.9257185298
 H    3.3449644000   -2.3959415182   -1.7382874966
 H    3.3688647637   -2.4057069921   -3.3663067007