12

 O   -0.0305918820   -0.0076574634    0.0984241396
 C   -0.0092506917    1.1735973659   -0.0579013691
 O    1.0730787498    1.9157367551    0.3222034723
 C    1.0123804785    3.2736463367    0.1773613508
 C    2.0931003924    4.0881849443   -0.0309705826
 N    1.5501194995    5.3576550466   -0.0617558935
 C    0.2102739501    5.2396418138    0.1193993156
 N   -0.1491197228    3.9812861422    0.2738157802
 H   -0.8067562762    1.7866866492   -0.5007352481
 H    3.1432861834    3.8919873809   -0.1517021367
 H    2.0629991453    6.2145604153   -0.1841066466
 H   -0.4528328863    6.0905265535    0.1384357581