16

 C   -0.1737691685    1.5119447699    0.0547461308
 C   -0.0063675864    0.0256977650    0.0611025873
 O   -1.2241697051   -0.7531584795    0.1662290829
 C   -0.3451654541   -1.8768513826    0.5094029155
 C    0.7522870451   -0.8904029013    1.0505178335
 N    1.9399180811   -1.0578889940    0.1654559045
 C    0.9655249806   -0.7381098547   -0.9519879545
 C    0.2364411742   -2.0928306651   -0.9022573140
 O    0.1233989598   -2.9802964174   -1.6917127800
 H    0.8027034934    2.0068970900    0.0666548433
 H   -0.7076952644    1.8327263072   -0.8455244855
 H   -0.7429994234    1.8379583751    0.9299411442
 H   -0.8199426602   -2.6831412872    1.0607291746
 H    0.8800161920   -0.7458511447    2.1224111337
 H    2.5529270746   -0.2556606546    0.3044080179
 H    1.3410261213   -0.3566060861   -1.8976612941