19

 C   -0.3752193406    1.4364301476    0.1270543396
 C    0.1070726069    0.0061487514   -0.0000511023
 O    1.3051700658   -0.1060357347   -0.8087172810
 C    2.0222972704   -0.7749288171    0.2456029974
 C    0.8240352590   -0.6634822759    1.2079279466
 N    1.0606147568    0.1937660351    2.3513643819
 C    0.1295220798    0.0588678204    3.4689782134
 C    1.5145922143   -0.4751147152    3.5689478548
 H    0.3821597818    2.0609210861    0.6044370768
 H   -0.5930381396    1.8369449997   -0.8680426309
 H   -1.2941612821    1.4830197400    0.7216156052
 H   -0.6886464485   -0.6279325474   -0.4166638277
 H    2.3118665336   -1.7956919983   -0.0343796762
 H    2.9103047953   -0.2164926847    0.5638898568
 H    0.3855620807   -1.6315416468    1.4984485294
 H   -0.1440257807    0.9832876972    3.9686945551
 H   -0.6774352753   -0.6666627367    3.3769509801
 H    1.6327962962   -1.5573974877    3.5432720369
 H    2.2707431363    0.0522741769    4.1427715242