21

 C   -2.6630477619    0.9578367749    1.3876503845
 C   -2.0348088161   -0.4172826598    1.4385459583
 O   -2.2282886404   -1.1632383036    2.3803521196
 C   -1.1291520301   -0.7976177479    0.2737760602
 C   -0.9586491799   -2.3100531313    0.0203488908
 C    0.1454334079   -2.5559168480   -1.0085655957
 O   -0.5530623811   -2.9847201853    1.2135739353
 C   -2.2876374025   -2.9433366651   -0.4552428953
 O   -2.1753360747   -4.3478781957   -0.5064240361
 H   -3.1530595105    1.1839875328    2.3351437028
 H   -1.9091330485    1.7189322796    1.1590749826
 H   -3.4011615261    0.9913921478    0.5774377795
 H   -1.4734456051   -0.2934377112   -0.6367668866
 H   -0.1451705744   -0.3631519194    0.5035932664
 H    1.1125135916   -2.2407031464   -0.6077466207
 H    0.1922436345   -3.6208302839   -1.2456754101
 H   -0.0520094297   -2.0050165622   -1.9335103439
 H   -1.1231637405   -2.6397845854    1.9212201229
 H   -3.1017721541   -2.6348338378    0.2211679701
 H   -2.5406322245   -2.5957065552   -1.4638247579
 H   -1.6924794237   -4.5831021371    0.2989095433