20

 C    0.0895707238    1.5395407430    0.1608496599
 C   -0.1497619969    0.0421941829   -0.0660147607
 C    0.6661294450   -0.5056021245   -1.2339145575
 C    2.2217929701   -0.5759845169   -1.1363321512
 O    3.0813743131    0.2534630793   -1.0516854866
 C    2.2101089699   -2.0650427222   -1.3870833689
 N    1.3087031370   -2.6213844984   -0.3086836031
 C    0.7073815857   -2.0292411121   -1.5095582737
 C   -0.1945294635   -2.7903785165   -2.4303577270
 H    1.1492137232    1.7445162695    0.3373926795
 H   -0.2187104924    2.1273987216   -0.7111200200
 H   -0.4784505279    1.9000821438    1.0237618977
 H    0.1060466176   -0.5244064520    0.8344774389
 H   -1.2157484056   -0.1384067163   -0.2583382523
 H    0.4338464118    0.0379408732   -2.1605872383
 H    2.9507848091   -2.6975964217   -1.8609397486
 H    1.3272717798   -3.6345459320   -0.4378243604
 H   -1.2002928111   -2.8854353151   -2.0053923341
 H   -0.2874098184   -2.2836980209   -3.3964507538
 H    0.1882127398   -3.8005556147   -2.6121836698