21

 C   -0.1362080604    1.5566326232    0.0525750283
 C   -0.0313273290    0.0592155909   -0.0359449899
 C   -0.1297690940   -0.5972996653   -1.1970527385
 C    0.0324109677   -2.0791042133   -1.3398404530
 C    1.5000976786   -2.5852999549   -1.4463152232
 O    1.4717835577   -3.0814552410   -0.0943924502
 C    0.0418158795   -2.8652128775   -0.0022733924
 C   -0.3698989678   -2.1014730530    1.2396500142
 C    0.2122178586   -0.6813270893    1.2609078018
 H    0.7676917410    1.9890988398    0.5016641928
 H   -0.2788140259    2.0142893594   -0.9301847659
 H   -0.9732350923    1.8570486049    0.6963878796
 H   -0.2935328873   -0.0349957154   -2.1146472860
 H   -0.6326050602   -2.4770864161   -2.1104437752
 H    1.6504042451   -3.3936757708   -2.1753800838
 H    2.2686998026   -1.8179860251   -1.5885230415
 H   -0.4937474613   -3.8231006109   -0.0625212111
 H   -1.4663310434   -2.0529426503    1.2564766057
 H   -0.0574932126   -2.6606158303    2.1289314360
 H    1.2925953138   -0.7402542264    1.4491022522
 H   -0.2108343306   -0.1165893786    2.0998679601