16

 O    0.5505233893    1.3226379206   -0.5882784702
 C    0.1424828871    0.0833600701   -0.1237929391
 C    0.3116478810   -1.0374895432   -1.1614928382
 O   -1.0424103801   -1.5108225962   -0.9405128087
 C   -1.3211609654   -0.4727679884    0.0003306226
 C   -1.0101557999   -0.9381036954    1.4674448226
 C    0.4328602549   -0.3257561555    1.3427829466
 C   -1.8370073245   -0.3407811911    2.4993011732
 N   -2.4964984259    0.1719054739    3.2994676606
 H    0.4007839984    1.9845762768    0.0954549736
 H    0.4400473896   -0.6522532349   -2.1785202891
 H    1.0648631855   -1.8057139026   -0.9535016082
 H   -2.2561529863    0.0584740436   -0.1863080597
 H   -1.0360463384   -2.0266129987    1.5462548550
 H    1.2641727954   -1.0137999685    1.5100215277
 H    0.5611181192    0.5429357796    1.9937961113