18

 C   -0.0394163595    1.5229644454    0.0496898857
 C   -0.0398949061    0.0321591595   -0.0385630926
 C   -0.0600870758   -0.7554421108   -1.1225063374
 C    0.0413200241   -2.1790893768   -0.6658330502
 C    1.3800494190   -2.5680268181    0.0192830268
 C    1.3999997133   -1.6713826266    1.2696944838
 C    0.6385326968   -2.9560461393    1.2547989936
 N   -0.5860537888   -2.1909806497    0.7279221410
 C    0.0682078830   -0.8821494313    1.1549282626
 H    0.8781607607    1.8932575948    0.5248880003
 H   -0.1156319793    1.9838456132   -0.9388784208
 H   -0.8748684551    1.8848111160    0.6619556793
 H   -0.0730955998   -0.4336168215   -2.1570215908
 H   -0.3727812425   -2.9490808987   -1.3181511425
 H    2.2875753983   -2.9803686059   -0.4033586448
 H    2.3210342888   -1.4173932514    1.7790548314
 H    0.6063405409   -3.8323784125    1.8853558800
 H   -0.3190185681   -0.5067083964    2.1043699945