15

 O   -0.1230441260    1.3348822832   -0.3140426599
 C    0.0006144088    0.0182663929   -0.0553067547
 N    0.3388485044   -0.8495762517   -0.9973954102
 N    0.3541092087   -2.0405344038   -0.3461542870
 C    0.0258430549   -1.9349231651    0.9664778337
 C    0.0105693384   -3.1254637979    1.8751424285
 C    1.4255720868   -3.6592044955    2.0673634892
 O    1.7914692015   -4.7466386211    1.7067493336
 C   -0.2069639882   -0.5930036211    1.2009282151
 H    0.0755644915    1.4599086050   -1.2507168360
 H    0.5859730862   -2.8750242820   -0.8576048199
 H   -0.3856590663   -2.8188327825    2.8490984070
 H   -0.6123683289   -3.9358270135    1.4836554976
 H    2.1215044646   -2.9387249134    2.5509186953
 H   -0.4931426763   -0.1254460534    2.1278603877