20

 O   -0.1204520749    1.3135802082    0.1393941190
 N    0.0130196417   -0.0886586423    0.1997837347
 C   -1.1105957335   -0.6672464745    0.0446298666
 C   -2.4706760720   -0.0355186165   -0.1642337723
 C   -3.3747491592   -1.2190352012   -0.5673816838
 C   -2.7405090214   -2.4364251861    0.1368333194
 C   -1.2429536251   -2.1555159876    0.0523109893
 C   -0.3266425792   -2.9861174505   -0.8345997530
 C   -0.1907821619   -3.0432959710    0.6605526202
 H    0.7879439251    1.6074056763    0.2634942823
 H   -2.8004803216    0.4192608558    0.7790345468
 H   -2.4311744886    0.7728042857   -0.8984948886
 H   -4.4221624748   -1.0663476941   -0.2956522281
 H   -3.3340491287   -1.3603063198   -1.6531245641
 H   -3.0582611890   -2.4680260655    1.1873404817
 H   -3.0206770372   -3.3906905845   -0.3176922062
 H   -0.7621441721   -3.8375935071   -1.3479142354
 H    0.4322102042   -2.4487635459   -1.3921401476
 H    0.6616554756   -2.5473059001    1.1110426113
 H   -0.5286218073   -3.9384597292    1.1729316178