17

 C   -0.0430601191    1.4885418252   -0.0091739719
 C   -0.0075097945   -0.0140133553   -0.1265474037
 C    0.7640776784   -0.7169173973   -1.1945025768
 N    1.2700422336   -0.6610309507    0.1974778966
 C    1.1620454462   -2.0290612264    0.7482269939
 C    0.5484270449   -2.8735553625   -0.3416339764
 C    0.3565279229   -2.1365313003   -1.4455593053
 C   -0.1696689011   -2.5892333718   -2.6843584417
 N   -0.5909289588   -2.9277297839   -3.7088855137
 H    0.8946805766    1.9256342356   -0.3616172241
 H   -0.8668257200    1.9040580189   -0.5986676027
 H   -0.1842904296    1.7905388829    1.0341076699
 H   -0.9122888820   -0.5306129200    0.1962850204
 H    1.2988712962   -0.1672328638   -1.9638930319
 H    2.1605633564   -2.3961524976    1.0219874690
 H    0.5634837599   -2.0287593911    1.6683290754
 H    0.2928874402   -3.9199619819   -0.2303737773