21

 C    0.0080284584    1.5142501498   -0.0098591885
 C    0.0573171180    0.0067680718   -0.0335123726
 C    0.8601363345   -0.7106287470   -1.1181836976
 C    0.6097358197   -2.2018285125   -0.7402505199
 C   -0.2820358101   -2.0187335743    0.4810056216
 C    0.1920615680   -0.7921345060    1.3029789047
 O   -1.1884305538   -0.4668348290    1.6831619540
 C   -1.2544891028   -0.8199529246    0.2497101642
 C   -2.5851161556   -0.7721136017   -0.4344952219
 H    1.0115260989    1.9421493129    0.0950993052
 H   -0.4203327630    1.9115297903   -0.9374786256
 H   -0.6039205018    1.8555373539    0.8295003210
 H    0.4981666496   -0.4627804503   -2.1220007318
 H    1.9208959745   -0.4399639515   -1.0846180286
 H    0.1092394531   -2.7604401163   -1.5374596649
 H    1.5343848063   -2.7361929633   -0.5013776653
 H   -0.6607862736   -2.8834469772    1.0256110666
 H    0.9590591801   -0.7261060338    2.0765691408
 H   -2.9939482019    0.2432127080   -0.4171832389
 H   -2.4890457170   -1.0865396409   -1.4790511372
 H   -3.2971776815   -1.4387514183    0.0618452847