19

 C    0.1752115708    1.5159685356   -0.1076433737
 C   -0.0479591413    0.0242150022    0.0719921026
 O    0.4377266765   -0.6730095241   -1.1012474866
 C    1.1505728804   -1.7917742545   -0.7690663940
 N    1.4881848895   -2.7083927057   -1.5691597565
 C    1.4388046033   -1.7566333592    0.6892127635
 N    2.1388799629   -0.4950457298    1.0727313352
 C    0.6830531002   -0.6131007125    1.2544694384
 C    0.0556015502   -0.5823367364    2.6215393183
 H    1.2457023267    1.7278358407   -0.1460528208
 H   -0.2929180339    1.8618670418   -1.0327096322
 H   -0.2689662664    2.0688746197    0.7266730042
 H   -1.1212456759   -0.1951501617    0.1583239430
 H    1.1309470041   -2.5116759844   -2.5061685595
 H    1.6468494546   -2.6779237686    1.2173311433
 H    2.5986649573   -0.6534923396    1.9679703789
 H    0.0029082600    0.4413196667    3.0093169635
 H   -0.9628027503   -0.9841737044    2.5981409373
 H    0.6367959813   -1.1792837159    3.3314227751