11

 C    0.0026367199   -1.1910088516   -0.0145202010
 C    0.0069510046    0.0120314222    0.0056485034
 C    0.0098584132    1.4452483184    0.0282508421
 C    0.4927329319    2.1890884615    1.2638269848
 C    1.3261527500    2.2070760163    0.0175492909
 H   -0.0018758036   -2.2522163616   -0.0337459851
 H   -0.8090984553    1.9101793721   -0.5126959215
 H   -0.0467215796    3.0873168640    1.5419857305
 H    0.8340211769    1.5871775496    2.0973541799
 H    2.2347799274    1.6174033117    0.0026810918
 H    1.3650983046    3.1177898274   -0.5692061058