19

 C   -0.0046620354    1.4967453895    0.0409866978
 C   -0.0006227346    0.0011875704   -0.0104502900
 C   -0.0085918493   -0.7186201064   -1.1471628383
 C   -0.0029621007   -2.1950386425   -1.0435064331
 O   -0.0094384514   -2.9406273063   -2.0018643898
 C    0.0114059624   -2.6961636182    0.4006883665
 C   -1.0544444141   -1.9037364379    1.2214525437
 C    0.0134774716   -0.7683266151    1.2979303139
 C    1.0868300283   -1.8971492563    1.2023464273
 H    0.8776130329    1.8686454798    0.5777358918
 H   -0.0161578930    1.9395267121   -0.9576210541
 H   -0.8779313627    1.8633872016    0.5957379087
 H   -0.0189144112   -0.2736515473   -2.1366708015
 H    0.0149408448   -3.7859385748    0.4215202320
 H   -2.0087524683   -1.6713723150    0.7434148204
 H   -1.2281108883   -2.3669714056    2.1965342452
 H    0.0192005303   -0.1076021315    2.1669731379
 H    1.2807186820   -2.3592635368    2.1741431273
 H    2.0310100366   -1.6589457297    0.7073693044