20

 C   -0.5205750369    1.4271140116    0.1331966651
 C    0.0921209157    0.0535946963   -0.1588278998
 O    0.9676707249    0.0725101265   -1.2738759414
 C    0.8071483075   -0.5157144471    1.0658608796
 N   -0.0348154311   -1.0324635480    2.1671032580
 C    0.7931497936   -1.9800683949    1.4373317206
 C    0.1187979634   -3.0350028335    0.5946618292
 C    2.0678978796    0.1588526248    1.4719401058
 O    2.6432346695    1.0146208793    0.8382264546
 H    0.2524285709    2.1523298960    0.4041390205
 H   -1.0372023797    1.7927899025   -0.7580271578
 H   -1.2405551031    1.3591264418    0.9544862638
 H   -0.7154109454   -0.6314975121   -0.4309414273
 H    1.7002053705    0.6544363965   -1.0300019821
 H    0.3649241250   -0.8022395332    3.0761179827
 H    1.6940376992   -2.3287697246    1.9447587328
 H   -0.8387691298   -2.6842407800    0.2070284240
 H    0.7566390496   -3.3208817940   -0.2468022052
 H   -0.0717478002   -3.9268533276    1.2006060286
 H    2.4727805669   -0.1926056504    2.4520924384