18

 C   -0.1466484260    1.5954309845    0.0459053893
 N    0.1525188835    0.1722805226    0.0640905779
 C    1.1899215240   -0.3898548827   -0.8372650649
 C    1.8168412439   -1.1393478893    0.3444931471
 C    2.2356306083   -0.1756795832    1.3969041150
 O    2.8504524952    1.0430374814    1.0139909242
 C    3.2215860918    1.8806532167    2.0031979334
 O    3.7058602527    2.9510829193    1.7912904803
 C    0.7625529394   -0.4387283669    1.2309305098
 H    0.7382872230    2.2450202777    0.1106451102
 H   -0.6850427605    1.8372831329   -0.8768937790
 H   -0.8108837262    1.8281781412    0.8848827803
 H    0.7593806581   -1.0447681188   -1.6010513071
 H    1.8453816755    0.3474587043   -1.3157595223
 H    2.1436477199   -2.1704677164    0.3320913822
 H    2.6861825820   -0.6296902272    2.2776503066
 H    3.0381113536    1.4639395674    3.0120651145
 H    0.1503860518   -0.8119523033    2.0474319326