16

 N   -0.0046253562    1.3760353484   -0.1381519273
 C   -0.0577275741   -0.0088291647   -0.0546017858
 N   -1.1713247581   -0.6192592367    0.0713014175
 C   -1.1692242925   -2.0396037075   -0.0145393168
 C   -0.7318353445   -2.7285223313   -1.2697841687
 C    0.1625902163   -2.8077555258   -0.0399453572
 C    1.4004875009   -1.9979105859    0.0047322592
 O    2.5183581351   -2.4344641478    0.1789316298
 N    1.1872275247   -0.6300793075   -0.1673255224
 H    0.7508335344    1.8133861466    0.3731548663
 H   -0.9021601593    1.7835081241    0.0876901905
 H   -1.9809446438   -2.5012405217    0.5378773847
 H   -1.2308885206   -3.6468148578   -1.5571199452
 H   -0.4032984740   -2.1089566174   -2.0970693053
 H    0.2540499571   -3.7656531323    0.4568037260
 H    2.0280081645   -0.0706988527   -0.1886862053