16

 C   -0.0490255726    1.6413115262    0.2579105105
 C   -0.0883011328    0.1195605410    0.0210440813
 C    0.7454350699   -0.6012884857    0.9878309464
 C    1.4368015313   -1.1720158327    1.7872695224
 C   -1.5031057732   -0.3936569639    0.0473224365
 N   -2.5860680481    0.2397917772    0.3648253254
 C   -3.5986887022   -0.7009725596    0.2096798380
 C   -3.0556061542   -1.8685119594   -0.2010719393
 O   -1.7054725612   -1.6862968064   -0.3128357784
 H    0.9832278943    1.9942048566    0.2087169370
 H   -0.6442186421    2.1558279835   -0.4994411564
 H   -0.4610057232    1.8847059852    1.2386454737
 H    0.3101188565   -0.0895182864   -0.9821639870
 H    2.0446452541   -1.6846101774    2.4911414157
 H   -4.6317649069   -0.4619522263    0.4047094757
 H   -3.4320599898   -2.8466170617   -0.4451982514