14

 O    0.5321656698    1.3012110288    0.0051864976
 C    0.2182966778   -0.0054923641    0.0200622137
 N    0.2846011131   -0.7896188626   -1.0487376845
 N   -0.1148093293   -1.9688497828   -0.5608831519
 N   -0.4322390557   -2.0026855820    0.7179367736
 C   -0.2270471047   -0.7482919802    1.1345603252
 C   -0.4340379934   -0.2920525495    2.5206465130
 C   -1.1337843128   -1.1090380859    3.5217538159
 O    0.2844607481   -0.9794595550    3.5607260301
 H    0.8053776371    1.5314719117   -0.8913990342
 H   -0.1661555635   -2.7880316401   -1.1430501534
 H   -0.4414369425    0.7906016854    2.6326359477
 H   -1.6765460169   -0.6167984577    4.3281418376
 H   -1.5047561671   -2.0888493961    3.2281949195