19

 C   -0.0352477305    1.5029741263   -0.0217131295
 C    1.2845650246    0.7659811008   -0.0269185692
 C   -0.0163160952    0.0030119491    0.0130489767
 C   -0.4518990255   -0.8199865669    1.2390032753
 C   -0.6946746887   -2.2172030419    0.6622817276
 C   -1.6588216077   -2.3201760331   -0.5067149976
 O   -1.8966040921   -1.0342128186   -1.0792216128
 C   -0.4401984361   -0.8330392956   -1.1685604876
 C   -0.1876973857   -2.3056705525   -0.7670861764
 H   -0.3236131421    2.0254631950    0.8844263321
 H   -0.3534271937    1.9938696815   -0.9356927484
 H    1.8639951512    0.7588784473   -0.9449965839
 H    1.8852513992    0.7854178456    0.8766586491
 H    0.3237588718   -0.8436722270    2.0112167772
 H   -1.3604902182   -0.4095771831    1.6917132280
 H   -0.6097825767   -3.0922813874    1.2972691511
 H   -2.4235052276   -3.0792910488   -0.6231270132
 H   -0.1454285214   -0.4758687690   -2.1569561348
 H    0.5030773145   -3.0222159819   -1.1881320538