15

 C   -0.0387267645    1.5727219854   -0.0151963174
 C    0.0237506899    0.0449542940   -0.0177413705
 C    0.7073585940   -0.5200249952    1.2377314567
 N   -0.0449601225   -0.2671631240    2.4721153719
 C   -0.2535297347   -1.4080266826    2.9784674553
 O    0.2261504626   -2.5217557285    2.3313263258
 C    0.8608079337   -2.0383847747    1.1826980754
 O    1.3738322426   -2.7557826002    0.3846471493
 H    0.9660744830    2.0087849105    0.0009004672
 H   -0.5482342263    1.9394118126   -0.9109139568
 H   -0.5778882918    1.9384458180    0.8623092779
 H   -0.9862859314   -0.3757798664   -0.0842229193
 H    0.5798136257   -0.3240178533   -0.8864486084
 H    1.7058248255   -0.0724852688    1.3295818839
 H   -0.7863348858   -1.6193663768    3.8977741189