18

 O    0.0764554857    1.4103552993    0.1403202978
 C    0.0859130616    0.0231222178    0.0657674231
 C    0.9402414654   -0.8385736752   -0.9089168728
 N    0.6183899778   -1.9804347674    0.0280708553
 C    0.6560377106   -0.9513761924    1.1382192970
 C   -0.8612588380   -2.0781400423   -0.1793281622
 C   -1.3233318726   -0.5863222510   -0.1827918942
 C   -2.3072004049   -0.1970769019    0.8958430955
 O   -2.4668848424   -0.8085446336    1.9247043687
 H    0.9694329361    1.7156604303    0.3316889448
 H    0.6104039126   -0.9694582223   -1.9435935653
 H    2.0086631144   -0.6073247843   -0.8726114665
 H    1.6914225145   -0.7313921992    1.4123314506
 H    0.0592297077   -1.1890962540    2.0200311907
 H   -1.0688174239   -2.5847075709   -1.1242569253
 H   -1.3153349568   -2.6374432537    0.6399995882
 H   -1.7060942081   -0.2389407739   -1.1480840254
 H   -2.8824650997    0.7323144048    0.6949733301