16

 O    0.1508866656    1.1410147257    0.8545230109
 C   -0.0270555011    0.1595569346   -0.1878176033
 C   -1.4015508434   -0.4235422598   -0.1534472176
 C   -2.1016061157   -0.6568272073    1.0161400016
 O   -1.7542574438   -0.4204545166    2.2995422741
 N   -3.3178030468   -1.1736621327    0.7193094906
 C   -3.4443373464   -1.2992307245   -0.6657916357
 C   -2.2773545881   -0.8359173608   -1.2126467955
 O   -2.0349470416   -0.7590736461   -2.5581359713
 H   -0.4939610598    1.8388563607    0.6868763988
 H    0.1921327825    0.5999521720   -1.1728524404
 H    0.7596810631   -0.5782641574    0.0134616255
 H   -0.9533531879    0.1290311166    2.2511138072
 H   -4.0262044364   -1.3820106460    1.4001481426
 H   -4.3304834557   -1.7027675841   -1.1218097634
 H   -1.0851195045   -0.7831046445   -2.7035284041