19

 C   -0.0441204713    1.5389995172   -0.1954513100
 C    1.5166194635    1.4638574261    0.0662259184
 C    2.1837873804    0.3247855054   -0.8368303786
 C    2.2140494583   -0.7319350697    0.3632314138
 C    1.1687376570   -1.7078750917   -0.3529963688
 C   -0.2859605789   -1.4957641733    0.2376657596
 C    0.0721654007   -0.0009777241   -0.0047701114
 C    1.2479945361    0.2608138580    0.9930876501
 C    0.9375673464   -0.4572192370   -1.2253279522
 H   -0.5217851593    2.0754053640    0.6303949714
 H   -0.4320854174    1.9035728670   -1.1516226046
 H    2.0942769913    2.3459093147    0.3421031545
 H    3.0110756550    0.5139787290   -1.5184413019
 H    3.1177070183   -1.0860232227    0.8559965478
 H    1.4991066575   -2.6764244190   -0.7279376823
 H   -1.0205925282   -1.9166805408   -0.4559209550
 H   -0.5216674751   -1.8009296206    1.2618778084
 H    0.9778089014    0.3346364043    2.0467420585
 H    0.4395192944   -0.4578554167   -2.1951659177