17

 C    0.0032982369    1.5483251928    0.0220024649
 C    0.0376679148    0.0423528429    0.0258628649
 C   -0.8497340110   -0.7896053646    0.9269640741
 C    0.6561701132   -0.7984518146    1.1208131706
 C    1.4644256633   -1.8974715963    0.4569501156
 C    1.1545262463   -1.7601892036   -1.0451902835
 O    1.4633837065   -2.5268491789   -1.9287988637
 N    0.4371967664   -0.5964736085   -1.2017539465
 H    0.9634059495    1.9610578010   -0.3044465546
 H   -0.7753558995    1.9290378518   -0.6497263704
 H   -0.2140480396    1.9283641583    1.0241898935
 H   -1.4361845846   -0.2721058095    1.6791088600
 H   -1.3276266607   -1.6680972542    0.5043699734
 H    1.0531815368   -0.3140351116    2.0051924726
 H    2.5408633092   -1.7686932182    0.6116734625
 H    1.2098396180   -2.9093467564    0.7846928370
 H   -0.0212921357   -0.4160479903   -2.0823045804