18

 N   -0.0896051216    1.2988778033    0.0972715388
 C   -0.0469154265    0.0415794945    0.0035295972
 O   -1.1829302997   -0.6805956321    0.0450838742
 C   -1.0598842888   -2.1006576313    0.0499038980
 C   -1.1167664318   -2.7039609978    1.4710441414
 C   -1.7081080750   -4.1197519446    1.2844213255
 C   -2.5867197721   -3.9758908144    0.0531056948
 O   -3.4215550835   -2.8127038189    0.0917704987
 C   -2.2163006368   -2.7564399327   -0.6765466397
 H    0.8497697219    1.6839082192    0.0257307499
 H    0.8563258149   -0.5728685951   -0.1272638888
 H   -0.1294113588   -2.3853453354   -0.4642718980
 H   -0.1412208447   -2.7061939326    1.9620472910
 H   -1.7943834765   -2.0847125223    2.0615530351
 H   -0.9256806670   -4.8610872973    1.0818119914
 H   -2.2648306577   -4.4621937081    2.1617558400
 H   -3.0153443508   -4.8444026343   -0.4400468895
 H   -2.3405623258   -2.6255628600   -1.7478594200