12

 O   -0.0764730175    0.0036334338    0.0033815252
 N   -0.0122973206    1.2275034500    0.0068909834
 O    1.0027535626    1.8934456386    0.0025353421
 C   -1.3215331804    1.9468389348    0.0176018025
 N   -1.2679385010    3.2617193418    0.0204658977
 C   -2.4449301231    3.8851721837    0.0300327164
 C   -3.6456447359    3.1723677842    0.0365474330
 N   -3.6806936440    1.8389939523    0.0335360379
 C   -2.5032383545    1.2111811841    0.0238879031
 H   -2.4319837116    4.9710624475    0.0325740530
 H   -4.6000376823    3.6913136950    0.0443797967
 H   -2.4912734018    0.1287154641    0.0211235890