11

 O   -0.0628532086    0.0185565047    0.0020183825
 C   -0.0274972169    1.2168213150    0.0085795119
 C    1.3307149174    1.9643287838   -0.0006699275
 O    2.3753561621    1.3699843654   -0.0145144341
 C    1.2695925339    3.4571724611    0.0084631864
 N    0.1240184293    4.0985915095    0.0238066251
 O    0.4958389557    5.4324034985    0.0274746933
 C    1.8380008724    5.4449260109    0.0141964268
 N    2.3804823862    4.2733024959    0.0020844574
 H   -0.9349214789    1.8501904761    0.0212982459
 H    2.3176398774    6.4124418793    0.0148969223