19

 C    0.0129794044    1.4938458489   -0.4233673405
 C    1.4742583824    1.5620474261    0.1109060700
 C    1.6862977062    2.1446839587    1.5270115725
 O    2.1737011563    1.0857020475    2.3447228027
 C    1.6110328607   -0.1436140676    1.8695538757
 C    0.1866583544   -0.3565983383    2.3440650008
 C   -0.7039044590   -0.2567294641    1.3561644234
 C   -0.0656276273   -0.0087614061    0.0154243173
 C    1.4567983731    0.0224500908    0.3411187686
 H   -0.7066916649    2.1735503385    0.0423981646
 H   -0.0436635070    1.6155010054   -1.5078539734
 H    2.2096538712    1.9408489614   -0.6003083929
 H    2.4351194303    2.9413841300    1.5576390501
 H    0.7431974468    2.5472298124    1.9256360433
 H    2.2990378935   -0.9300294502    2.1943933348
 H   -0.0475101032   -0.5052856792    3.3924654159
 H   -1.7812562219   -0.3112885588    1.4815588836
 H   -0.4105314472   -0.6972651152   -0.7602538945
 H    2.1260409212   -0.5870871204   -0.2638184922