17

 O   -0.4707360684    1.2880997897    0.0819169567
 C   -0.1058345130   -0.0774455565    0.0421532116
 C    0.7456782341   -0.3999629611   -1.2097931861
 C    0.0899056830   -0.0264117702   -2.4601824647
 N   -0.4272475123    0.2617567243   -3.4521963646
 C    0.6112194814   -0.5458292540    1.3001255999
 C    1.5792795376    0.3516736309    2.0341731369
 C    0.2383980317    0.0194362475    2.6417296429
 H    0.3272807649    1.8239897371    0.0141302195
 H   -1.0574812890   -0.6145853722   -0.0441262855
 H    1.7083472638    0.1222856419   -1.1397933469
 H    0.9733646992   -1.4715023174   -1.2366501455
 H    0.8690968888   -1.6017344261    1.2769528600
 H    2.4724114806   -0.0959789544    2.4548566262
 H    1.7242925031    1.3682396388    1.6821506946
 H   -0.5036817504    0.8093066726    2.6477947398
 H    0.2044277749   -0.6511268610    3.4925674152