22

 C   -0.0092851752    1.5183662008    0.0939595739
 C    1.4389116455    2.0495642829    0.0288630523
 C    2.3605677015    1.4410050970   -1.0387670493
 C    1.8881725453    1.5804417470   -2.4880020013
 O    0.6022578895    1.0470564098   -2.7499409524
 C    0.4359386432   -0.3399071369   -2.4897803444
 C   -0.5568592734   -0.5780012148   -1.3507882421
 C   -0.1686263974   -0.0203006503    0.0305030618
 H   -0.4415508351    1.8836461645    1.0330889823
 H   -0.6000664774    1.9663485939   -0.7095088221
 H    1.4023111308    3.1388783836   -0.1049239000
 H    1.9157847651    1.8838458869    1.0038416321
 H    3.3469275737    1.9183827315   -0.9718616028
 H    2.5366121490    0.3823594897   -0.8130849288
 H    1.8144606850    2.6401254258   -2.7590750865
 H    2.6361090494    1.1226643224   -3.1574943586
 H    0.0504557805   -0.8066695623   -3.4069274190
 H    1.4002534243   -0.8190820844   -2.2716143587
 H   -1.5176081957   -0.1384499758   -1.6488433557
 H   -0.7232684825   -1.6607321172   -1.2724012787
 H    0.7448825933   -0.5126666206    0.3903347104
 H   -0.9552436394   -0.3236867333    0.7308345077