16

 O   -0.6675553591    0.5893324965    0.5404229110
 C    0.0059358855    1.0017225066   -0.3661894482
 C    1.2669689920    1.8215459211   -0.1931544893
 C    1.3544383936    2.9614794736   -1.1939242118
 O    0.2934656613    3.8772176881   -0.9856762400
 C    0.7975991377    5.1925516430   -1.2122355470
 C    2.2842179875    4.9659849719   -1.5535544283
 O    2.5490719686    3.6785473355   -1.0152451339
 H   -0.2574607800    0.7741494037   -1.4254959881
 H    1.3224306542    2.2060974259    0.8272437837
 H    2.1246576885    1.1572198072   -0.3671706961
 H    1.3004896308    2.5766798588   -2.2319052012
 H    0.2516969421    5.6767217777   -2.0297642059
 H    0.6653555580    5.7844115495   -0.2998176477
 H    2.4489672272    4.9745979586   -2.6410831818
 H    2.9605042920    5.6833575523   -1.0851370256