18

 C   -0.6883150235    1.2906621194   -0.2585444845
 N   -0.1434245880   -0.0493623023   -0.0790393720
 C   -0.2284329448   -0.6721443527    1.2247470197
 C    0.4156721950   -0.0586532739    2.4429698844
 C   -1.0913720863   -0.1217963662    2.3246312796
 C    0.4343283416   -0.7948428845   -1.0593728364
 O    0.8853423089   -1.9207578548   -0.8830844324
 C    0.5772162653   -0.2872977672   -2.5061834199
 O    0.3803848656    0.8085011401   -2.9622169727
 H   -0.4364637343    1.6614062200   -1.2467872839
 H   -1.7776431507    1.2839044775   -0.1413426238
 H   -0.2672892276    1.9736244967    0.4878282412
 H   -0.1581384408   -1.7469817478    1.1318965126
 H    0.9258488306   -0.7219103866    3.1319091412
 H    0.8778073272    0.9170062614    2.3373174006
 H   -1.6145877717    0.8141017592    2.1710564039
 H   -1.6383065597   -0.8367824451    2.9290044951
 H    0.9557241928   -1.1298967131   -3.1189468325