16

 O   -0.1764620233    0.2336017037    0.5742671063
 C   -0.0462922198    1.2475117861   -0.0531804582
 C    1.3023519728    1.9933594957   -0.1013905226
 C    1.3699041905    2.9144316153   -1.2322045610
 N    1.4147687245    3.6413288223   -2.1292875364
 C    1.5088158823    2.7172815560    1.2523374130
 C    2.6679437557    3.7263300162    1.3860640449
 C    1.5471377102    4.7458345228    1.6815912146
 O    0.5255662277    3.7408234943    1.4601014234
 H   -0.8796666086    1.7213114284   -0.6073850505
 H    2.0864652723    1.2331780844   -0.1978697071
 H    1.4661953419    1.9449691323    2.0302748514
 H    3.3666572014    3.5267441008    2.1987437261
 H    3.2217135837    3.9142617397    0.4652499537
 H    1.5175329913    5.1276905627    2.7078554483
 H    1.4511647974    5.5777707994    0.9777121539