18

 C    2.0377839684   -0.8444364809    2.6093365878
 C    1.1138627009   -1.1227961539    1.4456599281
 C    0.2082079089   -0.0591928041    0.8641048668
 C    0.2421434479    1.2795680803    1.3683048486
 C    0.2364159626    2.4258579856    1.7646790645
 C    0.2349316184    3.7079784785    2.2160878770
 C    0.2341789191    4.8480238377    2.6160942268
 N    1.3360483817   -0.6297379407    0.0956434971
 C    2.4916520098    0.2081227146   -0.2016197292
 H    2.9542249140   -1.4381834954    2.5232375205
 H    2.3118931226    0.2088547767    2.6872577714
 H    1.5454373857   -1.1288604668    3.5446608437
 H    0.6945917446   -2.1290349622    1.4524168409
 H   -0.7670230481   -0.3662060341    0.4899693428
 H    0.2326161429    5.8492818853    2.9689444980
 H    2.3011662458    0.7378774541   -1.1395482796
 H    2.7372690871    0.9546613276    0.5640860752
 H    3.3589954076   -0.4424985526   -0.3491780303