18

 O   -0.0667829316    1.3794506561   -0.0444254942
 C    0.0277650666   -0.0088229816   -0.0586208713
 C    0.8544996475   -0.7185557761   -1.1489575767
 C    0.7108808439   -2.1271699370   -0.5281129527
 C    1.3553199059   -1.9029053340    0.8649310895
 C    0.3545257494   -0.8263703949    1.2714268426
 N   -0.9890834593   -1.5293616575    1.1926552490
 C   -0.7990468383   -2.1660038628   -0.1533201852
 C   -1.3036287951   -0.7721159633   -0.0548490646
 H    0.8237211267    1.7457966409   -0.0436308951
 H    0.3861330398   -0.6186819328   -2.1327414789
 H    1.8977612257   -0.3841637420   -1.2069399322
 H    1.0699554399   -2.9691553200   -1.1174748720
 H    1.3021145431   -2.7768147633    1.5200551799
 H    2.3920541801   -1.5573540950    0.8028291598
 H    0.4897535467   -0.2670521950    2.1955237728
 H   -1.4389960521   -3.0126096077   -0.3678771970
 H   -2.2929065989   -0.4009020741   -0.2990324436