16

 O    0.0197749748   -0.0147034529   -0.1088078722
 C   -0.0093129719    1.1817605121    0.0411061344
 N   -1.1273384257    1.9959654978    0.1249813195
 C   -0.7316034991    3.3700915379    0.2362658380
 C    0.1918996765    3.9555548799   -0.9215057754
 C    1.0164978896    4.6445915649    0.1833888016
 C    0.6515301785    3.3566260899    0.9600825438
 C    1.1465413999    2.1998160305    0.0645764428
 O    1.0008427362    2.8248466683   -1.2526952722
 H   -2.0247036625    1.6805534753   -0.2083546209
 H   -1.4948018680    4.0375959058    0.6305862058
 H   -0.1726992829    4.4396248504   -1.8252650518
 H    2.0642756066    4.8443220823   -0.0442678651
 H    0.5293939330    5.5242694230    0.6104022804
 H    0.7379517717    3.2385430433    2.0387067980
 H    2.1449872132    1.7889881816    0.1921876734