14

 N   -0.0083726002    1.3607225502    0.2684620498
 C    0.0378528976   -0.0220299200    0.0798014589
 N   -1.0681863777   -0.7538702742    0.0774636317
 N   -0.6147110345   -2.0496058146   -0.0360699920
 C    0.7243359381   -2.1084642721   -0.1125092272
 O    1.3909118059   -3.2687006454   -0.2242441635
 C    1.2113029331   -0.8177989091   -0.0449750055
 N    2.6033540725   -0.5257704831   -0.0670045511
 H    0.6248583761    1.8629672183   -0.3408535638
 H   -0.9516987915    1.7119748795    0.1562453880
 H   -1.2705467771   -2.8092209621   -0.0529172391
 H    2.3283892715   -3.0214234800   -0.2172364165
 H    2.8945221820    0.0074522415    0.7465756774
 H    2.8835486941    0.0011488409   -0.8887495770