18

 C   -0.8178079895    1.0962236832   -0.6926689821
 C   -0.0473241928   -0.0629688964   -0.0913726454
 O    0.6350380740   -0.7375061013   -1.1667083863
 C    1.3801050589   -1.8041748852   -0.8274097612
 N    1.5058834102   -2.2342634005    0.3520630902
 C    2.0341423326   -2.3941152984   -2.0829623906
 O    2.9185323827   -3.4212570432   -1.7612352836
 C    0.9571838184   -2.8963370527   -3.0359606966
 O    0.9497185944   -4.0451806881   -3.4050859444
 H   -0.1438866423    1.7967613364   -1.1939300374
 H   -1.5526487603    0.7429721698   -1.4218849352
 H   -1.3495873280    1.6353284004    0.0967722892
 H    0.6955306985    0.2691308274    0.6406567246
 H   -0.7034593639   -0.7786323321    0.4142405309
 H    2.1247231611   -3.0457189187    0.3385613037
 H    2.5492863941   -1.5634592925   -2.5948147773
 H    2.5842418867   -4.2058526920   -2.2278492482
 H    0.1978574951   -2.1606918659   -3.3542235401