14

 O   -0.4091952073    1.3702275273    0.2496273737
 C   -0.1286265384    0.0631590658    0.0855074834
 C    0.0966398061   -0.5977240386   -1.0795002933
 C    0.1241986104   -0.2042041412   -2.5170685155
 C    1.4324568112   -0.3636192477   -3.1548409484
 C    2.5041469634   -0.5029286565   -3.6786151933
 O    0.3355001252   -1.9139976203   -0.7336661287
 C    0.2382535376   -1.9447855475    0.6038352915
 N   -0.0376764365   -0.8040094587    1.1554476521
 H   -0.5102934774    1.5179621541    1.1975115891
 H   -0.6249255257   -0.7760653431   -3.0823390454
 H   -0.1888275595    0.8451183835   -2.5683739178
 H    3.4535618662   -0.6232253940   -4.1384198942
 H    0.3941644547   -2.8960894032    1.0872585370