14

 N   -0.2179457700   -1.0450459715   -0.5560056008
 C   -0.0917143392    0.0293001458   -0.1516240877
 C    0.0663878332    1.3982405503    0.3429933394
 C    1.4680568839    1.9634159735    0.1046755671
 C    1.8294191497    2.4580613685   -1.2864681428
 C    1.6042220747    3.4514179008   -0.1874990658
 C    2.5122002220    1.3506368000    0.8873881707
 N    3.3456827350    0.8673247787    1.5271074686
 H   -0.6663865815    2.0344072276   -0.1645358336
 H   -0.1754236345    1.4213416198    1.4109282217
 H    2.8423184581    2.2854214723   -1.6280290761
 H    1.0677460266    2.3420207507   -2.0493359670
 H    0.6886032627    4.0324156332   -0.1880884958
 H    2.4633336493    3.9603467204    0.2318138421