20

 C   -0.2098564403    1.3569512256    0.8621245433
 O   -0.2417145385   -0.0501379718    0.9331769931
 C    0.8843383316   -0.6566301186    0.3387556372
 C    0.7968375607   -2.1483612035    0.5917488729
 C    0.1176595860   -2.9976631391   -0.3959778321
 O    1.5506209397   -2.9412513015   -0.3322001867
 C    0.9032467837   -2.5609528052    2.0317527324
 C    1.3027295638   -3.9362917399    2.4009002987
 N    2.2403285600   -2.8145131053    2.6059492622
 H   -0.1969911117    1.7116311160   -0.1803481698
 H   -1.1135677606    1.7283116489    1.3506877435
 H    0.6709916099    1.7705234976    1.3770929241
 H    0.9185015167   -0.4689714466   -0.7461067823
 H    1.8161122975   -0.2595117591    0.7758732046
 H   -0.3216847904   -3.9396358445   -0.0754396115
 H   -0.3229230355   -2.5473273011   -1.2839281708
 H    0.2436890217   -2.0013526985    2.6891017869
 H    0.9143189499   -4.3845555284    3.3106927030
 H    1.5167093555   -4.6308688038    1.5941007401
 H    2.9180214002   -2.8329460813    1.8449126414