14

 O   -1.0013962771    1.5234459498   -0.0409435404
 C    0.0940034706    1.0736388394   -0.2521560022
 C    1.3611959484    1.9375751683   -0.2777064350
 O    2.4216970958    1.4181464920   -0.5321924066
 C    1.1818279798    3.4100373991    0.0172105386
 C    1.0720707520    3.7741690934    1.5384538354
 C    2.4268072900    4.4977057606    1.3243997794
 O    3.2094997340    5.0794953112    2.0188880683
 N    2.4056340907    4.2007708237   -0.0244828516
 H    0.2938680130    0.0000881719   -0.4504685626
 H    0.3576999207    3.8046811961   -0.5861560124
 H    0.2292823422    4.4128193492    1.8022111077
 H    1.1300610209    2.9319855964    2.2303153383
 H    3.1601381390    4.1763221088   -0.6953399070