21

 C    0.0455769965    1.5138148275   -0.0627706094
 C    0.0557491942   -0.0108049346    0.1015103407
 C    0.6640403866   -0.4138668562    1.4502827292
 C   -1.3703254653   -0.5815044357   -0.0855098777
 C   -1.4331585479   -2.0801762720   -0.1299227158
 N   -1.0722766615   -2.7388596715   -1.2329864563
 N   -1.2290386736   -4.0400040146   -0.9211470139
 C   -1.6819334587   -4.2351984323    0.3393934928
 C   -1.8280417652   -2.9804131342    0.8904238953
 H    1.0543186403    1.9288196708    0.0343453028
 H   -0.3466357138    1.8084218657   -1.0419613610
 H   -0.5813554787    1.9867853489    0.7032140803
 H    0.6763802456   -0.4398284441   -0.6958706447
 H    0.0831108494    0.0052052822    2.2816845793
 H    0.6857813491   -1.5005521403    1.5725616946
 H    1.6899249884   -0.0425103189    1.5446884257
 H   -2.0128491878   -0.2172667215    0.7260327767
 H   -1.7838590741   -0.1860974449   -1.0200369157
 H   -1.0250331128   -4.7353672848   -1.6182191841
 H   -1.8638830951   -5.2233799102    0.7315442352
 H   -2.1719019654   -2.7416949392    1.8839716059