18

 C    1.0276320501   -1.0415925533   -0.5109068288
 C   -0.0019272855   -0.0369757046   -0.9000288875
 N    0.6685590414    0.0417855944    0.3982580080
 C   -0.0781829573   -0.2751344896    1.6144281339
 C   -0.9037964556    0.9127816250    2.0850392947
 C   -2.1382628019    0.5684885312    2.4529143208
 C   -2.3523039241   -0.8939432438    2.2210284570
 O   -2.2694969601   -1.2625931385    0.8247632383
 C   -1.1062678860   -1.4248835629    1.6476002565
 H    0.6768673401   -2.0472590020   -0.2892756019
 H    2.0329152606   -0.9941409859   -0.9211360330
 H    0.2556665372    0.7601143840   -1.5925324977
 H   -1.0357761957   -0.3621201292   -0.9254604196
 H    0.6822729207   -0.5143637804    2.3739869651
 H   -0.4933915692    1.9154099955    2.0659795333
 H   -2.9056459329    1.2331006147    2.8298230933
 H   -3.0443789873   -1.4881570906    2.8094773055
 H   -0.7817574146   -2.4516230539    1.7914950921