25

 C    0.1822980464    1.3918112312   -0.0588480970
 O    0.0355515366   -0.0053960808   -0.0175162193
 C    0.7018176643   -0.6623388523   -1.0760844418
 C    0.4994551858   -2.1844492716   -0.9619598701
 C    1.0804477517   -2.6709136770    0.3768637859
 C   -1.0070029456   -2.5074195802   -1.0105963379
 C    1.1719550265   -2.8125997339   -2.1857311616
 C    2.6554256506   -3.0646142503   -2.3051496041
 C    1.6945804152   -4.2260300945   -2.2248737079
 H    1.2391386793    1.6953574233    0.0141511981
 H   -0.2306925083    1.8198800017   -0.9865289730
 H   -0.3628758188    1.8059596473    0.7931442754
 H    0.3119826408   -0.3053030257   -2.0456567716
 H    1.7791743093   -0.4256876595   -1.0529196791
 H    0.6170995034   -2.1180025818    1.1968895339
 H    0.8868600417   -3.7359434030    0.5345492278
 H    2.1610604692   -2.5063292235    0.4397825883
 H   -1.4518244284   -2.1649741401   -1.9519644725
 H   -1.1717399019   -3.5869755839   -0.9364760231
 H   -1.5354740909   -2.0147867281   -0.1910914392
 H    0.7019080651   -2.4891592224   -3.1129146671
 H    3.1353465378   -2.8515112916   -3.2542119739
 H    3.2871553218   -2.8798699206   -1.4435300565
 H    1.6903703223   -4.8057115696   -1.3088810212
 H    1.5133752060   -4.8139797231   -3.1179991225