20

 C    0.0217342100    1.6059334449   -0.2661785316
 C   -0.0593013378    0.0977990861   -0.0285361500
 C    0.8303750502   -0.7607055402   -0.9925764536
 C    1.7007146821   -1.0604144474    0.2472002307
 O    2.7332540904   -1.6333323765    0.4673157484
 N    0.8278733136   -0.3710771380    1.0602789928
 C   -1.5012501750   -0.3600479843    0.1010486239
 C   -1.8673097275   -1.6746061528    0.7346620083
 C   -2.2015352917   -0.3802807609    1.4360244764
 H    1.0606308661    1.9304445852   -0.3774120722
 H   -0.5245921670    1.8827291598   -1.1737462927
 H   -0.4247333588    2.1549690755    0.5697256157
 H    0.3371205311   -1.6349180602   -1.4202521575
 H    1.3505253413   -0.2042453365   -1.7744576470
 H    0.9614701587   -0.0207639771    1.9987723204
 H   -2.1109633743   -0.0545319358   -0.7456674462
 H   -2.6746626443   -2.2483486673    0.2937932599
 H   -1.0656748607   -2.2709426245    1.1556528771
 H   -1.6204013323   -0.1336879720    2.3188567329
 H   -3.2364441642   -0.0607384380    1.4834659643