20

 C   -0.0701667518    1.5429621614   -0.0356529545
 C    0.1251548117    0.0423230380    0.0238699052
 C    1.4394306783   -0.6676213800   -0.1856478964
 C    2.5906790573    0.0614585182    0.4728279220
 N    3.1611609582   -0.7069095541    1.5873722047
 C    1.8938229101    0.0026818741    1.8085611132
 C    1.8893875835    0.9894145333    2.9485081194
 O    3.1466115261    1.6112847984    3.0960468026
 C    0.7193864878   -0.7236130334    1.1837726748
 H    0.7803567023    2.0860834863    0.3812473266
 H   -0.1981443264    1.8706320229   -1.0731502723
 H   -0.9667298600    1.8407972119    0.5190087877
 H   -0.7003165585   -0.5086497566   -0.4274937502
 H    1.5465039373   -1.4752790972   -0.9020681248
 H    3.1954609369    0.8573584330    0.0553879451
 H    3.0367975187   -1.7101345493    1.4707940049
 H    1.1462000697    1.7752631060    2.7728915546
 H    1.5865638891    0.4618338769    3.8711876334
 H    3.7936854331    0.9157422503    2.9084084021
 H    0.2100174468   -1.5741294201    1.6250239118