20

 C   -5.9301800732    2.0421804719    0.4412855431
 C   -4.8942947872    1.8270042147   -0.6695351296
 C   -4.0858283113    0.5632657755   -0.4417925684
 C   -4.4504985818   -0.7709659174   -1.0209007210
 C   -5.6567807222   -0.9973725544   -1.9082400430
 N   -3.2415641048   -0.0663504576   -1.4599858253
 C   -3.1526645905    0.4929919022   -2.7998879428
 H   -6.4726090029    2.9820163633    0.3004987807
 H   -6.6629828640    1.2289330251    0.4611018018
 H   -5.4504671102    2.0781707834    1.4254586044
 H   -5.3988678896    1.8124557367   -1.6392964275
 H   -4.2079206510    2.6838419949   -0.6974154006
 H   -3.6171188400    0.5541234026    0.5446342162
 H   -4.2151333427   -1.6467840431   -0.4146245075
 H   -5.9697699177   -0.1075156757   -2.4571493636
 H   -5.4540144878   -1.7859947463   -2.6417941657
 H   -6.5068602344   -1.3272573092   -1.3012715688
 H   -4.0832056125    0.9023358087   -3.2179409302
 H   -2.4077786125    1.2957270786   -2.7961025644
 H   -2.7955439536   -0.2861260740   -3.4816302880