27

 C    0.1825287336    1.5453151120    0.0085360326
 C    0.0526030105    0.0197696002    0.0015325208
 C   -1.4039232580   -0.4608255089    0.0129712568
 C   -1.5203892741   -1.9903557401    0.0058311332
 C   -2.9517777510   -2.5813322748    0.0164123616
 C   -3.7167207660   -2.1684576745    1.2878314910
 C   -3.7409818885   -2.1548775722   -1.2355455971
 C   -2.7951320890   -4.1132885079    0.0066659208
 O   -4.0792019898   -4.7230823508    0.0158529453
 H    1.2313210746    1.8586084468    0.0001191715
 H   -0.3041330318    1.9879462784   -0.8678411359
 H   -0.2870987103    1.9783846780    0.8988730324
 H    0.5615702587   -0.3876582179   -0.8822561378
 H    0.5784709457   -0.3971466945    0.8708834325
 H   -1.9059383854   -0.0490884025    0.8973836538
 H   -1.9228444531   -0.0396091759   -0.8571035680
 H   -0.9925854351   -2.3744539494   -0.8790103614
 H   -0.9756953061   -2.3839332171    0.8761511415
 H   -3.9241020090   -1.0946399195    1.3015335702
 H   -4.6697532932   -2.6993107721    1.3459086219
 H   -3.1410442184   -2.4110041712    2.1889762496
 H   -3.1827389944   -2.3876020030   -2.1501494055
 H   -4.6949811360   -2.6852226324   -1.2810172318
 H   -3.9485292353   -1.0810059225   -1.2336823041
 H   -2.2275085486   -4.4135848355   -0.8892582920
 H   -2.2102754637   -4.4231304157    0.8881451197
 H   -3.9592849864   -5.6764711771    0.0088708485