18

 O   -0.5872721244    0.9110631169   -1.2066043625
 C   -0.0711793137    0.0689680987   -0.1823256951
 C   -1.2457164111   -0.8226699408    0.2597707309
 C   -1.2241359311   -2.0161262555   -0.7236092736
 C   -1.9071242320   -1.8982911097   -2.1150386338
 C   -0.4822581857   -1.6777169204   -2.6574532971
 O    0.0148010513   -1.3555815999   -3.6993302730
 N    0.1053151108   -1.9356165128   -1.4016040960
 C    0.9538575350   -0.9409333672   -0.7538252026
 H    0.1473498238    1.3196588949   -1.6762309408
 H    0.3442972380    0.6618978463    0.6441699733
 H   -1.0841466535   -1.1761486246    1.2824798759
 H   -2.1805784640   -0.2587538245    0.2405190522
 H   -1.3888575384   -2.9689272752   -0.2153843103
 H   -2.4317478442   -2.7842323908   -2.4787552000
 H   -2.5346730234   -1.0155228232   -2.2488311481
 H    1.6349445793   -0.4951182946   -1.4843228369
 H    1.5512860833   -1.3956621879    0.0450587075