13

 O    0.3930897457    0.0821662604    1.0554704403
 C    0.4557895208    0.7956368393    0.0882349728
 C    1.3866854054    1.9761253263    0.0063992527
 C    1.5897659431    2.7409565979    1.3059456630
 N    2.6252913821    1.9204961056    0.7493251900
 C    3.2053217639    0.7775307831    1.2726238763
 O    3.4013585318   -0.2417990378    0.6644377113
 C    3.6903727905    0.9779667955    2.6506610362
 N    4.0651009327    1.1082888216    3.7358061986
 H   -0.1878647193    0.6407818357   -0.8008296296
 H    1.4239315471    2.5070617202   -0.9405904689
 H    1.7565236794    3.8128536321    1.2653299878
 H    1.0513135668    2.3597772401    2.1695884195