18

 C    0.0736545155    1.4825688144   -0.2959627455
 N    0.0015465691    0.0913586500    0.1274085523
 C   -1.2711639794   -0.5212956725    0.5367293087
 C   -0.7945291670   -1.9762723217    0.6963806839
 C    0.4603785705   -1.9042724908    1.1469558382
 C    0.7794962159   -0.4036368688    1.2730241469
 C   -0.0757282478    0.0155351375    2.5140432114
 O   -0.8605010986    1.2065673121    2.3501709472
 C   -1.4452575206   -0.0630221456    2.0223084022
 H    1.1071149808    1.6903844233   -0.5967633027
 H   -0.5476920250    1.5949633903   -1.1920772380
 H   -0.2351177370    2.2275037834    0.4430229778
 H   -2.1022046714   -0.3320784491   -0.1423508781
 H   -1.4011023165   -2.8534578149    0.5197908852
 H    1.1261951522   -2.7084558394    1.4272177934
 H    1.8279825263   -0.1065859369    1.2687909255
 H    0.2208012397   -0.2351478499    3.5286846980
 H   -2.2906743067   -0.3791983214    2.6269329033