14

 C    0.8934205328    0.8726770902   -0.2482314915
 O   -0.2408607290    0.2652251051   -0.8552350463
 C   -0.3771084652    0.7191380242    0.4904581058
 C   -0.5368619196   -0.3259796181    1.5339616874
 C   -0.2726651537   -1.6817209196    1.2894264518
 N   -0.3977111233   -2.6007569794    2.2385119772
 N   -0.7915332328   -2.2136587068    3.4530316792
 C   -1.0522092102   -0.9217280996    3.6371349758
 N   -0.9514132559    0.0609919513    2.7350559851
 H    1.7232430412    0.2038703471   -0.0261022937
 H    1.1644202560    1.8549993213   -0.6307276845
 H   -1.0008679736    1.5990280561    0.6367514536
 H    0.0305977652   -2.0287318615    0.3078909679
 H   -1.3855202519   -0.6460193803    4.6335702222