22

 C   -1.7943230762    1.3924543527   -0.8016903599
 O   -1.7308011737    0.3940407336    0.1885301263
 C   -0.9528622295   -0.7479849167   -0.1637726097
 C    0.5484714153   -0.4727028067   -0.0280378270
 C   -1.4268481551   -1.8620201518    0.7271798822
 C   -1.2773770985   -1.9421394233    2.2586573125
 C   -1.1300069681   -3.4963401263    2.1325994358
 C   -1.3031286136   -3.3581884296    0.6134445623
 N   -2.5518918267   -2.6775169979    0.2827951862
 H   -2.4883426453    2.1571862186   -0.4429653602
 H   -0.8214471948    1.8711519527   -0.9897349362
 H   -2.1713740548    0.9937601879   -1.7565331160
 H   -1.1812076698   -1.0409487705   -1.2003566544
 H    0.7923498989   -0.1581694575    0.9909550419
 H    1.1245738946   -1.3725884415   -0.2646023428
 H    0.8691246067    0.3179729005   -0.7119203549
 H   -0.3682923385   -1.4719363992    2.6391139432
 H   -2.1301423580   -1.5586464955    2.8269877846
 H   -0.1361645879   -3.8421760229    2.4273275355
 H   -1.8784991581   -4.1166589742    2.6374064123
 H   -0.8427769057   -3.9727775590   -0.1528948880
 H   -3.2661829112   -2.7948757136    0.9998959164