18

 O    1.1538781339    0.8264952113   -0.2568833681
 C    0.3435885901   -0.2835055124    0.0047451434
 C   -0.1740813985   -0.6301977079    1.4363302674
 C   -1.1831543609    0.5508202245    1.3040487663
 C   -1.2077622438   -0.1858045125   -0.0756661044
 C   -1.2377003605   -1.5175159628    0.7263316848
 N   -1.9451380105    0.1560733197   -1.2455238424
 C   -3.3066322432    0.1554858448   -1.2986477337
 O   -4.0342018478   -0.1709119587   -0.3859766321
 H    0.8975631066    1.5524151000    0.3213770624
 H    0.7846035974   -1.1152942407   -0.5520760521
 H    0.4218558151   -0.8927562472    2.3078689978
 H   -2.0981239002    0.4826463873    1.8934408600
 H   -0.7918928614    1.5731343100    1.3272130495
 H   -0.8726366664   -2.4091748860    0.2089705304
 H   -2.1573326736   -1.7078840534    1.2776039548
 H   -1.4309294750    0.5029294478   -2.0412501659
 H   -3.6821918714    0.4860521163   -2.2879238481