19

 C   -0.1100114207    1.1843855791   -1.7436741442
 C   -0.0472444206   -0.1142054900   -0.9636589501
 C    1.2575262132   -0.6585341343   -0.3774844289
 C    2.5615202797    0.0365472172   -0.5523350906
 O    3.6178115487   -0.5480238247   -0.4671962261
 C    0.1296661708   -0.1494396073    0.5259058951
 C    0.2285729742    1.0746733145    1.3815011424
 C    1.3455714986    1.3113380514    2.3081704422
 O    1.2251326012    2.0538172444    1.0886341823
 H    0.4711199818    1.9811625925   -1.2769238413
 H    0.2571062142    1.0450414652   -2.7656968224
 H   -1.1476668343    1.5287858264   -1.8092991768
 H   -0.6920776214   -0.8916785877   -1.3656399875
 H    1.3849882105   -1.7365828018   -0.3768658324
 H    2.5242012731    1.1149346361   -0.7849272031
 H   -0.4011102342   -0.9471866533    1.0419392835
 H   -0.7381944960    1.5069520945    1.6482205417
 H    1.1828183407    1.8882922496    3.2163789452
 H    2.1718543706    0.6037839183    2.3378530809