19

 O    0.0056235084    1.4049225516   -0.0688308397
 C    0.0578348941   -0.0015658977   -0.0547423301
 C   -0.5863261090   -0.6980795444   -1.2297361665
 C   -1.3176493118   -0.6323691005    0.1038677502
 C   -1.5849635376   -1.8245309572    0.9402020354
 C   -0.7718009973   -2.8413046115    1.2350892612
 C    0.6691926348   -3.0279342910    0.8058276242
 C    1.5415583611   -1.8014120590    0.9760789305
 C    1.2626162851   -0.5458022072    0.6223724692
 H    0.6435422624    1.7140593210   -0.7220881367
 H   -0.9599429465   -0.0608859563   -2.0235531517
 H   -0.1885245713   -1.6534375898   -1.5494720456
 H   -2.0987294453    0.1192579758    0.1331739468
 H   -2.5885346283   -1.8560070317    1.3587636894
 H   -1.1739725444   -3.6333971859    1.8617263104
 H    1.1007877046   -3.8374526391    1.4023590758
 H    0.7182460956   -3.3946584860   -0.2316271673
 H    2.5025058644   -1.9767693902    1.4534543887
 H    1.9942696410    0.2252216389    0.8546620558