19

 C   -0.0232290073    1.5140605509   -0.3321081818
 C   -0.0391460417    0.0530732127    0.0493595213
 N    1.2225612141   -0.7042740440   -0.0147327142
 C    0.5542235372   -0.5454215442    1.2791398777
 C    1.2990029127    0.1649463875    2.4044298989
 C    2.1227563397   -0.8643688924    3.2307526090
 O    2.7678218965   -0.2876396446    4.3387903889
 C    2.2172327048    1.2231692349    1.9794785312
 N    3.0012555935    2.0392562375    1.7420008796
 H    0.9074335624    2.0019966899   -0.0429100827
 H   -0.1323332716    1.6154782939   -1.4170660921
 H   -0.8599744246    2.0427499922    0.1374742910
 H   -0.9291154596   -0.4742921790   -0.2961209953
 H    1.0843549313   -1.6365208914   -0.3928099720
 H    0.0136375607   -1.4069551928    1.6726628234
 H    0.5694586459    0.6211507393    3.0861066713
 H    1.4303446335   -1.6119430543    3.6300242554
 H    2.8236477460   -1.3742990609    2.5543718425
 H    3.4395721165    0.3222190049    4.0114316278