11

 O   -0.3289186990    0.0344327253    0.0072474349
 C   -0.0683391358    1.2066523390    0.0088888595
 N    1.1973181081    1.7655546168   -0.0019654034
 C    2.4165313295    1.1155641271   -0.0153419956
 N    3.5521518896    1.8106749765   -0.0162015291
 N    4.4359554148    0.8170241554   -0.0313861413
 N    3.9123225727   -0.3930720085   -0.0390519485
 N    2.6120343622   -0.2275288620   -0.0294890705
 H   -0.8314483828    2.0095584735    0.0194046442
 H    1.2585094827    2.7729491302    0.0032991997
 H    5.4323770282    0.9752928067   -0.0364021698