18

 C    1.3965941146    0.0326071838   -2.3911605950
 C    0.9456250552   -0.7091852673   -1.1547320346
 C    1.7234092414   -1.8726296911   -0.5473881156
 C    2.9865224829   -2.3407301639   -1.1692659203
 O    3.8737043689   -1.6434876807   -1.6125586569
 N    1.5714650018   -0.5712493365    0.1333407932
 C    2.7120133991    0.3129191387    0.3470095069
 C    3.1719255244    0.2110427133    1.7949579041
 O    4.1951719120    0.6908503893    2.2044100138
 H    2.4764335352   -0.0149406759   -2.5325887548
 H    0.9114486131   -0.3932601232   -3.2748234541
 H    1.0940911474    1.0836047786   -2.3251256809
 H   -0.1360761555   -0.8266343993   -1.0818173777
 H    1.1503320426   -2.6749062311   -0.0870379147
 H    3.0728630481   -3.4490741102   -1.2024230947
 H    3.5691898106    0.1420925485   -0.3121873573
 H    2.3721867991    1.3456850454    0.1918721730
 H    2.4642858091   -0.3370943985    2.4571347857