18

 C   -0.0069533545   -1.1976847068   -0.1530394527
 C    0.0118823006    0.0016707305   -0.0551879429
 C   -0.0005668864    1.4370577461    0.0477405968
 N    0.4260269069    2.2191429059   -1.1556151843
 C    1.3039437233    2.1740084459    0.0248002606
 C    1.4228760435    3.4644874710    0.8282904062
 C    0.5300428538    3.4679675530    2.0848220561
 C   -0.8550171449    2.9396142418    1.8014218304
 C   -1.1028773284    2.0275145900    0.8631716042
 H   -0.0139707218   -2.2564930663   -0.2329199015
 H    0.7618073500    1.5639265921   -1.8598139272
 H    2.1965540427    1.5587752756   -0.0456715366
 H    2.4671974218    3.6322718324    1.1108728842
 H    1.1246319195    4.2920941188    0.1775421837
 H    0.9916387675    2.8646767044    2.8802387639
 H    0.4677000877    4.4851810714    2.4859071102
 H   -1.6745730841    3.3305886679    2.3987211115
 H   -2.1079099174    1.6633281864    0.6745354174