19

 O    0.1035975014    1.3985236389   -0.0548370750
 C    0.0448901920   -0.0100510813   -0.0637563787
 C   -1.3907528458   -0.5425288312    0.0494812608
 C   -1.4589798001   -2.0822008887   -0.0790358509
 O   -2.7695683807   -2.5811802283    0.0954335871
 C   -3.2691159802   -2.3148820083    1.3899141279
 C   -3.3812671744   -0.7988948471    1.6415656987
 C   -2.0597645994   -0.1139535222    1.3505847409
 O   -1.5692093573    0.7039132250    2.1033790660
 H   -0.2418566476    1.6594242504    0.8094431476
 H    0.4818888732   -0.3404437721   -1.0129180208
 H    0.6538789895   -0.4460331434    0.7448927269
 H   -1.9935095902   -0.1180889136   -0.7658479132
 H   -1.1377403594   -2.3906066374   -1.0775951579
 H   -0.7744026971   -2.5438274454    0.6530974050
 H   -4.2506601238   -2.7911754009    1.4531293768
 H   -2.6193293640   -2.7728544613    2.1539748349
 H   -4.1324791964   -0.3905122643    0.9534643995
 H   -3.6897541897   -0.5750491989    2.6657842943