17

 O   -0.0379111827   -0.0378819522   -0.0036071182
 C   -0.0139700511    1.1728524637    0.0067383834
 N    1.1319171919    1.9258608605    0.0003369154
 C    2.4256475618    1.3927210411   -0.0181341334
 N    3.3846662079    2.2271382899   -0.0213967237
 C    2.7931353029    3.5732726031   -0.0036391903
 C    1.2642775404    3.3785995380    0.0109610120
 C    0.3099883808    4.2680296715   -0.7302945613
 C    0.3260434238    4.2555804074    0.7867072726
 H   -0.9282688786    1.7943249203    0.0212944011
 H    2.5272425287    0.3149475500   -0.0282773717
 H    3.1474479107    4.1169027346    0.8798945421
 H    3.1286777421    4.1319985221   -0.8850735559
 H    0.7250742971    5.1274341067   -1.2474876421
 H   -0.5367754393    3.8111183674   -1.2322060378
 H   -0.5100065506    3.7904362503    1.2989064363
 H    0.7521765841    5.1064427356    1.3090177315