13

 N    0.0429407643    1.2852373021    0.0074767577
 C   -0.0391702571   -0.0514129832    0.0006394575
 N   -1.1953557532   -0.6562393327    0.0037765615
 C   -1.0806564305   -2.0081741049   -0.0042343314
 O   -2.2536467801   -2.6402383779   -0.0014153944
 N    0.0083334699   -2.7273723459   -0.0142833152
 C    1.2055230871   -2.0674896622   -0.0171879441
 N    2.3823760153   -2.5234680875   -0.0265541831
 O    1.1524432217   -0.6421761597   -0.0091503095
 H    0.9398966463    1.7374696516    0.0052744022
 H   -0.8077975363    1.8195020729    0.0153738629
 H   -2.0482428604   -3.5864319439   -0.0078258646
 H    2.3320763030   -3.5405407189   -0.0321137697