15

 O   -0.0906076033    1.3736290346   -0.0913156002
 N    0.0582792466   -0.0294888889   -0.0873858191
 C   -1.0541685198   -0.6078330137   -0.0432551686
 C   -2.5650514016   -0.4312243015    0.0103151806
 N   -2.5981615319   -1.5351686793   -1.0471103481
 C   -1.5852353380   -2.0236386171   -0.0120634019
 C   -2.5570242413   -1.5399536362    1.1380730808
 C   -2.0631365017   -1.2574161902    2.4676120222
 C   -1.6511007910   -1.0228294171    3.5723403309
 H    0.8253085100    1.6688430140   -0.1317711593
 H   -3.1717340594    0.4686385845   -0.0510151093
 H   -3.4661467372   -2.0695243387   -0.9231955736
 H   -1.0581590209   -2.9713320137   -0.0984451003
 H   -3.4907753645   -2.1127692817    1.1550549200
 H   -1.2813306760   -0.8114194550    4.5452919557