20

 C   -0.0459139505    1.5139050595    0.0178066313
 C    0.0124184978    0.0074340906   -0.0260174570
 C    0.4303759235   -0.7422736538   -1.2935657594
 C   -0.5202880891   -1.8461906130   -0.7780462101
 C    0.2858959254   -2.7720462390    0.1287594109
 O    1.0843777901   -1.9748637307    1.0085421334
 C    0.4254455435   -0.7495216024    1.2966366688
 C   -1.0869975924   -0.9800661114    1.4982352620
 N   -1.2985490714   -0.7949858652    0.0238275579
 H    0.9642060240    1.9356886220   -0.0416455799
 H   -0.6306348488    1.9001885916   -0.8228615108
 H   -0.5039072673    1.8781164306    0.9437183687
 H    0.0522961757   -0.2401637816   -2.1872575140
 H    1.4829581743   -1.0036727474   -1.4216898126
 H   -1.1376012112   -2.3985395199   -1.4904130597
 H   -0.3678155434   -3.4453954781    0.7009305347
 H    0.9718686116   -3.3926705126   -0.4579832893
 H    1.0278530719   -0.2320575598    2.0478951773
 H   -1.4079981485   -1.9291443885    1.9358476702
 H   -1.5865302050   -0.1641690509    2.0275547075