15

 C    0.0579058959    1.3926671805    0.0070091005
 O   -0.0131777337   -0.0226404624    0.0033076726
 C   -1.2361092167   -0.5851899686    0.0112874958
 C   -2.4383627367    0.0642766846    0.0227776876
 N   -3.6599964693   -0.5717685609    0.0302524391
 C   -3.6381325051   -1.8617213168    0.0257446854
 N   -2.4892477629   -2.5951262343    0.0144560916
 C   -1.1950433268   -2.0518664015    0.0066912887
 O   -0.2088889139   -2.7589211403   -0.0043829441
 H    1.1194017452    1.6418892992   -0.0005452201
 H   -0.4246881735    1.8193828573   -0.8816389721
 H   -0.4107087602    1.8140001645    0.9056509099
 H   -2.4876167200    1.1470294159    0.0265416233
 H   -4.5651338328   -2.4279439709    0.0309022267
 H   -2.5235772295   -3.6064195661    0.0111512251