20

 C    0.1427112690    1.2318006101   -0.3218638058
 O   -0.3571467256    0.1149409576    0.4030094109
 C    0.5684697803   -0.6089489912    1.0661874291
 N    0.2116493049   -1.6119302716    1.7349010599
 C    1.1954994145   -2.4163807443    2.4761989938
 C    2.6395971398   -1.8656982210    2.5126918946
 C    0.6535906969   -2.5370638229    3.9189894165
 C    1.2196436823   -3.7528112970    1.8575553237
 C    1.2671232053   -4.8479764466    1.3653496277
 H    0.8464422360    0.9221736257   -1.1042577523
 H   -0.7213512362    1.7063745135   -0.7882236686
 H    0.6341796596    1.9553389571    0.3402827691
 H    1.5922117675   -0.2314731080    0.9520502694
 H    2.6617506778   -0.8700964475    2.9682133769
 H    3.2667767819   -2.5296065600    3.1122636039
 H    3.0793486553   -1.8109431401    1.5130750060
 H   -0.3663517665   -2.9245070247    3.8997117180
 H    1.2812429368   -3.2070671688    4.5126439491
 H    0.6419078048   -1.5488566778    4.3891706737
 H    1.2932218357   -5.8136580024    0.9245503345