16

 C    0.0059338797    1.5156183027   -0.1260881457
 O    1.4495047894    1.5244064979    0.1704360292
 C    1.3631268520    0.1421778937    0.5457129108
 C    0.7861682353   -0.3128295166    1.9183729014
 N   -0.2906147261   -1.0273762657    1.1185134406
 C    0.5286377642   -1.9275204856    0.2068149770
 C    1.7571233119   -1.0954979848   -0.2552558688
 C    0.4326717788   -1.0920314356   -1.0277092549
 C   -0.0286554637   -0.0163154248   -0.0307359452
 H   -0.5699651809    2.0539400560    0.6352144701
 H   -0.2026164721    1.9381990607   -1.1132642918
 H    1.3750141254   -0.9563479284    2.5762916910
 H    0.3467861388    0.5110957388    2.4850719927
 H    0.5412348738   -3.0019166644    0.3239020537
 H    2.7108473714   -1.5568690594   -0.4785566916
 H    0.1601391220   -1.3494563046   -2.0424166083