17

 C   -0.1267411909    1.5718354274   -0.0074707867
 C    0.1389967148    0.0973549352   -0.0000157577
 C   -0.6504696416   -0.8926917858    0.8281449115
 C    0.8438854401   -0.6823221844    1.0918863749
 O    1.7278023946   -1.5701340769    0.4399554013
 C    1.3519898113   -1.5871479369   -0.9256524768
 O    0.6848727088   -0.3735871515   -1.2099555935
 C    1.3327227470   -0.1336826078    2.3147590611
 C    1.7111633916    0.3478384106    3.3496215273
 H    0.7652040894    2.1141137311   -0.3336321981
 H   -0.9488778632    1.8139886375   -0.6883760726
 H   -0.3952610254    1.9132594948    0.9951075675
 H   -1.3262762290   -0.4782385719    1.5675215286
 H   -0.9667344380   -1.8364936718    0.3983362652
 H    2.2496270575   -1.6611311866   -1.5471190435
 H    0.6884306111   -2.4444296062   -1.1246627254
 H    2.0554838020    0.7672717831    4.2623382969