18

 C   -0.0855017893    1.5598959898    0.0553650353
 C   -0.0491453299    0.0286441620    0.0096841467
 C   -1.4617234205   -0.5663791533   -0.0108269732
 C    0.7561871593   -0.4839739893   -1.2130028710
 C    2.1558203753   -0.0892417110   -1.2075356048
 C    3.3215729601    0.2377789612   -1.1877453459
 C    4.6317768282    0.6049729831   -1.1663234422
 C    5.7946242243    0.9308356454   -1.1474490539
 H    0.9234577970    1.9812901363    0.0714649230
 H   -0.6056497390    1.9641657734   -0.8215760350
 H   -0.6154404268    1.9104679805    0.9465437282
 H    0.4663106342   -0.3312188189    0.9092108929
 H   -2.0102562826   -0.2445557413   -0.9042988241
 H   -1.4385817571   -1.6613264589   -0.0085547051
 H   -2.0344423590   -0.2413051675    0.8632656797
 H    0.6945619396   -1.5797680231   -1.2519006996
 H    0.2788809989   -0.1200108242   -2.1342812238
 H    6.8165858874    1.2172003357   -1.1310208872