19

 C    0.0063787816    1.5398234876    0.0335565062
 C   -0.0306598078   -0.0005250551   -0.0302378497
 C   -1.4792122495   -0.5279088540    0.0035780652
 C    0.6859367760   -0.4930703087   -1.2074195994
 C    1.2680929522   -0.8862656486   -2.1884006834
 C    1.9396288100   -1.3694047344   -3.3625685922
 C    3.2767717073   -2.0255693706   -3.2445601065
 N    2.0985159218   -2.8299303099   -3.5834082976
 H    1.0351011273    1.9091284890    0.0408568517
 H   -0.5033373065    1.9729807209   -0.8325695611
 H   -0.4961210222    1.8931241000    0.9396737410
 H    0.4862324934   -0.3836015847    0.8610561562
 H   -2.0415109454   -0.1634619097   -0.8616382989
 H   -1.5011569081   -1.6206726835   -0.0149909921
 H   -1.9862420799   -0.1865904397    0.9118522912
 H    1.7230296585   -0.8270752829   -4.2796566378
 H    3.9979322824   -1.9068140373   -4.0483821527
 H    3.7040824651   -2.1074720296   -2.2496604898
 H    1.7706718138   -3.3178568988   -2.7530085503