18

 C    0.0594759142    1.6152969259   -0.0005332513
 C    0.0841080168    0.0875379889   -0.0059469947
 C    0.8172822189   -0.5607041122   -1.1754132429
 O    2.0669961133    0.0814232781   -1.5250565078
 C    2.8282847857   -1.0924168747   -1.1580753521
 C    1.5767470633   -1.7618202995   -0.5720858999
 O    1.4797449993   -1.6419062245    0.8447144242
 C    0.7740450856   -0.5191522411    1.2074474676
 N    0.6886944074   -0.0871291741    2.3880049913
 H    1.0686053428    2.0088471106   -0.1393954690
 H   -0.5746448294    1.9985951157   -0.8052869994
 H   -0.3261433637    1.9712981262    0.9568404440
 H   -0.9458636032   -0.2960517690   -0.0045798694
 H    0.1947065210   -0.7330832055   -2.0583790763
 H    3.2456004525   -1.5976601576   -2.0380577288
 H    3.6239278362   -0.8729862701   -0.4391351701
 H    1.3425761158   -2.7864679889   -0.8606373407
 H    1.2274453235   -0.6693822681    3.0307794854