20

 C    0.0139416296    1.5299802676    0.0830438040
 C    0.0256444509    0.0131786169   -0.0309533408
 C    0.6529901719   -0.4938191102   -1.3319269028
 C    0.5650295064   -2.0268231582   -1.4085211283
 C    0.8910734908   -2.6938559933   -0.0826983490
 C    2.1940756100   -2.4595780735    0.6526824182
 C    0.9125954079   -1.8584681529    1.1722720535
 O    0.7711163713   -0.4687086954    1.0891273332
 H    1.0314897411    1.9262948379    0.0085497454
 H   -0.5909269906    1.9705061994   -0.7152724233
 H   -0.4018671291    1.8368691406    1.0464387123
 H   -1.0096599918   -0.3655060369    0.0329040366
 H    0.1448487988   -0.0484005975   -2.1943651060
 H    1.6957383114   -0.1542869842   -1.3629390588
 H   -0.4632640736   -2.2994383575   -1.6794281419
 H    1.2081701508   -2.4132011731   -2.2081454880
 H    0.4741100013   -3.6908963300    0.0282189293
 H    2.6414716323   -3.2927146921    1.1839517442
 H    2.9041871863   -1.7573188693    0.2293113695
 H    0.4761583443   -2.2659987384    2.0819058527