17

 C    0.4135682181    1.8769240795   -0.6322482728
 C   -0.0030402853    0.4226273594   -0.6514958106
 C    0.9026980257   -0.6143213376   -1.2847840671
 N    0.6118664317   -0.6139908007    0.1478909845
 C    1.7088546103   -0.3179520177    1.0614837038
 C    0.3721251729   -1.7362355574   -2.0983625348
 O    0.8399924044   -2.0927129731   -3.1520382553
 C   -0.8260210681   -2.4162112754   -1.5499351600
 N   -1.7756528072   -2.9625451160   -1.1809783618
 H    1.4971857698    2.0077245532   -0.6090996682
 H    0.0334944808    2.3814888843   -1.5255700811
 H   -0.0118198943    2.3827856815    0.2411154885
 H   -1.0753766110    0.2708945275   -0.7701850205
 H    1.8706870870   -0.2576613951   -1.6331539494
 H    2.4307700491    0.4212303811    0.6867388710
 H    1.2908012876    0.0499787172    2.0029069148
 H    2.2471627286   -1.2470605005    1.2674323588