20

 C    0.0371641529    1.5409674726    0.0298526883
 C   -0.0199476443    0.0456148451   -0.0413907774
 C    1.0353001714   -0.8656878569   -0.6603639279
 C    0.3968460473   -1.9659879104   -1.4821028253
 C   -0.8643418908   -2.1297337139   -0.6656733166
 N   -0.6161374657   -1.8901073815    0.7974721335
 C    0.6290940648   -1.0341048046    0.7833232331
 C   -1.2892244465   -0.8461596983   -0.0476528272
 C   -2.6918141896   -0.3873015776    0.2033619471
 H    1.0617081635    1.8819474369    0.2110607190
 H   -0.3033693534    2.0037516910   -0.9044266760
 H   -0.5874877992    1.9311812360    0.8412285158
 H    2.0088844720   -0.4518633250   -0.8940681900
 H    0.1795786051   -1.6641731780   -2.5128265590
 H    1.0017398310   -2.8790918310   -1.5052909540
 H   -1.5852664693   -2.9127003950   -0.8757345058
 H    1.2835986708   -1.0105678653    1.6449642605
 H   -2.7457865643    0.2639193023    1.0827441260
 H   -3.0872854825    0.1691338283   -0.6544381518
 H   -3.3444366033   -1.2465055349    0.3837133776