15

 O    0.0204770137    0.0016105492    0.0311403338
 C   -0.0199906899    1.1980515977    0.0055142022
 C   -1.2535783635    2.1207206136    0.0037253800
 C   -0.5704876915    3.5000213847    0.0838475354
 C    0.0562152980    3.7465396837    1.4701970326
 C    1.2422869799    2.7648863612    1.4186692796
 O    2.0290461846    2.4948057919    2.2799612595
 C    1.1645598267    2.1936958451   -0.0175454003
 O    0.6032268238    3.2957459628   -0.7379963663
 H   -1.7980530560    2.0074775685   -0.9381658634
 H   -1.9296460969    1.8742367666    0.8260037166
 H   -1.1481676685    4.3294007657   -0.3197006762
 H    0.4286061451    4.7715110896    1.5549974732
 H   -0.5874832685    3.5401199179    2.3286883265
 H    2.0943841831    1.8309064419   -0.4458236532