17

 O    0.3314116932    1.2704882865   -0.3935822920
 C    0.0900693481   -0.0728760431   -0.0518037031
 C    0.2582000133   -0.4656264500    1.4462717867
 C   -1.2788943056   -0.7042498731    1.5430098475
 C   -1.4149194175   -0.5276400776    0.0116857246
 C   -2.4523827999    0.5769193169   -0.1633833553
 O   -2.5214222971    1.2622142839    1.1043537485
 C   -2.0010981663    0.5062556175    2.1190094452
 O   -2.0911908039    0.8369123393    3.2649874012
 H   -0.0876614778    1.8426686798    0.2599956748
 H    0.6961570658   -0.6607688067   -0.7441869695
 H    0.8398669685   -1.3786713236    1.5900882205
 H    0.6665094458    0.3109028499    2.0988235694
 H   -1.6127646561   -1.6193287089    2.0317404094
 H   -1.6377563867   -1.4150774828   -0.5808837633
 H   -2.1659039845    1.3086079447   -0.9220917161
 H   -3.4470076392    0.1829866373   -0.3970164983