18

 C   -0.1327825327    1.4425493427   -0.1209671947
 N   -0.1752992466    0.0126711137   -0.3599664583
 C    0.9346215891   -0.7121577776   -0.6626453829
 O    2.0521397936   -0.2181748078   -0.7413363482
 C    0.7239900413   -2.1937896282   -0.8998910619
 C   -0.5743085594   -2.8488366904   -0.4794416021
 C    1.4911618427   -2.7274948459   -2.0684177546
 N    1.9398259238   -3.0031478908   -0.7046205950
 H   -0.5142686452    1.6882836850    0.8760597812
 H    0.9095247964    1.7539007507   -0.1925038066
 H   -0.7215736228    1.9896546052   -0.8658395697
 H   -1.0634380334   -0.4563373728   -0.3178294711
 H   -1.4256701026   -2.4886675612   -1.0698681758
 H   -0.5009978601   -3.9279928611   -0.6296976823
 H   -0.7871117700   -2.6770647549    0.5815733305
 H    1.0899460928   -3.5804350917   -2.6099551083
 H    2.0549281498   -2.0127908602   -2.6600154850
 H    2.6924913834   -2.3483360947   -0.4883605053