17

 C    0.0441138221    1.6059276855   -0.1925809050
 C    0.0411276884    0.1286165755    0.0737251207
 O    0.5432556344   -0.5805263427   -1.1211396164
 C    0.5157906951   -1.9917609766   -0.8020727395
 C   -0.0286834359   -1.8248966024    0.5988824285
 O   -0.4532018097   -2.4553347959    1.8242761388
 C   -0.6255241341   -0.9661201295    2.0163620562
 C    0.6762216923   -0.6050760897    1.2655105923
 C   -1.1333625703   -0.7256124052    0.5765922689
 H    1.0563139396    1.9542650301   -0.4186509594
 H   -0.5954403185    1.8442052596   -1.0476770343
 H   -0.3250716752    2.1489794843    0.6818470016
 H   -0.1487218815   -2.5262790408   -1.4888877194
 H    1.5245238440   -2.4148215871   -0.8518611845
 H   -1.0144856858   -0.6583936844    2.9842067120
 H    1.6966112981   -0.5999765638    1.6440598269
 H   -2.1398966329   -0.8555208071    0.1834849726