20

 C    0.0447855781    1.5876535133   -0.2562094552
 C   -0.0135364770    0.0696751341   -0.0001947590
 C   -1.4100571164   -0.4789365515    0.0511811931
 C   -2.1506799636   -0.8425875945    1.1643188011
 C   -1.8071547634   -0.8328600489    2.6182416266
 N   -3.3821643369   -1.2537450694    0.7260466712
 C   -3.4625292303   -1.1731247017   -0.6510296016
 C   -2.2530784593   -0.6932059206   -1.0842884765
 O   -1.9402540659   -0.4562305212   -2.3961495418
 H    1.0791961148    1.9424183777   -0.3174323632
 H   -0.4604824948    1.8474341093   -1.1922908777
 H   -0.4589980374    2.1338791258    0.5469854508
 H    0.5630505991   -0.4459110315   -0.7840318579
 H    0.5121079807   -0.1607318419    0.9330797612
 H   -2.4023704012   -0.1030364691    3.1823532190
 H   -1.9670669217   -1.8132928179    3.0844989296
 H   -0.7560519615   -0.5723126070    2.7607001463
 H   -4.1212577951   -1.5795214713    1.3226527752
 H   -4.3474748633   -1.4578266344   -1.1934759212
 H   -0.9923193749   -0.3067315894   -2.4571922700