13

 N   -0.0531344912    1.3648814333    0.0101469235
 C    1.2686993342    1.8278945786   -0.0001221570
 C    2.1426189125    0.7665431501   -0.0143195428
 C    1.3342934249   -0.4137169658   -0.0128828957
 C    0.0152869594    0.0045999204    0.0022522924
 N   -0.7664785879   -1.1193992832    0.0036676939
 C    0.1411640952   -2.1773274150   -0.0109061011
 N    1.3935449675   -1.7961167308   -0.0210956945
 H   -0.8702641427    1.9471565724    0.0219791768
 H    1.4580103631    2.8891086689    0.0037617138
 H    3.2184536690    0.8412388537   -0.0244130982
 H   -1.7682552951   -1.1951725869    0.0128911876
 H   -0.2102495189   -3.1985753656   -0.0130106187