16

 O    0.4881279377    0.8609507982   -1.4567575360
 C    0.2108045437    1.4797844628   -0.4446730268
 N    1.0807812361    1.6600596706    0.5902648635
 C    2.4298129208    1.1248744742    0.5525512846
 C    3.3945375663    1.9982559933   -0.2838282314
 C    4.7517931533    1.4715656043   -0.2696436073
 C    5.8600375189    1.0082675398   -0.2284737837
 C   -1.0937756477    2.0933064525   -0.2263883039
 C   -2.1780633945    2.5910489275   -0.0781054695
 H    0.7858584933    2.2219278057    1.3719965576
 H    2.7951888321    1.0394208329    1.5786354749
 H    2.3906709804    0.1231493605    0.1184289700
 H    3.0128594369    2.0404641185   -1.3096751803
 H    3.3846225203    3.0242153867    0.1046320454
 H    6.8438049656    0.6093150562   -0.2093190690
 H   -3.1410153931    3.0253263864    0.0393961719