15

 O   -0.0183530145   -0.0048650264    0.5872701568
 C   -0.0269673371    1.1531847218    0.2319407741
 N    1.0448955023    1.8210442362   -0.2818440889
 C    2.3600994269    1.2251899065   -0.3425170213
 C    3.0242584644    1.1492095876   -1.6967308403
 C    4.2650625649    1.6320087959   -1.5862517980
 N    4.5326193310    2.0809398102   -0.2810235194
 C    3.4050289204    1.9923672212    0.5159370276
 O    3.2696965533    2.4374977252    1.6283550871
 H   -0.9282529568    1.7941189135    0.2719355477
 H    0.9473360936    2.8035492762   -0.4843926911
 H    2.2394286227    0.2241675203    0.0937306675
 H    2.5804637823    0.7048257116   -2.5737926390
 H    5.0444256622    1.6918605314   -2.3326207947
 H    5.3338925744    2.6276605887   -0.0105124181