18

 O   -0.2568717534    0.0289106207   -0.0493493923
 C   -0.0455257366    1.2126072607   -0.0951793658
 C    1.2951654024    1.9018722442    0.0191095493
 C    1.4818734948    2.6598138123    1.3559039126
 C    2.2193556926    1.6883653654    2.2503360647
 C    2.4084998566    0.4219450752    1.4070790612
 N    2.4958702942    1.0323144845    0.0463389032
 C    3.5557405649    2.0562478228    0.2733743457
 C    2.9849247374    2.7636180598    1.5095482511
 H   -0.8834889399    1.9380515491   -0.2265117966
 H    1.3626390032    2.5928742979   -0.8327020808
 H    0.7953562657    3.4090590398    1.7248862346
 H    2.1012045029    1.6852648525    3.3249017141
 H    3.3402541918   -0.1062037646    1.6284214851
 H    1.5765832081   -0.2788728917    1.4534199361
 H    4.5168123029    1.5664996797    0.4532361016
 H    3.6500644161    2.7075580691   -0.6006429007
 H    3.4631047864    3.5986668327    2.0030725471