17

 C   -0.1158503723    1.5127447336   -0.0543368179
 C    0.1020419729   -0.0039101084    0.0408150866
 C    0.7178590590   -0.5641001344   -1.2024955773
 C    0.0121757149   -0.9947183511   -2.4537302494
 C    0.9559605231   -1.9558069264   -1.7510956995
 C    2.3852484298   -1.4833617879   -1.9746189840
 O    2.0554052665   -0.1409625056   -1.5268601449
 H    0.8315382758    2.0244313232   -0.2464312053
 H   -0.8030306335    1.7610392852   -0.8694718158
 H   -0.5343135869    1.9073605327    0.8761875298
 H    0.7513861658   -0.2318166443    0.8949641120
 H   -0.8516752144   -0.5148956556    0.2183176287
 H   -1.0405820230   -1.2356203691   -2.3404059745
 H    0.2849592269   -0.5543798299   -3.4094268886
 H    0.6503448827   -2.9255192628   -1.3816574030
 H    3.1150450525   -1.9447649118   -1.2992902982
 H    2.7730161302   -1.4957037073   -3.0007325484