18

 O   -0.0298084091   -0.0390817582   -0.0511323809
 C    0.0509665030    1.1624520346   -0.0889559606
 C    1.3370717286    1.9391108119   -0.0945385279
 C    1.3725913961    2.9599356621   -1.2564098788
 C    1.0075204163    4.0867710428   -0.3416306019
 C    1.2735531994    3.1729584081    0.8861481717
 C    2.6919641435    3.5418597408    1.3261890488
 C    3.3810024006    3.8321647646   -0.0332019216
 N    2.2955503057    4.0729789403   -1.0137268114
 H   -0.8645746277    1.7994259966   -0.1235587903
 H    2.1771715698    1.2467899596    0.0123807909
 H    1.0911487316    2.7554548711   -2.2834905990
 H    0.3245046047    4.9205703394   -0.4453863102
 H    0.5289164257    3.1167164340    1.6799311377
 H    2.6755154951    4.4354175556    1.9596033710
 H    3.1795220299    2.7393145820    1.8870982076
 H    4.0117537870    4.7239441456    0.0047731811
 H    4.0042136597    3.0005805289   -0.3747138064