18

 C   -0.0449247476    1.5800251531   -0.0780036234
 C    0.0271929783    0.0546259234   -0.0677444355
 O    0.8215918451   -0.4380591903   -1.1413375126
 C    0.6967524099   -0.5002288247    1.2062165803
 N   -0.0200859453   -0.1718239107    2.4197194173
 C   -0.3220143797   -1.2858440543    3.1891276604
 O   -0.8222032777   -1.2769375378    4.2927815301
 C    0.1083670457   -2.4496036594    2.3580820622
 C    0.6988829088   -2.0098294075    1.2465523834
 H    0.9573497618    2.0141156394    0.0001129542
 H   -0.4980631438    1.9351612333   -1.0104070146
 H   -0.6620952782    1.9518406672    0.7452669603
 H   -0.9918010500   -0.3602019916   -0.1128937472
 H    0.4586870141   -0.0992227581   -1.9652353125
 H    1.7305134074   -0.1198278089    1.2227080519
 H   -0.0015731775    0.7405880349    2.8439063981
 H   -0.0517770388   -3.4699738556    2.6757926740
 H    1.1149440175   -2.5881374024    0.4339047334