15

 C    0.0166574986   -1.2071300496    0.0074454643
 C    0.0004662347   -0.0050281254    0.0271308021
 C   -0.0346143283    1.4306826251    0.0688500381
 C   -0.9187938083    2.1696339593    1.0653106969
 C   -0.7015152143    3.4642330734    0.8227159656
 C    0.3035885857    3.4771215041   -0.3087283731
 C    1.2957304335    2.2862077690   -0.0825083964
 O    1.3746086235    2.0132512231   -1.5166306519
 C   -0.0398026002    2.2880278208   -1.2689015730
 H    0.0385166400   -2.2684165388   -0.0182165001
 H   -1.5638029997    1.6953194816    1.7906740974
 H   -1.1317500309    4.3285579424    1.3083650200
 H    0.6851676868    4.4012008530   -0.7368601108
 H    2.2133591076    2.2278350462    0.5074297753
 H   -0.7338711287    2.2318502657   -2.1106793743