15

 O   -0.0128344613    0.0654725800    0.3280980238
 C   -0.0717674817    1.2269897085    0.0674119031
 C   -1.1509249128    2.2810463485   -0.1285044113
 C   -0.0179542858    3.1699868672   -0.7145297803
 C   -0.0286131405    4.0293132338    0.5383178183
 C    1.0085667116    3.0765464120    1.2011725241
 C   -0.1326973429    2.6678849962    2.1447932773
 N   -1.1467838512    3.1765671430    1.1437699153
 N    0.9940858236    2.2175008521   -0.0888782698
 H   -2.1506526548    2.0783569179   -0.5115634379
 H    0.1162613253    3.4575795528   -1.7546336087
 H   -0.0865767865    5.1104596932    0.6476947499
 H    2.0102871105    3.3226491804    1.5550481486
 H   -0.2413326738    1.6286061423    2.4640884437
 H   -0.1676218197    3.3267742223    3.0184535139