8

 N   -0.0299544928    1.3607382465    0.0102308187
 C    1.2824196837    1.7387270422   -0.0006093537
 N    2.0599683386    0.6880935414   -0.0143307277
 N    1.2429113890   -0.4281557880   -0.0123399748
 C    0.0064162276   -0.0045215628    0.0023226760
 H   -0.8419327908    1.9550995245    0.0215825599
 H    1.6045208591    2.7681726020    0.0019438861
 H   -0.8775034644   -0.6227210859    0.0076822381