19

 C    0.0197344356    1.4412070216   -0.0458780901
 C    1.3624931242    0.7752046582    0.0613211851
 C    0.0354481379   -0.0549141824    0.0767984699
 C    0.4561481855   -0.6794845313   -1.2533006155
 C    0.0803469450   -0.1892448600   -2.6832779246
 C    1.4114705483    0.6643896842   -2.6911355271
 C    1.7504370268    0.1154880957   -1.2673595027
 C    2.4172969154   -1.2712449625   -1.1705296571
 O    1.1253382733   -1.9497970059   -1.1586365579
 H   -0.2971455734    1.9609038625    0.8528614565
 H   -0.3003289347    1.9339764976   -0.9600418960
 H    2.0376919661    1.0086811344    0.8782278790
 H   -0.4534781636   -0.5727583096    0.8938028460
 H    0.0479955368   -1.0000515338   -3.4132883973
 H   -0.8422843316    0.3911540643   -2.7585241138
 H    2.1313915467    0.3996839237   -3.4699008407
 H    1.2495402515    1.7438627716   -2.7299282524
 H    3.0204503417   -1.5655900868   -2.0387553943
 H    2.9882656887   -1.4692735213   -0.2554250870