17

 O   -0.0112193159   -0.0379065140    0.0948160565
 C   -0.0278425353    1.1725233200    0.0216790653
 C   -1.2948372996    1.9527905698   -0.0036059161
 C   -1.2812196129    3.2932275730   -0.0543931764
 C    0.0391860393    4.0421539101   -0.1026949524
 C    1.0024552658    3.2129226764   -0.9896882352
 C    1.2575083463    2.0212604543   -0.0359675472
 C    1.4235980716    2.7640239210    1.2900879478
 C    0.7466365610    3.9093956984    1.2568743525
 H   -2.2128782180    1.3758988891    0.0468777305
 H   -2.2092907272    3.8592341476   -0.0441341542
 H   -0.1002882886    5.0742522888   -0.4310171728
 H    0.5570656661    2.9266190815   -1.9461661710
 H    1.9338292209    3.7565419769   -1.1724649215
 H    2.0939934238    1.3734314957   -0.3028626446
 H    1.9633742882    2.3502475782    2.1322454660
 H    0.6251180846    4.6210669833    2.0635747127