21

 C   -0.1477377081    1.5325253334   -0.1078369641
 C   -0.0100493041    0.0387847055   -0.0177379898
 C   -0.7768454524   -0.9520135736   -0.9171013028
 C   -1.0191710903   -1.8767295262    0.3164099743
 C   -0.1978187638   -0.9115506573    1.1835137956
 C    1.1758206079   -0.6315660250    0.6257547342
 C    2.1324952785   -1.5910092894   -0.0173964384
 C    2.5519305204   -2.8441837340    0.6289034523
 O    1.6725236773   -2.8569181082   -0.4967563452
 H    0.3415199429    1.9256545666   -1.0080922184
 H   -1.2011706760    1.8334827441   -0.1501790451
 H    0.3070655978    2.0282621551    0.7566071240
 H   -1.7036367408   -0.5226381815   -1.3062860833
 H   -0.2153365412   -1.3827070849   -1.7499277389
 H   -2.0708122655   -1.8783790475    0.6139218311
 H   -0.6641244915   -2.9039269587    0.2421392735
 H   -0.4285265089   -0.6580056501    2.2132467350
 H    1.7237479120    0.0710316018    1.2557996596
 H    2.8552104047   -1.1185285313   -0.6873280240
 H    3.5477544360   -3.2457033244    0.4471037810
 H    2.0960103552   -3.1286035043    1.5759500997