20

 O    0.0002960313    1.4405126031   -0.0155753626
 C   -0.0111506930    0.0375400999    0.0290062130
 C    0.2516142847   -0.7072582629    1.3781480959
 C   -0.7586581586   -1.7605144642    0.8490185496
 C   -1.4124140610   -0.5976220560    0.0347513053
 N    0.0138521582   -2.7437163962    0.0736956309
 C   -0.3333676820   -2.9688763675   -1.3293591618
 C    0.8463114590   -2.1290762572   -0.9736555324
 C    0.8386789890   -0.6000701066   -1.0843866656
 H    0.9159062429    1.7378150000   -0.0595640184
 H    1.2613753247   -1.0610592506    1.6023774370
 H   -0.1492545338   -0.1318367883    2.2150524719
 H   -1.3936307549   -2.2906070594    1.5601356552
 H   -2.0855803976   -0.0267512985    0.6791240628
 H   -1.9095501757   -0.7891217230   -0.9181898712
 H   -0.1834155958   -3.9871035746   -1.6790597933
 H   -1.2081042831   -2.4796128597   -1.7470330694
 H    1.8271300950   -2.5882897636   -1.0744956521
 H    0.4729503476   -0.2592856322   -2.0604106953
 H    1.8714493831   -0.2394503424   -0.9872414294