14

 O    0.0676408483   -0.0183506768    0.0775453089
 C   -0.0140928959    1.1622989640   -0.0285227514
 O    1.1107781558    1.9535931054    0.1140029266
 C    0.9779006349    3.3081497354    0.0796760312
 N   -0.1274582098    3.9298078035    0.1288401272
 C    0.1399188538    5.3654317333    0.0701398209
 C    1.6682543089    5.5326459390   -0.0135076769
 O    2.2786014428    6.5629058982   -0.0735252783
 C    2.2446896415    4.1084447143   -0.0054166719
 H   -0.9141740641    1.7489788725   -0.2481106355
 H   -0.3471957466    5.8227910701   -0.7994315983
 H   -0.2575721750    5.8746517399    0.9560910741
 H    2.9108928380    3.9440295312    0.8480515756
 H    2.8242193072    3.8985910001   -0.9105502622