20

 C   -0.1019331687    1.5475613432   -0.2036253963
 C    0.0217236236    0.0634220517    0.0644186135
 O    0.8926454218   -0.6517706356   -0.8565341190
 C    1.3361955114   -1.5232625822    0.2191885806
 C    2.8471827981   -1.6390173534    0.4243177461
 N    3.2863110776   -0.5554400381    1.3275942174
 C    3.0230942007    0.7794816681    0.7827990105
 C    2.0643580528    0.1808349162    1.7554650884
 C    0.8037898922   -0.5209492781    1.2689671777
 H    0.8421087799    2.0771654009   -0.0696163929
 H   -0.4493010491    1.7096991439   -1.2292877698
 H   -0.8436732687    1.9838102622    0.4743216429
 H   -0.9810721765   -0.3904805658    0.0273472167
 H    0.8342977447   -2.4967626332    0.1565195159
 H    3.0728173379   -2.5941539596    0.9119585515
 H    3.3937525254   -1.6050640124   -0.5234641475
 H    3.7083231392    1.5522007548    1.1229261775
 H    2.7315918090    0.8484332854   -0.2595363375
 H    2.0717492765    0.5390436924    2.7806152084
 H    0.2060919022   -0.8950797005    2.1017153559