13

 N   -0.0408896050    1.5309516233    0.1999388687
 C    0.0287681011    0.3156233732   -0.1280001830
 C   -1.1724237462   -0.5841286934   -0.1733732997
 C   -2.4860620158    0.1647303936   -0.0064115305
 O   -3.3756257838   -0.2192457849    0.7041381579
 O    1.1719306619   -0.3710001725   -0.5215491498
 C    2.3523375524   -0.1345949379    0.1311392173
 O    3.3838550603   -0.5753138265   -0.2611984085
 H    0.8477542606    2.0261736872    0.1372376206
 H   -1.1804053353   -1.0975954633   -1.1453633305
 H   -1.0972534069   -1.3642913852    0.5911143929
 H   -2.5752563355    1.0860779784   -0.6159196845
 H    2.2147323924    0.4650477379    1.0463192091