17

 O    0.0324319258    1.3700910012   -0.0162825816
 C   -0.0259838129   -0.0056878258    0.0423894878
 C   -1.3479124224   -0.7423553618    0.0515895712
 C   -2.6131797703    0.0482598395   -0.2852659689
 C   -2.5974055721    0.1492760528   -1.8250196922
 N   -1.1528249110    0.1780779753   -2.1421758388
 C   -0.4932227099   -0.7384005764   -1.2174236359
 C    0.1646840232   -1.8982279208   -1.7348575914
 N    0.7078295559   -2.8264913488   -2.1646675236
 H   -0.2860458208    1.5990002966   -0.9093309699
 H    0.7897476426   -0.4458148643    0.6074679126
 H   -1.4186529666   -1.6511841249    0.6365188576
 H   -3.5101064732   -0.4558235795    0.0780521589
 H   -2.5686680138    1.0424467874    0.1702129303
 H   -3.0995266497   -0.7236645703   -2.2681839638
 H   -3.0830250842    1.0538926930   -2.2019720357
 H   -0.9406153506   -0.0345377434   -3.1087649565