17

 O    0.1390423528    1.1635397410   -0.4313111356
 C   -0.1587321659   -0.1792939176   -0.0645938974
 C   -1.6448709299   -0.2269919714    0.2570820890
 N   -2.4281396864    0.2159722325   -0.8822353758
 C   -3.4783812485   -0.4711775491   -1.3824156448
 O   -3.8989933598   -1.5213347152   -0.9144180817
 C   -4.1650040846    0.1348395778   -2.6126555817
 O   -5.2095159104   -0.6937947148   -3.0267057017
 H    1.0448107247    1.2024427725   -0.7508863478
 H    0.0647317285   -0.8747184840   -0.8868692848
 H    0.4170705794   -0.4935030806    0.8185867524
 H   -1.9604366810   -1.2433666696    0.4996056493
 H   -1.8437775480    0.4120080065    1.1271109136
 H   -2.1151135395    1.0585831511   -1.3395554466
 H   -4.5313534217    1.1416431809   -2.3535681924
 H   -3.4178277293    0.2625769142   -3.4125952267
 H   -5.2046689905   -1.4220158441   -2.3810911674