20

 C    0.1263368913    1.5968271181    0.9288636276
 C    0.1040820029    0.1244298812    0.5517547519
 C    0.7479848137   -0.4054408713   -0.7810345275
 C    2.1835682333    0.1043153336   -0.6220916518
 O    2.4156955205   -0.2229044866    0.7713071772
 C    1.1671365194   -0.8426977222    1.1375007471
 C    0.8974918150   -1.7941563955   -0.0615259214
 C   -0.2998457550   -2.7349110100   -0.0323177736
 H    1.1474455299    1.9772091932    1.0073588943
 H   -0.4143627173    2.2035680578    0.1937147350
 H   -0.3574818913    1.7509247435    1.8995885976
 H   -0.9024329452   -0.2802120362    0.6644661549
 H    0.2693716649   -0.2898659512   -1.7541420071
 H    2.9032836800   -0.4245049045   -1.2579330133
 H    2.2982143700    1.1824671287   -0.7803049904
 H    1.2101450728   -1.1577575389    2.1801725646
 H    1.7919203812   -2.3542111568   -0.3551105681
 H   -1.2356500617   -2.2448359217    0.2481297770
 H   -0.4505390919   -3.1881665447   -1.0183373486
 H   -0.1295234826   -3.5507004367    0.6789394246