15

 C    0.1242824368    1.4677011357    0.2413454052
 O    0.9679514852    2.1810150862   -0.7056745651
 C    1.9848741580    1.4297299287   -1.1225609877
 C    2.0665680690    0.0656977785   -1.1619219572
 C    3.3295970240   -0.2020009144   -1.7979925929
 C    3.8803507103    1.0038760846   -2.0832041931
 O    3.0457411220    2.0305307217   -1.6696561836
 C    0.8978025101   -0.6740107280   -0.7292021562
 C   -0.0735956896    0.0090166689   -0.1052418778
 H    0.5836336363    1.5780366413    1.2386033444
 H   -0.8183903121    2.0183127802    0.2427814890
 H    3.7670568679   -1.1653934716   -2.0105238172
 H    4.8041257005    1.3229011679   -2.5323504301
 H    0.7946211037   -1.7285964722   -0.9615809553
 H   -1.0032345722   -0.4546090676    0.2036700476