17

 C   -0.5800265667    1.4528903388    0.3516829200
 N   -0.1185009540    0.0895866206    0.1524521326
 C    0.3040177892   -0.3466333455   -1.1744850043
 C    1.6197799144    0.2387320432   -1.6046693192
 C    1.6005282482   -0.9057925387   -0.6148896577
 C    1.1364814894   -0.4303817071    0.7760712705
 C    2.0712379976    0.5212646663    1.4889337580
 O    2.5651549769    0.2841979333    2.5631875267
 H    0.0792557611    2.2349827264   -0.0602765546
 H   -1.5605782976    1.5633667998   -0.1238746876
 H   -0.7069309589    1.6410512165    1.4227843319
 H   -0.4102925522   -0.7807302474   -1.8658494331
 H    1.9481801848   -0.0461628251   -2.5996327473
 H    1.9094806209    1.2442067620   -1.3171107939
 H    2.0788638286   -1.8562039455   -0.8062952446
 H    0.9202475816   -1.2551088747    1.4633165512
 H    2.3092291766    1.4634825972    0.9494216515