18

 O    0.0131579295    1.4432392882    0.0555784581
 C    0.0387826903    0.0234563088    0.0250928748
 C   -1.3941612418   -0.4471760999    0.2376668364
 C   -1.5426807453   -1.9656747702    0.1504132471
 N   -1.3069859827   -2.5128884431   -1.1891881694
 C   -0.0596295033   -2.7354108631   -1.7298715108
 O    0.1905356409   -3.6358497478   -2.4890861386
 O    0.9097186943   -1.8551850194   -1.3416356182
 C    0.6148438031   -0.4535781916   -1.3124842995
 H    0.9206460199    1.7648335644    0.0418988093
 H    0.6756065282   -0.3806188507    0.8290693133
 H   -1.7319240743   -0.1101093124    1.2232638592
 H   -2.0362904825    0.0312353611   -0.5107529107
 H   -0.8850047563   -2.4481222312    0.8870872964
 H   -2.5677514758   -2.2360929509    0.4158104716
 H   -1.9482377990   -3.2361708392   -1.4791920304
 H   -0.0609382340   -0.1844303141   -2.1318552388
 H    1.5771325788    0.0384922312   -1.4885180798