16

 O   -0.0210146396   -0.0056569799   -0.0610727386
 C   -0.0040828522    1.1987381692    0.0021442735
 C   -1.2517000200    2.0523169648   -0.0604067743
 N   -1.5445905993    2.8746833418    1.1470365101
 C   -1.0185424606    3.5231213118   -0.0610414112
 C    0.4660702618    3.8856209792   -0.0387406063
 C    1.2271692533    3.1551117868    1.0872601757
 C    1.2834847267    2.0337129551    0.0280309479
 O    1.1358580651    3.0359250410   -1.0252956996
 H   -2.0872621209    1.6143729625   -0.5967060213
 H   -2.5513674829    3.0101763326    1.2062639008
 H   -1.6778738985    4.1546092542   -0.6490552900
 H    0.6532955094    4.9459724506   -0.2204352465
 H    2.2151256331    3.5896110162    1.2442813469
 H    0.7141172110    2.9735259679    2.0292710697
 H    2.1673338035    1.4045101862   -0.0872334868