16

 O   -0.5936268220    0.5421260162    0.6068458424
 C    0.2156342988    0.8453037831   -0.2283665146
 C    1.2426329102    1.9552702160   -0.0703106286
 C    1.1736591140    2.9423693872   -1.2034580459
 C    1.8810715357    2.7880112665   -2.4845411992
 N    2.3703649557    3.8470112593   -1.5438878847
 C    1.4217127271    4.9446408306   -1.6913672337
 O    1.6384169640    6.0854334196   -1.9451407917
 C    0.1914158231    4.1172354284   -1.2835504076
 H    0.2666750772    0.3110087286   -1.2049464965
 H    1.0886698110    2.4409423289    0.8973624414
 H    2.2381294286    1.4909737965   -0.0696498603
 H    2.5977454869    1.9797410467   -2.5901303581
 H    1.4105346385    3.0971797626   -3.4147240339
 H   -0.6345825108    4.0503853041   -1.9958141501
 H   -0.1966644382    4.4369626260   -0.3126831889