13

 C    0.0086783204    1.3785234157   -0.0704523749
 O   -0.1227596327   -0.0416967100    0.0561320514
 C    0.5877034764   -0.6186100757    1.0130256994
 N    0.5999966144   -1.8874364083    1.1111620007
 C    1.2511202740   -2.4383188846    2.1828180314
 N    1.3516176381   -1.9474940005    3.3948875737
 O    2.0456169082   -2.8836830744    4.0843513313
 N    2.3416742070   -3.9473424640    3.2269031808
 N    1.8620233721   -3.6841294162    2.0999212737
 H    0.9784600955    1.6382981066   -0.5064584663
 H   -0.7893265777    1.6969640372   -0.7403008726
 H   -0.1085589141    1.8729137066    0.8992642389
 H    1.1359420085    0.0574731978    1.6812970026