16

 C   -0.0305576497    1.4256315523    0.1012302418
 N   -0.0132099548   -0.0173579206    0.0120989994
 C   -0.0347627631   -0.7731709535   -1.1347365368
 N   -0.0098848616   -2.0558016412   -0.8834466744
 C    0.0301459237   -2.1711584223    0.4882453068
 C    0.0286710795   -0.9203444547    1.0569635049
 N    0.0594699350   -0.4729505197    2.3795646161
 C    0.1030095177   -1.2886795040    3.4799828463
 O    0.1198550836   -2.4969349475    3.4506737543
 H    0.8709462348    1.8080810226    0.5940028150
 H   -0.0643791545    1.8379485077   -0.9084050311
 H   -0.9133498770    1.7835898961    0.6437677549
 H   -0.0685743749   -0.3078978009   -2.1090071853
 H    0.0576005365   -3.1183062098    0.9965043565
 H    0.0501307921    0.5208310342    2.5476890442
 H    0.1210614128   -0.6953040387    4.4141386874