14

 C    0.0152581451    1.5458588655   -0.0507908600
 N    1.3894676748    2.0253618051    0.1236634659
 C    2.3517959136    1.2267156345    0.2676995446
 O    2.3611349696   -0.1512237295    0.2955013048
 C    1.1262089733   -0.7029383723    0.1410616953
 N    0.9439508177   -2.0091005663    0.1418865620
 N   -0.3950109224   -2.1147379646   -0.0349483973
 C   -1.0264498391   -0.9175847306   -0.1425569087
 C   -0.0491016112    0.0489987547   -0.0305462156
 H   -0.5961070252    1.9988264844    0.7411657005
 H   -0.3644258641    1.9654257963   -0.9920372770
 H    3.3690146967    1.5856828265    0.3967539900
 H   -0.8026653512   -3.0323495298   -0.0717858008
 H   -2.0936511576   -0.8527288439   -0.2864480536