20

 C   -0.8873295852    1.2914439707    0.1093558065
 C    0.0519329379    0.0856599695   -0.0433832856
 N    0.8514213764    0.2897700442   -1.2431475982
 C    2.1037099036    0.2411999443   -1.3815803169
 O    3.1416036791   -0.0082338021   -0.5391290751
 C    2.9094929785   -0.2830268364    0.8409615141
 C    1.8328546677   -1.3667616319    1.0919548335
 C    0.7978611665   -0.2203922475    1.2608279258
 C    1.9848929374    0.7481092899    1.5320154832
 H   -0.3240832542    2.1981094138    0.3535764206
 H   -1.4202108177    1.4704623678   -0.8271136788
 H   -1.6180370167    1.1170873660    0.9055454722
 H   -0.5782974072   -0.7909991646   -0.2606000691
 H    2.5290533477    0.4268928382   -2.3685608733
 H    3.9059138560   -0.4411523731    1.2558887598
 H    1.6686120331   -2.0958226188    0.2943411957
 H    2.0255201912   -1.8967970837    2.0284465603
 H    0.0721493499   -0.3386505029    2.0705090264
 H    2.2180293965    0.8324441152    2.5965809090
 H    1.9526456293    1.7487501515    1.0947944899