23

 C    0.0424763059    1.5534498445    0.0540553813
 C    0.0143576914    0.0247481146   -0.0072016597
 C    0.6574449643   -0.5228448264   -1.2920046888
 C    0.7128528980   -2.0587540843   -1.2615559219
 C    1.3419700467   -2.5297448988    0.0332155232
 C    1.8669655087   -3.9167392310    0.1982078509
 C    2.8355036371   -2.7478154796    0.1345269549
 O    0.7014097436   -2.0147054582    1.1731657263
 C    0.7190259643   -0.5935023524    1.2071713281
 H    1.0721337699    1.9301083370    0.0436982191
 H   -0.4778707438    1.9908973171   -0.8042010132
 H   -0.4403336164    1.9276904663    0.9633564060
 H   -1.0314093764   -0.3126123265    0.0220043321
 H    0.1073111069   -0.1740807573   -2.1735421431
 H    1.6780385286   -0.1240003365   -1.3776248139
 H   -0.3044400535   -2.4664121455   -1.3276557402
 H    1.2741513536   -2.4467815300   -2.1181016706
 H    1.7126573491   -4.3807819817    1.1655729564
 H    1.8118661751   -4.5928647071   -0.6483439943
 H    3.4456080755   -2.6281636195   -0.7546888511
 H    3.3160178079   -2.4554039951    1.0613233725
 H    1.7598571325   -0.2292917001    1.2549797670
 H    0.2194338611   -0.3088865095    2.1385782089