18

 C   -0.0202959904    1.5506224443   -0.0571768098
 C    0.0286660979    0.0360686236    0.0390073943
 O    0.6058274825   -0.4548735144   -1.1882161306
 C    1.0124134556   -1.7471739401   -1.1804088165
 N    1.1096489493   -2.5516175012   -0.2096715957
 C    0.7893070135   -2.0693524466    1.1296430148
 C    0.7980803114   -0.5346848330    1.2512102460
 C    2.2225003585   -0.0048416385    1.3199407018
 O    2.5363601667    1.0047067857    1.8976864177
 H    0.9822178855    1.9810397814   -0.1031796535
 H   -0.5709904207    1.8461597634   -0.9539266657
 H   -0.5287214379    1.9646365209    0.8180848874
 H   -0.9944307378   -0.3606866730    0.0930153301
 H    1.2864737457   -2.0553149633   -2.1878270377
 H   -0.1908169270   -2.4634368662    1.4252516581
 H    1.5123582287   -2.5120834109    1.8252531929
 H    0.2881387887   -0.1985958569    2.1600317941
 H    2.9839800097   -0.6247985952    0.7959852225