16

 C   -0.1659993562    1.5724949795    0.0285150363
 C    0.0547639762    0.0888447006    0.0947632209
 C   -1.1197969601   -0.9121658456    0.1754267978
 N   -0.3502712643   -1.7619087763    1.1314809755
 C    0.7416960002   -0.7498065211    1.2092443422
 C    1.7898647257   -1.0251622195    0.1497136505
 N    2.8952412035   -1.6120029131    0.1157943525
 O    1.0885726326   -0.3622971781   -0.8492318047
 H    0.7777618918    2.1109709340    0.1525360087
 H   -0.5923018102    1.8518068444   -0.9413155111
 H   -0.8595081028    1.8947260924    0.8109265270
 H   -2.0241753360   -0.4604283041    0.6005529031
 H   -1.3753577639   -1.4150345806   -0.7621518798
 H   -0.8215148083   -1.8917264344    2.0179371058
 H    1.0535932974   -0.4035902488    2.1939923776
 H    3.2981422944   -1.5946013795   -0.8232169922