18

 C   -0.0124592868    1.5235671705    0.0015440219
 O    1.1661619238    0.7026027112    0.0261934640
 C   -0.1046229750    0.0683331341    0.0084216616
 C   -0.5538085025   -0.9050623379    1.1126033441
 C   -1.0044071631   -1.9049696171    0.0029022553
 C   -2.4359314116   -1.7706081123   -0.5698403750
 N   -2.8109493639   -0.3381502550   -0.5063300703
 C   -1.9686256915   -0.8291148470   -1.6261000688
 C   -0.5135609782   -0.9104383144   -1.1049932561
 H   -0.2137278269    2.0799285130    0.9161547689
 H   -0.1794135568    2.0751930073   -0.9230219129
 H    0.2909082207   -1.2729059645    1.7011622484
 H   -1.3389418687   -0.5390334016    1.7759532801
 H   -0.6209147487   -2.9232247609    0.0456308754
 H   -3.2025040139   -2.5356301828   -0.5990644065
 H   -3.7637224882   -0.2626794953   -0.8602754710
 H   -2.2929986021   -0.7010185460   -2.6517199567
 H    0.2487345634   -1.1884990812   -1.8320833025