19

 C    0.0154474618    1.5578786507   -0.0059527747
 C    0.0368833681    0.0568579022    0.0658333964
 C   -1.2526719236   -0.8021033123    0.2324593040
 C   -0.3455455080   -1.8651860625    0.8528855007
 C    0.9804193511   -1.8541054658    0.0736056027
 C    0.7178085449   -0.8569248260    1.1875585953
 C    0.8453057187   -0.7658129418   -0.9564292069
 C    0.9124440096   -0.7205507015   -2.4144497245
 O    1.9839501534   -0.2094240596   -1.5893065192
 H    1.0265312447    1.9538773587   -0.1405660055
 H   -0.5914760400    1.8968186548   -0.8541865256
 H   -0.4131782264    1.9939587729    0.9021055768
 H   -1.9295133121   -0.3737336357    0.9780187256
 H   -1.8123033593   -1.0443493461   -0.6791906850
 H   -0.6339254920   -2.7386624098    1.4240625852
 H    1.6571305637   -2.6980080712    0.0753778651
 H    1.2691461359   -0.6372576265    2.0897323002
 H    1.1545865639   -1.6197147291   -2.9797811374
 H    0.3566733855    0.0358325386   -2.9680859733