20

 C   -0.1240717892    1.5096714740   -0.0417072520
 C    0.0835938061    0.0368227518    0.0366233913
 C    0.6794853335   -0.9710210102   -0.8718158655
 C    1.3571008686   -1.7504051752    0.2603310683
 C    1.0033815375   -3.2414655835    0.3082270921
 C   -0.5367181689   -3.2362109903    0.5586872556
 C   -0.8750153094   -1.7538423685    0.7192012338
 C    0.3714282963   -0.9794203660    1.1990988680
 N   -0.8090671154   -0.9885643287   -0.5835212510
 H    0.7860623186    2.0549362520    0.2324494973
 H   -0.4002026602    1.7949377010   -1.0617035696
 H   -0.9273387936    1.8367358469    0.6283911085
 H    0.9627351642   -0.8920224785   -1.9145711880
 H    2.4122085367   -1.5002324259    0.3834053080
 H    1.2782139354   -3.7552796041   -0.6180349539
 H    1.5351752733   -3.7431326336    1.1239652204
 H   -1.1019970271   -3.6661415004   -0.2737140079
 H   -0.8011032181   -3.8002570198    1.4589345955
 H   -1.8214235262   -1.5348153212    1.2163833594
 H    0.6049484882   -0.7753939998    2.2426271596