27

 C   -0.0442540622    1.5719238132   -0.0257506754
 C    0.0344785664    0.0403407360    0.0373712107
 C    0.9007064842   -0.4049370143    1.2242933361
 C   -1.3786913838   -0.5704822763    0.0756294355
 C   -1.4362663801   -2.0975711919   -0.0488317511
 C   -2.8685461775   -2.6418186436   -0.1072852182
 C   -2.9294800365   -4.1674191857   -0.2256842038
 C   -4.3526892701   -4.7054314696   -0.2858095378
 O   -4.2849985878   -6.1201014612   -0.3942825842
 H    0.9531995875    2.0196036069   -0.0892022285
 H   -0.6192857100    1.9073471037   -0.8954147208
 H   -0.5316676669    1.9758533657    0.8700109805
 H    0.5219632240   -0.3087440701   -0.8850962622
 H    0.4445579809   -0.1016414094    2.1748510528
 H    1.0371594733   -1.4897452413    1.2511795206
 H    1.8952026620    0.0511326226    1.1753562190
 H   -1.8750144053   -0.2619125940    1.0077024133
 H   -1.9703290697   -0.1302542973   -0.7390138507
 H   -0.8943792998   -2.4095487530   -0.9527188222
 H   -0.9141504030   -2.5655725231    0.7948372798
 H   -3.4136697646   -2.3212831768    0.7917078543
 H   -3.3945270264   -2.1856742097   -0.9576777067
 H   -2.3960830124   -4.4981989730   -1.1255447570
 H   -2.4190064089   -4.6333415637    0.6263499045
 H   -4.9035373410   -4.4017053265    0.6199960397
 H   -4.8804945852   -4.2649447972   -1.1480177002
 H   -5.1828499670   -6.4616378506   -0.4344895281