20

 C    0.0388218143    1.5301377611    0.0230584556
 C   -0.0097705363   -0.0024675879   -0.0042136610
 C   -1.4656381707   -0.4992690274   -0.0103740345
 C    0.7918114145   -0.5886669175   -1.2076778258
 C    1.3742307088   -1.9427244656   -0.7339697331
 C    1.5208138784   -1.7618841591    0.7630473440
 O    2.1386839833   -0.5168394394    1.1295476506
 C    0.7097781109   -0.6182119093    1.1922290325
 H    1.0710068639    1.8790863624    0.1220113173
 H   -0.3783182243    1.9528569962   -0.8976283218
 H   -0.5387648258    1.9320808643    0.8632726486
 H   -2.0100071873   -0.0855964705   -0.8657366628
 H   -1.5202544947   -1.5913271066   -0.0735746198
 H   -1.9935406671   -0.1920037874    0.8995586735
 H    0.1668556617   -0.6911890060   -2.0992233196
 H    1.6106261149    0.0893810991   -1.4582224291
 H    0.6842328586   -2.7735855810   -0.9254763812
 H    2.3203796566   -2.1869897545   -1.2270464164
 H    1.7515814353   -2.6020679100    1.4135998298
 H    0.2807074250   -0.5351077206    2.1895448834