20

 C    0.0839350887    1.5453157160    0.3377440128
 C   -0.0213972666    0.0736418435   -0.1051486905
 C   -1.4126217732   -0.4688471870   -0.1047297556
 C   -2.2695985524   -0.7363077430   -1.1550261772
 O   -1.9075333925   -0.5311029043   -2.4552388672
 C   -2.8651811721   -0.8945219872   -3.4254529745
 C   -3.5008750959   -1.2234742644   -0.6299444668
 C   -3.3630114753   -1.2382148923    0.7416909940
 N   -2.1113179640   -0.7817282269    1.0453855698
 H    1.1235561642    1.8885533931    0.3143902287
 H   -0.5059833669    2.1898516949   -0.3204426564
 H   -0.2905877198    1.6836149726    1.3579170998
 H    0.3681328861   -0.0276557133   -1.1227488528
 H    0.6269849052   -0.5424016538    0.5342414562
 H   -2.4208523191   -0.6806607114   -4.3997422596
 H   -3.1141107884   -1.9635013599   -3.3700878866
 H   -3.7917310062   -0.3132923293   -3.3183606492
 H   -4.3761704050   -1.5276164835   -1.1801137601
 H   -4.0518390178   -1.5405155438    1.5135308478
 H   -1.7358275690   -0.7027876899    1.9738305573