20

 C   -0.0457075277    1.4970053568   -0.2994052387
 C    0.0076210585    0.0575641242    0.2260786124
 C   -1.3423991662   -0.6252156647    0.1634146391
 C   -1.8460391482   -1.3105494355   -1.1208694605
 C   -0.9928979660   -1.4196833858   -2.2649864922
 N   -0.2909600956   -1.5185236991   -3.1813033175
 C   -1.5430137890   -2.1020707449    0.1689896606
 C   -0.4022099695   -3.0904217924    0.2154122963
 O   -2.6749045514   -2.4917314602    0.8925119100
 H    0.9335491815    1.9777084061   -0.2205001111
 H   -0.3467092402    1.5188316530   -1.3512895386
 H   -0.7623376793    2.0996722393    0.2690388512
 H    0.7472872150   -0.5095589168   -0.3476459356
 H    0.3518257100    0.0539218330    1.2678671423
 H   -2.1394947787   -0.0917004362    0.6751482270
 H   -2.8992051473   -1.1872095682   -1.3473658889
 H    0.4464365886   -2.7737688078   -0.3928507757
 H   -0.0673739833   -3.2256406608    1.2482635754
 H   -0.7304620941   -4.0642730703   -0.1672702631
 H   -2.9518414972   -3.3588064697    0.5737293776