16

 O   -0.7826186075    1.2767423272   -0.4916640861
 C    0.0973113595    1.1577420155    0.3222587784
 C    1.4225599613    1.8763199767    0.2503028275
 C    1.6042402631    2.9145881944   -0.8924928780
 C    1.9184223317    4.0126399484    0.1476822617
 O    0.8924630907    5.0229707242    0.2825401291
 C    0.0971708612    4.5843264084    1.2887711949
 N    0.3864978895    3.5213498954    1.9215156284
 C    1.6246639364    3.0197442775    1.3113446297
 H   -0.0217573469    0.4929431464    1.2052583286
 H    2.2222059295    1.1300626060    0.3164311801
 H    2.4095953803    2.7010801900   -1.5972582734
 H    0.6804604016    3.0948182614   -1.4453017271
 H    2.8833870008    4.5143916337    0.0785249464
 H   -0.7612207943    5.2161812491    1.4876223169
 H    2.3832834331    2.8318692557    2.0735699429