18

 C   -0.4480149764    1.2019143172   -0.1470620810
 O   -0.0811188223   -0.1631572151   -0.0951794231
 C    0.7558762844   -0.5545635796   -1.1275487727
 C    1.3967630321   -1.9878318615   -1.0689703154
 C    1.2652864939   -2.1401522712   -2.5367295637
 N    0.7282823995   -3.1973772692   -1.7082803773
 C   -0.7352342400   -3.1939196655   -1.9936919621
 C   -1.0355335071   -1.7292318852   -2.2813213407
 C    0.1375070636   -1.0881591621   -2.4535203926
 H    0.4358221091    1.8571111398   -0.1284182537
 H   -1.0298270731    1.4297537410   -1.0513775214
 H   -1.0602057444    1.4053441697    0.7339724262
 H    1.5816489972    0.1652252683   -1.2503624127
 H    2.2438602103   -2.2368455789   -0.4389095215
 H    2.0139861647   -2.2895226762   -3.3046136579
 H   -0.9034369009   -3.9250528273   -2.7945356608
 H   -1.3213756466   -3.5096998270   -1.1230735095
 H   -1.8990004241   -1.2554247772   -1.8252940902