17

 C    0.1856427172    1.3176904705   -0.2827435642
 O    1.2973141209    1.9002247543    0.3888081888
 C    1.9304968155    0.8750566824    1.1155023880
 C    2.3994453131   -0.3287915548    0.3187008968
 C    3.1929749455   -1.4158533971    1.0480226863
 C    2.2234455758   -1.9696214220    2.0786371388
 C    1.0275903536   -1.3780597610    2.0268921055
 C    1.0223713169   -0.3081752589    1.0088029715
 O   -0.1505651914    0.1093135782    0.3738878022
 H   -0.6670769034    2.0027577085   -0.2402487303
 H    0.4521391328    1.1125645283   -1.3319573867
 H    2.4061612039    1.2258694926    2.0252567804
 H    2.5174714984   -0.2104756922   -0.7521647634
 H    3.5335560294   -2.1961166825    0.3554290304
 H    4.0975954218   -1.0168820354    1.5263538411
 H    2.5125936419   -2.7295673246    2.7948036721
 H    0.1728709280   -1.5832215864    2.6588941726