19

 C   -0.1033780807    1.5663803363    0.0070270903
 C    0.0353719295    0.0483161340   -0.0490339001
 O   -1.2522719697   -0.5592107859   -0.1238568141
 C    0.9467728456   -0.5211172196   -1.1536869515
 C    1.1442113702   -1.9923314543   -0.6855082923
 C    1.9381846354   -1.3183686895    0.4916909309
 C    2.3719972322   -0.2613914551   -0.5792770185
 C    0.8072602796   -0.5660769002    1.1589259647
 O    0.4890850563   -0.4825653403    2.3171529411
 H    0.8598761513    2.0806600321   -0.0465521491
 H   -0.7296544817    1.9059311714   -0.8230232641
 H   -0.5841365458    1.8584101159    0.9468330496
 H   -1.6614885226   -0.4532079956    0.7438930570
 H    0.6845237411   -0.2725107875   -2.1814235032
 H    0.2540983167   -2.5743503144   -0.4476095605
 H    1.8155317851   -2.5523414310   -1.3396577267
 H    2.6370366682   -1.8542408227    1.1302848944
 H    3.1525057664   -0.6570676205   -1.2321566912
 H    2.6433463630    0.7418009067   -0.2420035768