14

 O   -0.4891303831    0.5154977738    0.6582690517
 C    0.0839738134    0.9839550834   -0.2882567245
 C    1.3552425053    1.8044014392   -0.2083586044
 C    1.2258114477    3.1283245190   -0.9912912720
 C    2.5232599795    3.8525342045   -1.0890162501
 N    2.7770581318    5.0259239154   -0.5845749075
 O    4.0664684230    5.2715949164   -0.9158799946
 N    4.5596106040    4.1886092242   -1.6368617959
 N    3.6373190039    3.3422877799   -1.7386420466
 H   -0.2960263114    0.8305732740   -1.3262022757
 H    1.6010712413    1.9792770150    0.8418831690
 H    2.1612295634    1.2070232272   -0.6562097065
 H    0.8684789270    2.9186583182   -2.0068830421
 H    0.4972178542    3.7892473700   -0.5154988608