18

 C   -0.0692966798    1.5554599653    0.0264634520
 C    0.0380625627    0.0299583052   -0.0134957827
 C    0.7346259061   -0.5493682645    1.2124930600
 O   -0.0243334517   -0.2837674109    2.4156672769
 C   -0.3192790958   -1.4449425025    3.0591786707
 N   -0.9630022259   -1.5915858139    4.1340535463
 N    0.2185477487   -2.4897983772    2.3192247373
 C    0.8675443158   -2.0654338915    1.1790571271
 N    1.4612796787   -2.7002281845    0.2554658737
 H    0.9218170809    2.0207665976    0.0656919667
 H   -0.5797530238    1.9319282236   -0.8643863317
 H   -0.6306965561    1.8860844131    0.9048218705
 H   -0.9570684430   -0.4232912977   -0.0939422076
 H    0.6096662966   -0.3035064105   -0.8859713291
 H    1.7234287341   -0.0922266770    1.3383469627
 H   -1.2586078378   -0.6889239772    4.4988201579
 H    0.1018521231   -3.4452945632    2.6128859899
 H    1.4434831771   -3.7094238642    0.4057626495