23

 C   -0.3427895391    1.5594953810    0.0377637383
 C    0.0216712554    0.0832142059   -0.0222678116
 C    0.6089225549   -0.5383250646   -1.3147932556
 C    1.8206268271    0.2055734799   -1.9456109180
 C    2.8184024616   -0.6146005884   -1.0638412223
 C    3.5160582070    0.1309046110    0.0772802604
 C    2.4121498148    0.4285783488    1.1277280774
 C    1.2207840968   -0.5085463561    0.8067092997
 C    1.6117719180   -1.3678257896   -0.4410718042
 H    0.4850720088    2.2102865185   -0.2599994961
 H   -1.1825838533    1.7751659031   -0.6327344717
 H   -0.6439080392    1.8524692580    1.0501613044
 H   -0.8675731769   -0.5012572632    0.2419813434
 H   -0.0999302597   -0.9785281805   -2.0184759684
 H    1.9309646843   -0.0082280397   -3.0115849317
 H    1.8482993373    1.2928698562   -1.8209742546
 H    3.5113361447   -1.2187138571   -1.6540955661
 H    4.2834195802   -0.5181212673    0.5157627608
 H    4.0271918781    1.0372322707   -0.2654022450
 H    2.7838493458    0.2556436478    2.1419154769
 H    2.1067635143    1.4786891434    1.0947370797
 H    0.8957964723   -1.0595106915    1.6915301265
 H    1.6125712869   -2.4546161264   -0.3601626820