19

 C    0.0299557577    1.5148683729    0.1347691685
 O    1.3139734649    2.1068384011   -0.0271463554
 C    2.1189870303    1.4768349210   -1.0325766720
 C    2.5286884739    0.0907569013   -0.5075499599
 C    1.2772134676   -0.7397096486   -0.3288716348
 C    0.0052285522   -0.0023971383   -0.0246401135
 C    0.2249752724   -0.5952342730   -1.4218129351
 C    0.5214920960    0.3486136572   -2.5235985432
 C    1.4007377986    1.3425122199   -2.3599444039
 H   -0.2944214429    1.7867208395    1.1444215496
 H   -0.6804818293    1.9670022311   -0.5748419269
 H    2.9941568959    2.1241497837   -1.1284988681
 H    3.2202410753   -0.3921245062   -1.2083184489
 H    3.0457849988    0.2200429445    0.4488526641
 H    1.4025731200   -1.7290290197    0.0992066213
 H   -0.7321919777   -0.5072514548    0.5917719726
 H   -0.3626858282   -1.4712667159   -1.6721442965
 H   -0.0166643796    0.2242833895   -3.4590979417
 H    1.6003826943    2.0620097248   -3.1464382259