23

 C   -0.1559600292    1.6227309724   -0.1421938272
 C    0.0158137426    0.0935268097   -0.0491402610
 C   -1.3347632638   -0.6607758048    0.0718261559
 C   -2.0973821539   -0.3314079545    1.3399723877
 C   -3.1721018046    0.7336219889    1.3802143593
 C   -3.5473832029   -0.7189294961    1.5407000957
 C   -4.3584359354   -1.4411771349    0.4860156680
 C    0.7761679963   -0.4123134191   -1.1914683259
 C    1.3795927141   -0.8250775935   -2.1462982975
 H    0.8165287231    2.1162804177   -0.2170637137
 H   -0.7390896459    1.8905049691   -1.0288976754
 H   -0.6747198102    2.0042044652    0.7401913500
 H    0.5949414088   -0.1247893989    0.8600651737
 H   -1.9372521494   -0.4354869466   -0.8148777042
 H   -1.1243780656   -1.7364461761    0.0360523730
 H   -1.4846734441   -0.4053537220    2.2369472687
 H   -3.2302618431    1.3944450207    2.2386732957
 H   -3.4309147757    1.2100713226    0.4389366447
 H   -3.7923463529   -1.0221481966    2.5558501682
 H   -4.1334651166   -1.0816655584   -0.5220263384
 H   -4.1690295474   -2.5204823934    0.5029939390
 H   -5.4306414091   -1.2907481805    0.6537816027
 H    1.9233018451   -1.1913920910   -2.9814114591