20

 C    0.5430142479    0.6237123360    1.2616418088
 O   -0.3145766509    0.6548794108    0.1150191044
 C   -1.2567377729   -0.2921683957   -0.0447690222
 N   -0.9968369447   -1.5849967769    0.4658701212
 C    0.1065593115   -2.3809334040    0.1898892031
 N    1.2023494953   -1.9670646511   -0.2887305073
 C    2.2555343618   -2.9414311050   -0.4819976071
 N   -2.3796273230   -0.0924034811   -0.5942729100
 C   -2.7457820001    1.2570183856   -0.9835277618
 H    1.3229929181   -0.1282446060    1.1310827834
 H    0.9871821190    1.6189286606    1.3190662848
 H   -0.0293143772    0.4281597459    2.1737371243
 H   -1.8639329271   -2.0997463530    0.5256052645
 H   -0.0790607191   -3.4298122614    0.4645678776
 H    1.9713837553   -3.9658511264   -0.1893321054
 H    2.5548662678   -2.9559684352   -1.5363507066
 H    3.1426862628   -2.6539616694    0.0947769655
 H   -2.2030883190    2.0368611174   -0.4358547774
 H   -2.5518862281    1.4051250240   -2.0535327581
 H   -3.8214551975    1.3916424545   -0.8308321517