17

 O    0.0717324850    1.6200811262   -0.1820567977
 C   -0.0040992366    0.2234543550    0.0121747849
 C    0.1870657389   -0.3215940107    1.4749584131
 C   -1.0861904070   -1.1851315715    1.2832831289
 C   -1.4749773988   -0.2872430557    0.0805975981
 C    0.8107785560   -0.5066833166   -0.9493921609
 C    1.5103753602   -1.1111317130   -1.7296873777
 C    2.3436168053   -1.8028625808   -2.6772668025
 O    2.4054646478   -3.0064125853   -2.7858211330
 H    0.9968956673    1.8638278066   -0.2975339192
 H    1.1276939813   -0.8223412931    1.7097166815
 H    0.0238041821    0.5067216016    2.1688640208
 H   -0.8451788607   -2.2037774441    0.9720681819
 H   -1.7874803478   -1.2286171905    2.1174525828
 H   -2.1077510993    0.5519947548    0.3789377042
 H   -1.8839330143   -0.7544059741   -0.8158143501
 H    2.9456821907   -1.1315669487   -3.3232407352