20

 C    0.0607939419    1.4251280958   -0.0531759517
 O   -0.0367206822    0.0176239834   -0.1222864347
 C    0.6863736181   -0.5812971262   -1.2004401633
 C    2.1354662067   -0.8243413073   -0.7525267532
 O    2.1953877017   -1.5796011026    0.4388286651
 C   -0.0258074520   -1.8579765867   -1.6037744760
 C   -0.8028299797   -2.6832098699   -0.6134537425
 C   -1.5287377927   -1.9189608279   -1.6932190477
 H    1.0930398398    1.7690840864    0.1021543344
 H   -0.3278875616    1.8982175758   -0.9666958650
 H   -0.5450785108    1.7470565662    0.7974663063
 H    0.6973297388    0.1093445703   -2.0601646115
 H    2.6743872189   -1.3838255024   -1.5253520214
 H    2.6494984230    0.1451468925   -0.6375948850
 H    1.5111777705   -1.2123592832    1.0119424697
 H    0.5224315429   -2.4127001662   -2.3604626656
 H   -0.7375032855   -3.7626409099   -0.6891998365
 H   -0.8894147907   -2.3056967012    0.3975569373
 H   -2.0800710604   -1.0384460264   -1.3837902667
 H   -1.9715123767   -2.4682929305   -2.5167296820