19

 C   -0.1227676081    1.5891903457    0.0589537414
 C    0.0407510592    0.0941452147   -0.0054777838
 O   -1.0749055203   -0.5527750338    0.5461873937
 C    0.6965831751   -0.6433821070   -1.1654773403
 C    1.6578584978    0.0741776478   -2.1151885741
 C    2.8143728679    0.4751819708   -1.2216397454
 C    2.6448076405    0.0670165474    0.0382350012
 C    1.3531832243   -0.6542242925    0.2099242151
 O    1.2940078652   -1.8174318810    0.9992915098
 H    0.7614118688    2.1096434768   -0.3126153001
 H   -0.9862599156    1.8974961560   -0.5400936328
 H   -0.3041983280    1.9025262877    1.0919241482
 H   -0.7604298055   -1.4104113850    0.8649623976
 H    0.1612610307   -1.5211465403   -1.5102033162
 H    1.9878033269   -0.5773857456   -2.9350748286
 H    1.1924218821    0.9481449134   -2.5898645395
 H    3.6552066364    1.0569525458   -1.5826401445
 H    3.3307898161    0.2402540604    0.8604573601
 H    1.3943529068   -1.5537984912    1.9220440683