21

 C   -0.1895318562    1.3496540744    0.0732839273
 O   -0.2077735637   -0.0485828947    0.2123157867
 C    0.8430158030   -0.5293053863    1.0309308530
 C    0.7723582541   -2.0305125373    1.0571952633
 C    1.4086355008   -2.8911258622    2.1216889944
 C    1.7850536208   -2.2817150525    3.4761773095
 C    0.4576771563   -1.8251516482    4.0473637991
 C   -0.5659249595   -2.1494304823    3.2528501804
 C   -0.1112168100   -2.8289825437    2.0076717039
 H    0.7447555841    1.7050704849   -0.3919617946
 H   -1.0291403338    1.6276487483   -0.5690390715
 H   -0.3007038993    1.8619746753    1.0429071360
 H    1.8173553113   -0.2104946097    0.6192267117
 H    0.7624073153   -0.1042769923    2.0422665008
 H    0.8258695960   -2.4579915151    0.0588342318
 H    1.9557330888   -3.7653199296    1.7884354063
 H    2.2632283859   -3.0295733764    4.1228488761
 H    2.5034699890   -1.4555447964    3.3884820792
 H    0.3820724310   -1.2793658657    4.9813680928
 H   -1.6086059301   -1.9288778886    3.4512171089
 H   -0.7001960437   -3.6376894520    1.5888279752