18

 C   -0.0113037048    1.5420220824    0.0471313098
 C    0.0518849677    0.0272208534    0.0645644935
 C   -1.1732039678   -0.6652995539   -0.5134204211
 C    1.3340503549   -0.7255290154   -0.1665421391
 O    2.4606155108    0.0177203521    0.3786310352
 C    1.9460512665   -0.1146626797    1.6678399519
 N    2.4610448512    0.1236899194    2.7851321089
 C    0.6757439387   -0.7621941300    1.2174227119
 O   -0.0569396794   -1.6731462604    1.9315916643
 H    0.9188244563    1.9924378372    0.3980997843
 H   -0.1960958280    1.9008506787   -0.9715250049
 H   -0.8289198123    1.8991716345    0.6817739620
 H   -1.3527484299   -0.3139247332   -1.5346999010
 H   -1.0598531396   -1.7519760134   -0.5333251633
 H   -2.0606567859   -0.4392559584    0.0856313040
 H    1.5503245298   -1.4715020543   -0.9193297843
 H    3.4028507365    0.5071435930    2.6893600988
 H    0.5540454852   -2.2079392518    2.4525919191