18

 C   -0.0904479516    1.5277034780    0.0827268690
 C    0.0579564986    0.0312636211   -0.0527209798
 C    0.7193554809   -0.6637560631   -1.2075574747
 C    1.6674461322    0.1120839905   -2.1238344851
 C    2.7967165987    0.5399187187   -1.2115909648
 C    2.6516404704    0.0748983329    0.0298753374
 C    1.3879167431   -0.7119156833    0.1820742919
 C    1.3783482041   -1.8859604850    1.0059725507
 N    1.3680179267   -2.8261134881    1.6813212573
 H    0.8116618984    2.0626245228   -0.2200285110
 H   -0.9201422525    1.8803374828   -0.5397418662
 H   -0.3121796707    1.8004244997    1.1192849925
 H   -0.7875445623   -0.5259457435    0.3429057709
 H    0.2419786360   -1.5558814886   -1.5942993030
 H    2.0311895882   -0.5180717592   -2.9447497827
 H    1.1726662159    0.9728165606   -2.5926745357
 H    3.6069443384    1.1770030366   -1.5470706567
 H    3.3279317953    0.2384438071    0.8594967299