19

 C    0.0326217287    1.5731120380   -0.0021899227
 C    0.0106758118    0.0450219861   -0.0067043104
 O    0.6367855749   -0.4876031815    1.1588166634
 C   -1.4124600934   -0.5103238671   -0.0216384483
 C   -1.4339091622   -2.0520398016   -0.0451135256
 C   -2.7760431253   -2.6095380816   -0.0347454022
 C   -3.8952380337   -3.0660868321   -0.0282563426
 C   -5.2380252467   -3.5797474311   -0.0001787855
 O   -5.5768497140   -4.6532362924   -0.4454036816
 H    1.0628132468    1.9465305899    0.0177456215
 H   -0.4487014369    1.9778233065   -0.8983693776
 H   -0.4871939041    1.9599215950    0.8798905960
 H    0.5349640085   -0.3159968520   -0.9088020510
 H    1.5437122386   -0.1676635034    1.1872565081
 H   -1.9421201597   -0.1545615109    0.8689843982
 H   -1.9436670455   -0.1189732829   -0.8952156207
 H   -0.8955043114   -2.4207014139   -0.9284612313
 H   -0.8811040683   -2.4249119200    0.8247059008
 H   -5.9727102382   -2.8978765049    0.4761350616