19

 C    0.2156854027    1.4750599886    0.0160125981
 N    0.0085464863    0.0318312759   -0.0199267837
 C   -0.1867859234   -0.6713178847    1.1499976780
 O   -0.2045253169   -0.1883206386    2.2573267898
 C    0.0090577809   -0.6298566692   -1.2402560663
 N    0.1848285227   -0.0170422437   -2.3351736830
 C    0.1701292691   -0.7727211248   -3.5379633056
 C   -0.3970753618   -0.1029970437   -4.7697579201
 C    1.0865155058   -0.3187693469   -4.6522912262
 H    1.1828540140    1.7240886173   -0.4271892762
 H   -0.5630093819    1.9782577694   -0.5622235783
 H    0.1798466272    1.7842558176    1.0592151931
 H   -0.3289191427   -1.7514309459    0.9602040580
 H   -0.1552547939   -1.7107781232   -1.1514115486
 H    0.0061488685   -1.8485385061   -3.4430288409
 H   -0.9611950454   -0.7162557257   -5.4633628634
 H   -0.7715952087    0.9050459012   -4.6383468375
 H    1.7061765453    0.5446839042   -4.4421614537
 H    1.5538135324   -1.0820365315   -5.2642229335