23

 C    0.0116992291    1.6162005188   -0.0071097936
 C    0.0020687818    0.0862992053    0.0621017780
 C   -1.4034492362   -0.5096808535   -0.0941170430
 C   -1.4546667989   -2.0338462399    0.0207074174
 O   -0.6925909217   -2.6522443842   -1.0098168431
 C   -1.1698930929   -2.6979081311    1.4227209654
 C   -2.5261592984   -3.4092974692    1.3356805133
 C   -3.6282196599   -2.3951515535    1.2406371891
 C   -2.8286312780   -2.7160150182    0.0083136879
 H    1.0255623223    2.0154896523    0.0959186002
 H   -0.3914160567    1.9697552089   -0.9623723634
 H   -0.6011009731    2.0509963621    0.7902333464
 H    0.6586105047   -0.3063687817   -0.7259530604
 H    0.4352700429   -0.2384663311    1.0176588604
 H   -2.0629821054   -0.0694050961    0.6632743884
 H   -1.8139724520   -0.2283134512   -1.0726028822
 H    0.2305371627   -2.4096753395   -0.8827866771
 H   -0.3172125409   -3.3764220215    1.3528543118
 H   -1.0343383533   -2.0311216861    2.2818721455
 H   -2.7144322874   -4.4363033685    1.6226669160
 H   -4.6365447141   -2.7971878189    1.2419168849
 H   -3.5406042252   -1.4329605801    1.7404151330
 H   -3.2778114792   -3.1155165434   -0.8927242649