18

 C   -0.0825114422    1.4250774859    0.0637876841
 C   -0.0181980318   -0.0287199535    0.0211030595
 C    0.0202929230   -1.2313317887   -0.0196925939
 C    0.0964476491   -2.6926399064   -0.0589737857
 C    0.9709751919   -3.1567192394   -1.2370612001
 C    0.5871208461   -3.2816770651    1.3103205828
 O   -0.4866760847   -4.1475826295    1.7381955541
 C   -1.4457610927   -4.0266794925    0.7916336954
 N   -1.2681710093   -3.2779360534   -0.2133537701
 H    0.5731277731    1.8757773687   -0.6893261859
 H   -1.1012106885    1.7790378779   -0.1288160227
 H    0.2223250477    1.8098390625    1.0432269566
 H    1.9828996201   -2.7508342213   -1.1462385413
 H    1.0250004250   -4.2494821071   -1.2538682251
 H    0.5380926285   -2.8144099721   -2.1791120918
 H    1.4944835155   -3.8831342432    1.2090698723
 H    0.7372364728   -2.5139329035    2.0712700191
 H   -2.3349378438   -4.6179589195    0.9823170027