18

 O   -0.0952685664    1.4471303590   -0.4018143695
 C    0.0633228768    0.0582221014   -0.1460273911
 C   -1.3069591397   -0.5728898237    0.0733566012
 O   -2.1821174520   -0.2356894521   -1.0045169645
 C   -1.3973957461   -2.0817103386    0.2892357655
 N   -2.6766587791   -2.3209043054    0.9940543058
 C   -2.8407795406   -1.1881408333    1.9132196748
 C   -1.9990319612   -0.0389677798    1.3522392796
 O   -1.8816616816    1.0767242385    1.8046566636
 H   -0.5000477400    1.8176157369    0.3975512086
 H    0.5389155150   -0.3733857934   -1.0330322902
 H    0.7159706187   -0.1285047748    0.7195175096
 H   -1.9548911246    0.6799874093   -1.2274686195
 H   -1.3684908240   -2.6307415569   -0.6536272311
 H   -0.5673245623   -2.4260004605    0.9202698415
 H   -3.4150533497   -2.2745387557    0.2992053306
 H   -3.8867431911   -0.8996435342    2.0437295832
 H   -2.4483238123   -1.4333676867    2.9108171618