21

 C    0.1675329226    1.2264958876    0.5640084973
 C   -0.0407311673   -0.0283501703   -0.2662022294
 O    0.8311140186   -0.4522463990   -1.0038994504
 C   -1.3323968756   -0.7321526905   -0.1172865233
 C   -1.8158390292   -1.6658988075   -1.2125476134
 C   -1.4903099036   -2.2799498753    0.1007158690
 C   -0.4017063238   -3.2964342175    0.2811419493
 C   -2.6295047793   -2.0085275849    1.0951409764
 C   -2.4758681097   -0.4695001360    0.8707587209
 H    1.1224356255    1.6819232899    0.2996702492
 H   -0.6468706060    1.9412075986    0.4018037065
 H    0.1669611622    0.9819524788    1.6326310510
 H   -2.8480457447   -1.5746897542   -1.5452506995
 H   -1.0850213455   -1.8229801330   -1.9981557369
 H    0.4544648880   -3.0559223854   -0.3553004700
 H   -0.0559837260   -3.3311686110    1.3202709231
 H   -0.7555431006   -4.2998930592    0.0147461190
 H   -3.5978169429   -2.4492928103    0.8356847077
 H   -2.3764038720   -2.3046282331    2.1160404223
 H   -2.1616710350    0.0498124167    1.7784887988
 H   -3.3453850959    0.0535944255    0.4583735221