17

 O    0.0614270072    1.3725710991    0.0444465282
 C    0.0159483953    0.0009684798   -0.0321935186
 C    0.7534113752   -0.8039076624   -1.0732904732
 C   -0.2235165124   -2.0094744333   -0.7366016142
 C    0.4056501488   -2.8340545136    0.3690744557
 C    0.4052864320   -2.1174662087    1.4975569229
 C   -0.3119226215   -0.8349244879    1.2432454807
 O   -0.8414442321   -0.0523587678    2.2788133957
 C   -1.1475878338   -0.9780736076   -0.0014549096
 H   -0.3952941553    1.6102937653    0.8640749601
 H    0.5468869549   -0.4128490839   -2.0727509613
 H    1.8284332459   -0.9749269706   -0.9522544090
 H   -0.6188971562   -2.5507483566   -1.5937649384
 H    0.9040988022   -3.7812448931    0.2056700741
 H    0.8808682350   -2.3679350880    2.4382014902
 H   -0.1094273589    0.2190641266    2.8448716477
 H   -2.2251238563   -0.8688075674   -0.0480250910