18

 C   -0.0397961657    1.5289962334    0.0862985023
 C    0.0385613150    0.0204756335    0.0236913290
 C    1.3582457847   -0.6804696598   -0.1965774331
 C    0.6870560801   -0.7542344052    1.1557533492
 O    1.2711337362   -0.0170895008    2.2089640488
 C    1.0950227962   -0.6953002830    3.3905735154
 N    1.5412573581   -0.1970064599    4.4679037539
 C    0.3693253832   -1.9389896799    3.0776782950
 C    0.1324610049   -1.9730959705    1.7622425884
 H    0.8256790891    1.9453683940    0.6063895789
 H   -0.0766110231    1.9546343971   -0.9219994857
 H   -0.9367757809    1.8533193373    0.6234595364
 H   -0.8301635931   -0.4672359967   -0.4120638439
 H    1.3954439801   -1.5784002631   -0.8036875863
 H    2.2490689402   -0.0625073948   -0.2348703765
 H    1.3332917354   -0.8188251869    5.2468724798
 H    0.0958278702   -2.6695650140    3.8253699489
 H   -0.3785110006   -2.7395637508    1.1948074996