17

 C    0.0355467280    1.4378049943   -0.0815131135
 N   -0.0032507027   -0.0092415014   -0.0517141373
 C    0.1764146120   -0.8671207682   -1.0840174583
 C   -0.0249079828   -2.1465209453   -0.5916342622
 C    0.1011838002   -3.4466617600   -1.3329496525
 C    1.5582707948   -3.7592305559   -1.6389844229
 O    1.9967603098   -3.9766660158   -2.7381048072
 C   -0.3212891359   -1.9345473448    0.7724340303
 N   -0.3130907643   -0.6438226656    1.0948834934
 H    0.5689470223    1.7633209257   -0.9762835329
 H   -0.9755917139    1.8567551358   -0.0917628965
 H    0.5583667857    1.7990537971    0.8056469842
 H    0.4263880494   -0.5158594819   -2.0733036586
 H   -0.2889604326   -4.2591472920   -0.7060340164
 H   -0.4538043864   -3.4522020111   -2.2755273758
 H    2.2179678685   -3.7516129311   -0.7413643521
 H   -0.5407396621   -2.6757171198    1.5282296981