21

 C    0.0013279436    1.5395377330   -0.0998015235
 C    0.0082631612    0.0437916252   -0.0126973799
 C    0.4415979801   -1.0490348945   -0.9830763447
 C    1.2366914330   -1.7714118649    0.1032836531
 C    0.5127852332   -0.8625612358    1.1581911548
 C    1.3154249557   -0.2839045094    2.2961687672
 O   -0.6402227135   -1.5210814581    1.6839075921
 C   -1.5110203379   -1.7957511201    0.5829514764
 C   -1.0135297456   -0.9101656065   -0.5520777813
 H    1.0027592463    1.9612172166    0.0450991565
 H   -0.3565607401    1.8715707766   -1.0801672190
 H   -0.6567457069    1.9810436130    0.6580717041
 H    0.7240699602   -0.9470389681   -2.0251504532
 H    1.1022167449   -2.8513959350    0.2275694684
 H    2.3056271534   -1.5473388014    0.0406133957
 H    2.1899510979    0.2542966128    1.9197210816
 H    0.7040366335    0.4078225503    2.8836254592
 H    1.6616758498   -1.0812132324    2.9610296635
 H   -1.4816949996   -2.8653169314    0.3302242739
 H   -2.5375989549   -1.5461289502    0.8770075342
 H   -1.7140409543   -0.5641531698   -1.3039360191