24

 C   -0.1622719521    1.5464770880   -0.2619126536
 C   -0.0397180495    0.0567319808    0.0108621834
 O   -1.3344859739   -0.5053081048    0.0339175384
 C   -1.3340095854   -1.8948455260    0.2892096282
 C   -2.7637357584   -2.3690870895    0.2829294591
 N   -3.3047729190   -2.8928754186   -0.9857120734
 C   -3.1890510389   -3.7937228376    0.1783750121
 C   -2.1832523344   -4.9189134742    0.0248808608
 C   -4.4618545007   -4.1986051078    0.8981019620
 H    0.8270251872    2.0132727389   -0.2869245370
 H   -0.6535637849    1.7200717796   -1.2234518577
 H   -0.7559705140    2.0318616377    0.5180711266
 H    0.5731526395   -0.4294778386   -0.7674757709
 H    0.4699628966   -0.1196303592    0.9744173596
 H   -0.7510707751   -2.4282606476   -0.4757398448
 H   -0.8688146181   -2.1004875243    1.2702658233
 H   -3.4134865994   -1.7224193110    0.8716691263
 H   -4.2681097845   -2.5903592548   -1.1095547719
 H   -1.3273041050   -4.6127379233   -0.5784562390
 H   -1.8209468373   -5.2572145602    1.0022774502
 H   -2.6495990583   -5.7771210953   -0.4723931909
 H   -4.9847675717   -4.9879921422    0.3448614450
 H   -4.2453111979   -4.5879539298    1.8993756991
 H   -5.1451425648   -3.3504181502    1.0089005752