21

 C    0.1230047041    1.5250977896   -0.1176417398
 C   -0.0215529433    0.0246692758    0.1453952213
 O    0.4282062894   -0.7001881378   -0.9982956298
 C    1.3554404249   -1.6990860639   -0.6028569259
 C    1.5963329775   -1.4932275046    0.8722465069
 C    2.5918662444   -2.3479440922    1.5917129856
 C    0.7996639474   -0.5111779065    1.3007682790
 C    0.5996461123    0.0833952470    2.6602432903
 O    1.0961601557   -0.7659554576    3.6822644276
 H    1.1765390239    1.7930255290   -0.2430971016
 H   -0.4142804197    1.7942902255   -1.0313317424
 H   -0.2956618519    2.1118798543    0.7073226504
 H   -1.0930765809   -0.1937445666    0.3121808093
 H    0.9510325586   -2.7058245631   -0.8079724682
 H    2.2792057671   -1.6022152337   -1.1956124635
 H    3.5833205762   -2.2508170959    1.1300925623
 H    2.6620391829   -2.0838860415    2.6445324370
 H    2.3186018089   -3.4085486819    1.5144317036
 H    1.0886396150    1.0723691974    2.6996802495
 H   -0.4796980062    0.2727714566    2.8008372377
 H    1.0296081140   -0.2931839100    4.5168391709