17

 O    0.1885716638    1.5422426438    0.0161808545
 C    0.0427093154    0.1499358895    0.0315547304
 C    0.6136890566   -0.4607505502   -1.2388869781
 O    1.1108399245    0.2370535176   -2.0911604873
 C    0.7182456262   -0.4631816964    1.2657911790
 C    0.1528426548   -0.1311034314    2.6836323129
 C    0.1806687824   -1.6443951376    3.0613944427
 C    0.4354961664   -1.9450425761    1.5789071605
 O    0.3251956017   -2.9179333569    0.8872103046
 H    0.6258673344    1.7441629423   -0.8277569028
 H   -1.0282970819   -0.1238366245    0.0579461008
 H    0.5549742428   -1.5606704353   -1.3256248998
 H    1.7986833928   -0.2808804445    1.2167331260
 H    0.7655289402    0.5321983647    3.2927498658
 H   -0.8615596984    0.2701577935    2.6343557414
 H    1.0380986655   -1.9242264289    3.6821914561
 H   -0.7186442071   -2.0915402294    3.4916491634