23

 C    0.0849621891    1.5810134238    0.3261076855
 C   -0.0061459750    0.0529569453    0.3175023795
 C   -1.3116668066   -0.4693135153   -0.2977551250
 C   -1.4086602985   -1.9802597037   -0.3012153770
 C   -1.8666128287   -2.7392067547    0.9435932456
 C   -2.7245718204   -2.6857667838   -0.2789784499
 C   -4.1426373948   -2.1541516804   -0.4677206275
 C   -4.3379610946   -3.4390587898   -1.3013545448
 O   -2.9698060924   -3.8485322965   -1.0758240499
 H    1.0271152105    1.9230680798    0.7657372930
 H    0.0248695214    1.9877817966   -0.6896585889
 H   -0.7325830651    2.0236844485    0.9064424826
 H    0.8439075837   -0.3634566411   -0.2385987801
 H    0.0850949330   -0.3308757462    1.3412905410
 H   -2.1637056986   -0.0505446877    0.2555838910
 H   -1.4039001724   -0.0920233145   -1.3260403264
 H   -0.6443065431   -2.4901807838   -0.8845195861
 H   -1.3826077929   -3.6832365191    1.1702531941
 H   -2.1738511618   -2.1634836996    1.8128048719
 H   -4.7455941919   -2.0861512100    0.4397898710
 H   -4.2216894193   -1.2189412208   -1.0259197360
 H   -5.0510200682   -4.1648031801   -0.8935719513
 H   -4.5465705734   -3.2900698569   -2.3669483422