25

 C   -0.8042458834    1.0758260097    0.8312670968
 C    0.1261735876   -0.0212339096    0.3032881698
 C    0.8457293178    0.4403360923   -0.9893548287
 C    2.1880113376   -0.2832784848   -1.2657505558
 C    3.1026019884    0.5792947746   -2.1418062969
 C    2.8542679027   -0.6729695071    0.0698150313
 C    1.9527256198   -1.6879886011    0.8207730000
 C    1.1692584469   -0.4588177530    1.3520910533
 C    2.4960037511    0.3440857576    1.1953076443
 H   -0.2327226377    1.9578386255    1.1443298074
 H   -1.5147390833    1.3987917579    0.0623807600
 H   -1.3804730095    0.7275981237    1.6951975318
 H   -0.4895462707   -0.9023735257    0.0735554703
 H    0.1772418898    0.3506898381   -1.8528271852
 H    1.0559125220    1.5133172584   -0.8923560012
 H    1.9846505460   -1.2168260242   -1.8092839392
 H    3.3968220046    1.4965485546   -1.6177132571
 H    4.0175573773    0.0415472606   -2.4126575203
 H    2.6007558371    0.8757472856   -3.0694700714
 H    3.9071994070   -0.9323804867   -0.0738233675
 H    1.4036904863   -2.4232924197    0.2221011767
 H    2.4940872389   -2.2048078285    1.6184762980
 H    0.7237397009   -0.5277871133    2.3487589708
 H    3.1428646210    0.2142136454    2.0670230154
 H    2.4459905219    1.4091940896    0.9517037177