19

 O   -0.4240964638    1.5366923399   -0.5783199393
 C   -0.1277990906    0.2339209871   -0.1049664803
 C   -1.4450515199   -0.5246625294    0.0160221979
 C   -1.2695862149   -1.9602870122    0.5043040908
 C   -2.5662634984   -2.8136619972    0.4870656829
 C   -1.9852583249   -3.4935907972   -0.7883182640
 N   -0.6618555902   -2.9209775542   -0.4607295239
 C   -2.0271860569   -4.9556037275   -0.8603853324
 N   -2.0803792078   -6.1087275675   -0.9173360685
 H    0.3994245045    2.0283219591   -0.6487145460
 H    0.5539869834   -0.2924838923   -0.7943357647
 H    0.3704702033    0.2644047999    0.8776740514
 H   -2.0913431328    0.0170218049    0.7178242661
 H   -1.9529922470   -0.5093801727   -0.9569904923
 H   -0.7356533324   -1.9585239903    1.4623561019
 H   -2.6504873662   -3.5004324917    1.3288627483
 H   -3.5058988686   -2.2775965472    0.3513696348
 H   -2.4438749972   -3.0990630514   -1.7046807621
 H   -0.1643569197   -2.5148127401   -1.2462042703