16

 C   -0.0613333277    1.4474927524    0.1080070672
 N    0.0163822327   -0.0006168565    0.1659576544
 C   -1.0325313748   -0.6848799287    0.0701738878
 O   -2.2947930941   -0.0143077983   -0.0957551734
 C   -3.3898797041   -0.7644554086   -0.1946957851
 N   -3.4455208419   -2.0404725039   -0.1577996386
 C   -2.2001134711   -2.6668032526    0.0048423251
 C   -2.2533900817   -4.1599450947    0.0494426644
 N   -1.0658383469   -2.0602847384    0.1130459873
 H    0.9450123535    1.8596288342    0.2070466715
 H   -0.4874294438    1.7995631475   -0.8408314809
 H   -0.6843086408    1.8590153756    0.9132181103
 H   -4.2861179955   -0.1592005116   -0.3169462102
 H   -2.9036728246   -4.4812787059    0.8702839778
 H   -2.7057698816   -4.5404100309   -0.8727842327
 H   -1.2546596074   -4.5755066496    0.1769318350