14

 C   -0.0480966050    1.5144877236   -0.0169403207
 O    1.1337786717    0.6949391919    0.0167651774
 C   -0.1234530029    0.0531143260   -0.0058607127
 C   -0.5201498167   -0.9839352038    1.0491838446
 N   -0.8336853031   -1.9993639635   -0.0263232903
 C   -1.8997226816   -1.3959106116   -0.8421942069
 C   -0.5110540307   -0.9408314074   -1.0731142317
 H   -0.2490924334    2.0757618479    0.8946354847
 H   -0.2111889205    2.0596603808   -0.9457331543
 H    0.3388319233   -1.3112304971    1.6388515398
 H   -1.3638908532   -0.7614400697    1.7106277658
 H   -2.3295158676   -2.0874732280   -1.5604910544
 H   -2.6164793318   -0.7260850852   -0.3702282311
 H    0.0602273615   -1.1616396836   -1.9683240401