17

 C   -0.0177727489    1.5120843437    0.0835357676
 O    1.4200048175    1.4792606417   -0.1103491497
 C    1.3972547062    0.0780530566   -0.5004250477
 C    2.4327183397   -0.8289103402    0.1653255514
 O    2.0453725858   -1.2939334210    1.4457699001
 C    0.7843091728   -1.9545028432    1.4283158192
 C   -0.3224451118   -0.9542632172    1.1371329991
 O   -0.9712627049   -0.9903653610   -0.1637298266
 C   -0.0057638028   -0.0069154297    0.0781039743
 H   -0.3049054791    2.0213831838    1.0087359003
 H   -0.5359837762    1.9670639925   -0.7712447659
 H    1.4509350354   -0.0151308974   -1.5938525124
 H    2.6197000187   -1.6869519589   -0.5022281141
 H    3.3707374339   -0.2827266760    0.2990474164
 H    0.7673371979   -2.7547760328    0.6718215389
 H    0.6670113003   -2.4037159331    2.4170325790
 H   -0.9860295647   -0.6606906578    1.9470010202