14

 C   -0.1581641071    1.5405952627    0.1035629692
 C    0.1101981305    0.0405226726   -0.0078153017
 N    0.7411549384   -0.5002587219    1.1861735015
 C    0.2509243696   -1.3527561910    2.1086598553
 N    1.1426328381   -1.5777156588    3.0572357016
 C    2.1922162814   -0.8125920226    2.6535952267
 N    2.0020043970   -0.1403804763    1.5286365255
 H    0.7758765207    2.0781598194    0.2808473890
 H   -0.6046197682    1.9097147146   -0.8242948927
 H   -0.8440528739    1.7555098519    0.9280917452
 H   -0.8190151255   -0.5173356067   -0.1555044664
 H    0.7655734475   -0.1709135411   -0.8579957463
 H   -0.7399684178   -1.7774206884    2.0442616746
 H    3.1222279894   -0.7505526945    3.1988982984