17

 N   -0.0958619515    1.2941821488   -0.0957674075
 C    0.1607937231    0.0686204967   -0.2550955947
 C   -0.6226194807   -1.0319498887    0.4044849017
 C   -1.0379673294   -2.1525260497   -0.5792858537
 C   -0.0107140771   -2.3237560037   -1.7193776474
 C    1.3511402074   -1.7240536317   -1.3445643699
 O    1.2248924153   -0.3335431152   -1.0403792644
 C    2.0136237683   -2.4589492559   -0.2467606024
 N    2.5324495960   -3.0499811743    0.5997352251
 H    0.5727205548    1.8705787926   -0.6114114607
 H    0.0116239643   -1.4600107293    1.1897328425
 H   -1.4844882588   -0.5812066226    0.8956173131
 H   -1.1500580228   -3.0863132000   -0.0227817368
 H   -2.0148705148   -1.9233416795   -1.0126429940
 H    0.1146173679   -3.3729697085   -1.9999024645
 H   -0.3364100002   -1.7837399797   -2.6138298512
 H    2.0268472382   -1.7604731794   -2.2043349949