16

 C    0.0329477427    1.6370326277   -0.0885908256
 C    0.0317921024    0.1164881508   -0.0350556580
 C    0.7689251342   -0.7239289209   -1.0920429101
 C    1.1949299808   -1.7421560390   -0.1333948220
 N    2.2402676590   -0.8104300199   -0.7552231235
 C    2.3419526229   -0.2129269909    0.5673156070
 O    3.3073628873    0.1675885786    1.1589167787
 C    0.9405792523   -0.6035441612    0.9924033830
 O    0.5716090827   -0.6840398088    2.3037527321
 H    1.0428629473    2.0356391633   -0.2284238088
 H   -0.5889021381    1.9977328760   -0.9139586313
 H   -0.3690348309    2.0534163978    0.8402937906
 H   -0.9856893169   -0.2771197672    0.0622595477
 H    0.5419357695   -0.8261917666   -2.1451085545
 H    1.3298315856   -2.8132064275   -0.1267907646
 H    1.3748617492   -0.6980721622    2.8413178891