23

 C   -0.1326316073    1.5772569528    0.0062170157
 C   -0.0484989809    0.0654223032    0.0187564327
 C    1.2772657100   -0.6247835276   -0.2952944572
 C    0.7019084557   -0.6669923860    1.0811520039
 C    1.2056690302   -0.2236525997    2.4728004357
 C   -0.1855713604   -0.6865916910    3.0059731733
 C    0.2784845062   -1.8095416477    2.0277498504
 C    1.6859698181   -1.6982604020    2.7104469389
 C    2.9444459144   -2.2533688667    2.0634564197
 H    0.7813774113    2.0245101080    0.4109883920
 H   -0.2665492821    1.9610091343   -1.0115939949
 H   -0.9720378561    1.9386208710    0.6111440688
 H   -0.9312054446   -0.4366784707   -0.3737938169
 H    1.2576186346   -1.5236173741   -0.9049089836
 H    2.1374290039    0.0134604140   -0.4811054143
 H    1.7393056028    0.6938768265    2.7282638186
 H   -0.2351342420   -0.9550194581    4.0651481867
 H   -1.0491011281   -0.0958859097    2.6941884655
 H   -0.2612386509   -2.7216575533    1.7644688283
 H    1.6590163464   -1.9783247707    3.7707599637
 H    3.0234080972   -2.0000069960    1.0054036731
 H    3.8366546575   -1.8682747289    2.5705258190
 H    2.9690099341   -3.3456452577    2.1517275407