12

 N   -0.0380802653   -1.1620695234   -0.0058699281
 C    0.0000426156   -0.0084944007    0.0012547761
 C    0.0219755976    1.4610136990    0.0104125149
 N    1.3644601319    2.0041844822    0.0002656341
 N    2.0415473891    2.2241561314    1.1237866042
 C    3.2270816345    2.6467036729    0.6875492275
 C    3.2121951018    2.6572152591   -0.7166686285
 N    2.0175889990    2.2411308278   -1.1339533692
 H   -0.4992212816    1.8375715397   -0.8723407979
 H   -0.4813596136    1.8261620928    0.9082091634
 H    4.0066137911    2.9223809949    1.3792685924
 H    3.9769148599    2.9433710643   -1.4205598489