16

 N   -0.0474985374    1.4446208878   -0.2016873875
 C    0.0580696239    0.0529915386   -0.0361713672
 C   -0.9522801250   -0.8327799248    0.1801679837
 O   -2.2624488238   -0.6307162968    0.4366790848
 O   -0.4854104926   -2.1181111957    0.1934286610
 C    0.8685039444   -2.0463876014   -0.0105831202
 C    1.5963447661   -3.3428202809   -0.0027278909
 O    1.6648347263   -3.9510783824    1.2847940010
 C    1.2461015244   -0.7479677878   -0.1520957895
 H    0.6672793433    1.9461581165    0.3122936496
 H   -0.9558529933    1.7787243785    0.0984047731
 H   -2.7986774811   -0.9872631534   -0.2831780302
 H    1.1392179626   -4.0315150436   -0.7310484222
 H    2.6294181487   -3.1686019801   -0.3150657870
 H    0.7611108344   -4.0255519989    1.6092141249
 H    2.2500584092   -0.3929857155   -0.3292276433