17

 C    0.0040105444    1.5412289741    0.0070763273
 C   -0.0185575006    0.0053269940   -0.0145157951
 C    0.7636269007   -0.5909055082   -1.2098918988
 N    2.1277992526   -0.7309450505   -0.6784607281
 C    2.0212734655   -1.2216170248    0.6952334716
 C    0.7409106740   -0.5554788678    1.2008397747
 O    0.3878356349   -0.4665723287    2.3448548553
 C    0.1832222109   -1.8773126164   -1.6550152928
 N   -0.2257040689   -2.9027000957   -1.9995572139
 H    1.0271595142    1.9162941125   -0.0885646865
 H   -0.5931365765    1.9486084614   -0.8137259079
 H   -0.4106321760    1.9022755126    0.9514337758
 H   -1.0506092012   -0.3509501467    0.0179533677
 H    0.7687349014    0.0870367034   -2.0691889816
 H    2.7124699095   -1.3102310363   -1.2683314421
 H    1.8951423238   -2.3141786584    0.7861829282
 H    2.8820601113   -0.9285199144    1.3019120364