18

 O   -0.9834996001    1.3206764254   -0.1410406085
 C    0.1466565758    0.9502966345   -0.3355062105
 C    1.3703674262    1.7881354295   -0.0663720616
 C    1.4318494778    2.8844535089    0.9861167177
 C    1.4840278693    2.1814672908    2.4171784634
 C    2.9225251282    2.7431820733    2.5798451370
 C    2.9550765997    2.5807918893    1.0618765574
 N    2.5305319658    1.1240258519    0.6612790875
 C    1.8316740485    0.7599894141    1.9410782172
 H    0.3665124207   -0.0561240106   -0.7621074806
 H    1.7424703784    2.1460350461   -1.0372961508
 H    0.9917033728    3.8767248621    0.9042451601
 H    0.7099181136    2.3263710009    3.1679087629
 H    2.9344435135    3.8067849894    2.8341020859
 H    3.6293090903    2.1976136256    3.2118216929
 H    3.7144774515    2.9873800116    0.3965256935
 H    2.5128256696    0.2352526466    2.6153601807
 H    0.9750586284    0.1096525406    1.7462010859