19

 C    0.0060549337    1.5081456969    0.0051843631
 C   -0.0435510863   -0.0222555896   -0.0326594557
 C   -1.5027951826   -0.5196017114   -0.0872151592
 O   -2.1974899933   -0.1955313380    1.0958082754
 C    0.8140042167   -0.6233688254   -1.1842470905
 O    1.7758858965   -1.4725316099   -0.5216335220
 C    1.5185115419   -1.3450464921    0.8059653619
 N    2.3891654720   -2.0329575121    1.6013892270
 N    0.5619853404   -0.5917276077    1.1887861814
 H    1.0301281328    1.8576934306    0.1646683621
 H   -0.3649948494    1.9316358986   -0.9353195707
 H   -0.6214064486    1.8788075529    0.8184355537
 H   -2.0408397714   -0.0503896438   -0.9198422047
 H   -1.4947486794   -1.6091536398   -0.2635845616
 H   -1.5932476075   -0.4374671299    1.8117197048
 H    0.2362387168   -1.2404577005   -1.8803032624
 H    1.3612504944    0.1356046087   -1.7505633941
 H    2.8328754825   -2.8319977714    1.1771261092
 H    2.0797309408   -2.1622614961    2.5512086125