21

 C    0.0019385048    1.5510673429    0.0374938238
 C    0.0296416711    0.0189734070   -0.0133565528
 C    0.7410467032   -0.4946491199   -1.2729415553
 O    0.8587404626   -1.9057407817   -1.2551599414
 C    1.7642662163   -2.3706027804   -0.2732522886
 C    1.5622628936   -1.7539619936    1.1087313737
 C    1.7813712325   -2.6741807991    2.2856896681
 O    2.1299679797   -0.4359968097    1.2622287403
 C    0.7016031004   -0.5644943761    1.2133685316
 H    1.0183497320    1.9518408566    0.1049562096
 H   -0.4711274100    1.9673855095   -0.8579492250
 H   -0.5582540520    1.9080000528    0.9076462567
 H   -0.9999377371   -0.3639544679   -0.0300093380
 H    0.1613204384   -0.2448936032   -2.1662701776
 H    1.7316928591   -0.0222013949   -1.3591849438
 H    1.6169013817   -3.4537927084   -0.2216962058
 H    2.8063045795   -2.1839056295   -0.5836233290
 H    2.7808591424   -3.1225282313    2.2453068409
 H    1.6970662513   -2.1195150214    3.2234313778
 H    1.0486201520   -3.4880487233    2.2887452262
 H    0.2048655087   -0.3686036081    2.1663602185