20

 C    0.0248941884    1.5304432689   -0.0608337638
 C    0.1298149947    0.0287480773    0.0021341073
 C    0.3540433435   -0.7355816342   -1.3074417227
 C    1.1137775915   -1.9830779435   -0.8838431938
 O    2.4148857456   -1.7083726232   -0.3374086996
 C    1.3313455066   -1.9823093186    0.5638007692
 C    0.7283069784   -0.7283327911    1.1416848821
 C    1.3489170739   -0.1269024072    2.3744536013
 N   -0.7422909226   -0.7382641697    0.9339504523
 H    0.9087272481    1.9642261417   -0.5409350497
 H   -0.8512686859    1.8317842080   -0.6471566724
 H   -0.0730380753    1.9785332812    0.9324419028
 H   -0.5996821779   -0.9963000975   -1.7785919592
 H    0.9399762111   -0.1466378854   -2.0217756465
 H    1.0415730007   -2.9007226130   -1.4611033129
 H    1.4223592512   -2.8885546033    1.1586712397
 H    2.4240435655    0.0197574221    2.2270481461
 H    0.9053991028    0.8405629365    2.6269219864
 H    1.2167139609   -0.7888303586    3.2383400765
 H   -1.1657536812   -0.0864395304    1.5936982569