18

 C   -0.0398330196    1.4278362594    0.0662672608
 N   -0.0813353206   -0.0137929679    0.1537805076
 C   -1.4446262322   -0.5937770531    0.1412958888
 C   -1.2074096057   -1.8487759964    0.9061926156
 C    0.0020197000   -1.8667594001    1.5228712533
 C    0.7475409942   -0.6027108095    1.2350561272
 N    0.1832997388   -3.0086526135    2.2588512694
 C   -0.9348947556   -3.6819777153    2.0777041124
 N   -1.8260519154   -3.0191025665    1.2627934260
 H    0.9977984408    1.7635899522   -0.0311336802
 H   -0.5813669634    1.7647237400   -0.8245154661
 H   -0.4801370714    1.9403460786    0.9444656648
 H   -2.1878692593    0.0597254784    0.6395210673
 H   -1.7881338887   -0.7362698325   -0.8932817445
 H    1.7765018837   -0.7526627036    0.8842570153
 H    0.7994448277    0.0516179385    2.1251437481
 H   -1.1647430440   -4.6501033812    2.4971345506
 H   -2.7316869893   -3.3535985474    0.9804895537