19

 C   -0.4527481651    1.4401242743    0.0738230219
 C    0.3802296988    0.1630875135   -0.1416826540
 C    0.9854300989   -0.3373040850    1.0885097305
 C    1.4526587478   -0.7313028320    2.1263282541
 C    2.0709870778   -1.2235142668    3.3565039455
 N    1.6058087775   -2.5742019203    3.6634803449
 C    3.6273048634   -1.0751511541    3.2273094786
 C    4.3087376714   -1.5469746886    4.4283044262
 N    4.8046608655   -1.9390477599    5.3962536196
 H    0.1681666210    2.2466482160    0.4728533720
 H   -0.8863614322    1.7746835495   -0.8730286092
 H   -1.2658153715    1.2579421578    0.7813565264
 H   -0.2542499554   -0.6210260087   -0.5738086762
 H    1.1666961228    0.3568571036   -0.8822049408
 H    1.7604232719   -0.5833718156    4.1925605270
 H    1.8420733659   -3.2069693021    2.9047873127
 H    2.0660692254   -2.9159249091    4.5029990859
 H    3.9739387380   -1.6539651529    2.3645524117
 H    3.8910388481   -0.0282013896    3.0449188631