21

 C   -0.5871922327    1.5559563465   -0.6619184615
 O   -0.7557368545    0.1610119793   -0.7511059149
 C   -0.4498641788   -0.5079786024    0.4498407168
 C   -0.6502083092   -2.0060602537    0.2271983586
 C    0.2912858984   -2.5627627057   -0.8386828281
 O   -0.4476855899   -2.5994666077    1.5054134037
 C   -0.9010900127   -3.9209688160    1.6356922144
 C   -0.8464618173   -4.2935296476    3.1080880487
 O   -1.0792021522   -5.3959030202    3.5264796824
 H   -0.8485608436    1.9797894436   -1.6344050308
 H   -1.2412335545    1.9971565506    0.1064136010
 H    0.4531850403    1.8266029217   -0.4226346025
 H    0.5921069994   -0.3160583600    0.7574753580
 H   -1.1044447422   -0.1735489156    1.2701017633
 H   -1.6947987490   -2.1655557170   -0.0867130134
 H    0.0834950107   -3.6140666439   -1.0571327107
 H    0.1713294513   -1.9910662397   -1.7618290626
 H    1.3306513656   -2.4762728352   -0.5047602329
 H   -1.9440072808   -4.0318209394    1.2902303814
 H   -0.2958783555   -4.6443999346    1.0684634260
 H   -0.5762227828   -3.4420026931    3.7709749830