24

 C   -0.1442855187    1.7464012552   -0.2773400900
 C   -0.2287440333    0.2194698900   -0.1691197932
 C    0.7039555834   -0.5143558207   -1.1375570972
 C    2.2162300217   -0.3049617346   -0.8751856731
 C    2.9308066303   -1.5459148196   -1.4815235570
 C    1.7990517660   -2.4657345636   -2.0056993578
 C    0.5444745954   -2.0558498520   -1.2076852286
 C    0.4827145903   -2.7462564148    0.1625044893
 H    0.8612536614    2.1092434711   -0.0409486528
 H   -0.3878728151    2.0849667133   -1.2909101487
 H   -0.8421537409    2.2322620350    0.4119319906
 H    0.0008615305   -0.0806476232    0.8610491571
 H   -1.2634842867   -0.0971988920   -0.3567768895
 H    0.4884917781   -0.1390437910   -2.1493124471
 H    2.5774372636    0.6319687600   -1.3076201263
 H    2.4046290110   -0.2398303342    0.2028287860
 H    3.6248321417   -1.2720853745   -2.2809893488
 H    3.5264371627   -2.0571439118   -0.7192990572
 H    1.6281758422   -2.2754684166   -3.0715343098
 H    2.0374892414   -3.5293372380   -1.9059563893
 H   -0.3677648400   -2.3146591069   -1.7587486048
 H    1.3618722247   -2.5212656609    0.7764447393
 H   -0.4021639968   -2.4433898339    0.7301583523
 H    0.4399247371   -3.8335752460    0.0391839866