23

 C    0.9745831656    0.0800657492    0.2576439573
 O    0.0635328560   -0.9398470113   -0.0863581568
 C   -1.3037728284   -0.6130836357    0.1084568245
 C   -2.1523097753   -1.6211641860   -0.6894374727
 C   -1.9285658421   -1.4302713924   -2.1955599114
 C   -1.8883340548   -3.0756970364   -0.2717911449
 C   -1.6513607732   -0.6004880157    1.5888801116
 C   -1.8178326575    0.6477686584    2.3464643888
 O   -2.9517802238   -0.1021107428    1.9113219018
 H    1.9695624573   -0.2687331755   -0.0300734467
 H    0.7575579085    1.0150277575   -0.2821761627
 H    0.9770773200    0.2971042016    1.3350285846
 H   -1.5076059352    0.3958657777   -0.2906044644
 H   -3.1957161267   -1.3736983111   -0.4573747818
 H   -0.8830643033   -1.6188150748   -2.4563120608
 H   -2.5540816007   -2.1189676874   -2.7720980116
 H   -2.1766378969   -0.4104402710   -2.5096802987
 H   -2.1358299055   -3.2533843667    0.7791533687
 H   -2.4984816971   -3.7587994184   -0.8709164207
 H   -0.8371147193   -3.3371525849   -0.4220622839
 H   -1.3586686832   -1.4953304386    2.1390346745
 H   -1.6475709941    0.6567693436    3.4222717212
 H   -1.6714145804    1.6035521308    1.8442021642