17

 C    0.7562470143    1.0187723457    0.0632958175
 C   -0.0969179913   -0.1504125306    0.4902736879
 O   -0.0544191344   -0.5990562294    1.6190227611
 C   -1.0443776109   -0.7275673239   -0.5620317019
 C   -1.0623071006   -2.2448936395   -0.6829781308
 N   -1.0243771834   -2.7726391545   -1.8351152291
 N   -1.1610024563   -2.9080150497    0.5545762246
 C   -1.2608201412   -4.2626311769    0.7391082450
 O   -1.3484997151   -5.0960354219   -0.1363314451
 H    1.3272536802    1.4015621405    0.9095058110
 H    1.4377289035    0.7003324909   -0.7345089049
 H    0.1286375187    1.8112981674   -0.3598487244
 H   -2.0506123465   -0.3902253610   -0.2723353978
 H   -0.8387988003   -0.3284125490   -1.5549354570
 H   -1.0873058711   -3.7894679805   -1.7622953239
 H   -1.0018309572   -2.3230024872    1.3699700402
 H   -1.2611996385   -4.5235315306    1.8143523575