23

 C   -2.6282181089    0.7362286993   -2.2785683279
 C   -2.4615298772   -0.6711610861   -1.6979872892
 C   -1.8338891373   -0.6726959189   -0.2972682142
 O   -2.6071364508    0.1159588117    0.6067936069
 C   -1.5755560458   -2.0850480460    0.2479906464
 C   -0.5531403871   -2.8986229524   -0.5240438269
 O    0.7092940218   -2.2515506222   -0.6114230623
 C   -1.5817070325   -2.2791597631    1.7486204798
 C   -2.7002395952   -2.8428890932    0.9065297030
 H   -3.1136693911    0.7035088098   -3.2585549648
 H   -3.2289373838    1.3664939795   -1.6175562814
 H   -1.6553694063    1.2240225897   -2.4029354096
 H   -3.4362520661   -1.1791868541   -1.6463463063
 H   -1.8416450800   -1.2720478386   -2.3716540871
 H   -0.8650421223   -0.1627272736   -0.3495439728
 H   -3.5289443284   -0.1488447365    0.5148626184
 H   -0.4609727726   -3.8935167745   -0.0596434180
 H   -0.8679325987   -3.0593087482   -1.5602274327
 H    0.9951496956   -2.0632789880    0.2892886634
 H   -0.8701909813   -2.9768305719    2.1802020971
 H   -1.8078792062   -1.4128805829    2.3571531814
 H   -3.6721732189   -2.3656826860    0.9819407868
 H   -2.7531145866   -3.9169263137    0.7610916699