18

 C   -0.2258648659    1.6397584180    0.2543013133
 C    0.0506296001    0.1513054357    0.0896099714
 C   -1.2097219468   -0.6284894996   -0.2876378255
 O    0.9939881997    0.0260227819   -1.0326971097
 C    1.9549715586   -0.9002095122   -0.7987571298
 N    2.8238769149   -1.3101032559   -1.6186419523
 C    1.8503488782   -1.3613229305    0.6463656613
 O    2.4932809235   -2.2337398662    1.1586774470
 C    0.7839610060   -0.4826601417    1.2857112665
 H    0.7002897572    2.1828801354    0.4616607711
 H   -0.6704563160    2.0509585408   -0.6563436859
 H   -0.9198940707    1.8067662628    1.0836967460
 H   -1.6203902865   -0.2531490402   -1.2286053589
 H   -0.9892592020   -1.6936980841   -0.4100524404
 H   -1.9712129972   -0.5248492126    0.4915060281
 H    2.7050710715   -0.8577684567   -2.5281951034
 H    1.2924699975    0.2781834676    1.8897199527
 H    0.1358979176   -1.0576878725    1.9492179584