19

 C   -0.6211474794   -0.9811634920   -1.1246616199
 C   -0.3183832279    0.0505822384   -0.5872654445
 C    0.0510605663    1.3129829560    0.0738038203
 C   -0.7294243232    1.4329229821    1.3697953595
 C   -0.3109168888    1.3440724903    2.6294557310
 C    1.0924137337    1.1240365373    3.1306744137
 C    2.1579240639    2.0319441932    2.4956926937
 C    2.4128683615    1.8001481799    1.0299876883
 C    1.5586441366    1.4814098946    0.0601328398
 H   -0.8877085698   -1.8939403392   -1.5969682866
 H   -0.3293800329    2.1150038926   -0.5828130051
 H   -1.7954224668    1.5641919005    1.1979100837
 H   -1.0748213355    1.4287114807    3.3999304663
 H    1.1070634070    1.2785910419    4.2149118318
 H    1.3825761412    0.0770886662    2.9701307855
 H    1.8795336314    3.0819182563    2.6628810205
 H    3.1018165343    1.8876078868    3.0343155748
 H    3.4521900486    1.9166806486    0.7272519832
 H    1.9662767299    1.3468988056   -0.9396120060