18

 C   -0.0047589654    1.3652665592    0.3202391238
 N   -0.2026034603    0.2106424671   -0.5535913811
 C   -1.2005455958   -0.7071669488   -0.2960899002
 O   -2.4169158098   -0.1946773697    0.0219738448
 C   -3.0243473145    0.7481530149   -0.8793728031
 N   -0.9581726399   -1.9593381148   -0.3437643316
 C   -2.0938376503   -2.8679047792   -0.2383613801
 C   -3.1149032934   -2.6760784337   -1.2812944417
 N   -3.8976432543   -2.5078365566   -2.1156540583
 H    0.3915502868    1.0890903156    1.3073110947
 H    0.6959451119    2.0541228654   -0.1576031603
 H   -0.9485581289    1.8905374275    0.4694544717
 H    0.6517014426   -0.2758444425   -0.7904486371
 H   -3.6759419809    1.3839953992   -0.2771846709
 H   -2.2709054423    1.3556335821   -1.3850148563
 H   -3.6170138499    0.2027058164   -1.6189724857
 H   -1.7182713007   -3.8924128874   -0.3237836530
 H   -2.5953132748   -2.7905943145    0.7356420442