17

 C   -0.5483211615    0.9772711471   -0.0240541203
 O    0.6038859193    0.1509144328    0.1005040527
 C    0.9978899877   -0.5107110993   -1.0662306619
 C    0.6687130650   -2.0455158279   -0.9848359909
 C    1.3473578631   -2.6715898414    0.2596059292
 C   -0.7901671989   -2.2368985007   -0.9052699666
 N   -1.9341423347   -2.3703395846   -0.8186046113
 C    1.1716699247   -2.6793943473   -2.2143248354
 N    1.6122139071   -3.1408524121   -3.1770013169
 H   -0.3837398608    1.7727593129   -0.7633412616
 H   -1.4384506261    0.4024440542   -0.3023789247
 H   -0.7087389291    1.4316439130    0.9554874964
 H    0.5320910806   -0.0878530130   -1.9641018165
 H    2.0862545612   -0.4283487632   -1.1698907824
 H    1.0178320373   -2.1285817027    1.1460258091
 H    1.0859483901   -3.7265428495    0.3551294779
 H    2.4320023451   -2.5811196883    0.1639336831