20

 O    0.2160701952    1.3871048303   -0.0331692724
 C    0.0726440281   -0.0024778301   -0.0033885345
 C   -0.4398969401   -0.7046725717    1.2348009946
 C   -0.9127636564    0.1030069456    2.4321214526
 C   -2.4505784348    0.0689461656    2.5717251374
 N   -3.2303417511    0.4252904746    1.3858680921
 C   -2.7681801087    1.5452438185    0.5680434487
 C   -2.6142190884    0.1459909413    0.0729444097
 C   -1.3095326894   -0.5985993904   -0.0169826392
 H    1.0320640922    1.6079911925    0.4291514654
 H    0.8168359217   -0.5361578434   -0.5946167656
 H   -0.0130178490   -1.6778161667    1.4562635390
 H   -0.4718019171   -0.2974055357    3.3501359215
 H   -0.5697004420    1.1401639968    2.3516238742
 H   -2.7583966714   -0.9454008173    2.8560388451
 H   -2.7621782853    0.7366218010    3.3828830907
 H   -3.5594448105    2.1683648154    0.1578322776
 H   -1.8679705062    2.0808051004    0.8433107851
 H   -3.3409352468   -0.1951840507   -0.6610409014
 H   -1.3915472400   -1.5000462458   -0.6160752507