17

 O   -0.5589839040    0.3035947228    1.9993702906
 C   -0.1342429838    0.8969525709    1.0432616619
 C    1.3110495486    1.3847192520    0.9317427124
 C    1.8756018776    1.4176657483   -0.4085596709
 C    2.3714258481    1.4400612779   -1.5018721311
 O   -0.8601455026    1.2470732247   -0.0320789947
 C   -2.2335789283    0.8895916094   -0.0097516374
 C   -3.2321111102    1.9992733436    0.1201952605
 C   -3.0119695507    1.3067312314   -1.2118566092
 H    1.3311698906    2.3917884430    1.3714882315
 H    1.9031924962    0.7493774486    1.5966109488
 H    2.7982494369    1.4568190767   -2.4739190070
 H   -2.4163270792   -0.0607768501    0.4743360694
 H   -4.1422908496    1.8047100892    0.6758662219
 H   -2.8387069689    3.0039999923    0.2231979418
 H   -2.4738704466    1.8598138858   -1.9729514350
 H   -3.7713589142    0.6316498335   -1.5893634335