8

 O    0.0020322960    0.0030976283    0.0031974156
 C   -0.0140876365    1.1895787907    0.0095302424
 O   -1.1321301050    1.9823079567    0.0287676638
 C   -0.7068928200    3.2954973827    0.0299074907
 C    0.6212504111    3.3136373516    0.0121781075
 O    1.0820030839    2.0125474282   -0.0008348254
 H   -1.4620993684    4.0607448555    0.0440635469
 H    1.3553915189    4.0992229663    0.0064512184