17

 O    0.2491569530    0.0254945897   -0.3125812202
 C    0.0590841634    1.1808692727   -0.0888646871
 C   -1.1291666034    2.0550995032    0.3188458045
 O   -0.2568817785    3.1991999731    0.3575993605
 C    0.9364700931    2.4560023378   -0.0495811112
 C    2.0936515630    2.5017075566    0.9757431916
 C    3.3921869909    2.6848334302    0.1501729507
 C    2.8853612670    3.0389681540   -1.2241409535
 C    1.5630399375    2.9178640334   -1.3314849461
 H   -1.9224306675    2.1407135356   -0.4353161277
 H   -1.5796062740    1.8185495219    1.2913665371
 H    1.9078674081    3.3662429874    1.6190937785
 H    2.1190143247    1.6138632930    1.6119790909
 H    4.0536581581    3.4551354611    0.5630147457
 H    3.9810298735    1.7595739302    0.1186290849
 H    3.5483066832    3.3355277145   -2.0299206645
 H    0.9707307780    3.0974521755   -2.2206033440