21

 C   -0.0288207516    1.5251729985    0.0557236047
 C    0.0264680827    0.0294198695   -0.0521056472
 C    0.0096464373   -0.6378719708   -1.2091812706
 C    0.0139667606   -2.1471011029   -1.2850211391
 C   -0.1056788925   -2.7802177570    0.1145907412
 C   -1.4650429262   -2.4500084570    0.7772905599
 O   -1.2677486545   -1.2606185811    1.5562289805
 C    0.0469154425   -0.7708414007    1.2482027942
 C    0.8599468882   -2.0555287874    1.0700094795
 H    0.8500738603    1.9213620095    0.5812086358
 H   -0.0817384015    2.0032748947   -0.9263662450
 H   -0.9059219711    1.8377039525    0.6369108004
 H   -0.0203485821   -0.0941468475   -2.1516267166
 H   -0.8121360387   -2.4894157071   -1.9235400057
 H    0.9323380712   -2.4965809247   -1.7807029705
 H    0.0613447133   -3.8589031507    0.0617247942
 H   -2.2541942552   -2.2858467892    0.0321545482
 H   -1.7950833660   -3.2482006529    1.4535245700
 H    0.3583762611   -0.1499150526    2.0923502709
 H    0.9573881353   -2.5809874477    2.0246700284
 H    1.8531445568   -1.8923604455    0.6448358768