25

 C   -0.0865361892    1.4882423499    0.2265897548
 C    0.2274599283   -0.0092388154    0.1429525846
 C    0.7144754667   -0.4904370378   -1.2432071114
 C    2.1452726926    0.0102977814   -1.5046259375
 C    0.5536425662   -2.0335415058   -1.3683763668
 C   -0.9257505574   -2.4016042572   -1.6149924602
 O   -1.2159879971   -3.7710200475   -1.4273683804
 C    1.4346304287   -2.6486512430   -2.4685056439
 O    1.2712770483   -4.0687177018   -2.5976522199
 H    0.7890011884    2.1096007593    0.0145649205
 H   -0.8706913989    1.7661464561   -0.4865999190
 H   -0.4399925414    1.7558358640    1.2273081289
 H    0.9929741759   -0.2678332072    0.8876069422
 H   -0.6695462250   -0.5661074889    0.4331559563
 H    0.0630470350   -0.0350469582   -2.0051963690
 H    2.4719648244   -0.1716359490   -2.5320669742
 H    2.2142778775    1.0884285505   -1.3351975997
 H    2.8625958425   -0.4738123523   -0.8310306769
 H    0.8514039758   -2.4890804084   -0.4107824330
 H   -1.5742028107   -1.8558015814   -0.9231125450
 H   -1.1976921057   -2.0667910351   -2.6328639399
 H   -0.5970303081   -4.2454113678   -1.9993684734
 H    1.1554698717   -2.2409422939   -3.4471365324
 H    2.4933108651   -2.4173146328   -2.3058904564
 H    1.6401916064   -4.4753738979   -1.8058565583