21

 C   -0.1974152672    1.5798842365   -0.0335856754
 C    0.1221681714    0.0864309260    0.0594653446
 N    0.8075975316   -0.3621311397   -1.1431456692
 C    1.8548223083   -1.0560446766   -1.0480159936
 N    2.5637397818   -1.5853491178   -2.1205085720
 C    3.9122303409   -1.9424565864   -1.6966451294
 C    4.9444366360   -0.8258274517   -1.8879046146
 C    3.6128738219   -2.2562629803   -0.2174765021
 O    2.4879294134   -1.4341959851    0.1112018669
 H    0.7222872035    2.1719732382   -0.0824931483
 H   -0.7798474699    1.7914325435   -0.9352253202
 H   -0.7717181789    1.9104646594    0.8383560937
 H    0.6947660534   -0.1159679233    0.9744740081
 H   -0.8211865797   -0.4713108196    0.1473680998
 H    2.4273444681   -1.1066995200   -2.9979816957
 H    4.2465508330   -2.8463042370   -2.2172082196
 H    4.6653173160    0.0655308680   -1.3167495772
 H    5.9356600084   -1.1532518431   -1.5564840433
 H    5.0219743820   -0.5445596185   -2.9432362756
 H    3.3428999508   -3.3092700252   -0.0766500935
 H    4.4370709052   -2.0015288370    0.4530195064