15

 O   -0.1098446969   -0.0335410709    0.1587733494
 C   -0.1280514065    1.1499231840    0.0395223103
 C   -1.2035452899    2.2476799229   -0.1307058638
 C   -0.0321870458    3.2570256725   -0.0155941446
 C    0.2378397743    4.0280929850    1.2946184029
 N    1.5865098066    3.5636570436    1.6130786494
 C    1.8843836454    2.3198363317    1.0789958209
 O    2.7591694039    1.5681492491    1.4105289458
 N    0.9176193113    2.1235194562    0.0447642936
 H   -1.7336251086    2.2303200692   -1.0847287972
 H   -1.9281864134    2.2674688557    0.6864484254
 H    0.1235262453    3.8876570384   -0.8936720716
 H    0.2115966397    5.1108875269    1.1489461806
 H   -0.4852497206    3.7687213891    2.0818180962
 H    2.0362770252    3.8012634567    2.4833550628