20

 C    0.0566803166    1.5124794176   -0.1320602023
 C    1.5911101849    1.5138258833    0.1377022355
 C    1.4482063448    0.0798573974    0.6782391046
 C    0.0209426919   -0.0241858845    0.1159592738
 C    2.4197803064   -1.0529762376    0.7591764902
 C    3.8084917462   -0.5447313047    1.1687090941
 C    3.1872778053    0.0624776193    2.4703316683
 C    1.8086457491   -0.4477977575    2.0356619346
 H   -0.4987544318    2.0688535912    0.6268432065
 H   -0.2669950595    1.8554757812   -1.1170133870
 H    2.1837817108    1.5656635851   -0.7814883553
 H    1.9641146880    2.2726338744    0.8310360311
 H   -0.7530311349   -0.3972551208    0.7929272660
 H   -0.0284442027   -0.6012363231   -0.8133817072
 H    2.2117589443   -2.0060255679    0.2844749611
 H    4.5149277711   -1.3489497326    1.3856055561
 H    4.2847045438    0.1562554356    0.4746596137
 H    3.5594866274   -0.4307715912    3.3710420155
 H    3.2812009670    1.1453143617    2.6067710901
 H    1.0524336516   -0.8596833767    2.6955602107