14

 O    0.0202818420    0.0127883673   -0.0838144009
 C    0.0060054592    1.2121115160   -0.0310568247
 C   -1.2495785498    2.0981390341   -0.0100976552
 N   -0.7079822394    3.4456978778   -0.0172874924
 C    0.6585907452    3.5580936949   -0.0190274088
 O    1.3021774574    4.5810290073   -0.0311875376
 C    1.1879896828    2.1414055626    0.0240946731
 C    2.4544331066    1.7966685561    0.7047495342
 O    2.3651730554    1.8154241517   -0.7057547424
 H   -1.8727500221    1.8806698598   -0.8860849157
 H   -1.8422214493    1.8800499226    0.8874370900
 H   -1.2824942285    4.2740548538   -0.0182020248
 H    3.0199209224    2.6126796746    1.1504618334
 H    2.5399562081    0.8111895714    1.1588423419