18

 C    0.0112701129    1.5063045562    0.4416174343
 C    1.4684506830    1.4630691438   -0.0625850014
 C    2.5236981263    1.2359114744    1.0096364983
 C    2.2509083075    0.1243007422    1.9906658682
 C    1.2822536293   -0.7946847801    1.9958095204
 C    0.1523711513   -1.0138196113    1.0222301710
 C   -0.0249819965    0.0462140912   -0.0546549070
 O    1.2002414726    0.2460927402   -0.8053116875
 H   -0.1489522140    1.6811476912    1.5066879966
 H   -0.6233605020    2.1719492502   -0.1455752047
 H    1.7764728087    2.2731649243   -0.7331416236
 H    3.4859808941    1.0381392429    0.5144776095
 H    2.6686044965    2.1772076733    1.5612052349
 H    2.9777222048    0.0732745046    2.8001626963
 H    1.2995216571   -1.5188738102    2.8090741309
 H    0.2965030545   -1.9877883756    0.5314195951
 H   -0.7921437358   -1.1060766740    1.5795855568
 H   -0.8538864702   -0.2223195032   -0.7191743081