17

 N   -0.2185558010    1.1869640824    1.0377126477
 C    0.0209977322   -0.0827988659    0.6304898609
 O    1.0170293631   -0.7136233356    0.9389023625
 C   -1.0533384538   -0.6961405214   -0.2595746764
 N   -2.0422054025    0.0850306899   -0.4978404854
 O   -3.0250115307   -0.4772048069   -1.3123281770
 C   -0.7862805113   -2.0790646162   -0.7008209681
 C   -1.8613610202   -3.1445368170   -0.8618753201
 C   -1.1561940153   -2.6217441764   -2.0740191217
 H    0.4586099805    1.6372236417    1.6283592068
 H   -1.0593960004    1.6587448192    0.7532159259
 H   -3.6720328200    0.2330602178   -1.3822350251
 H    0.1576972405   -2.4256183533   -0.3011053599
 H   -1.6085727726   -4.1319032712   -0.4921240363
 H   -2.8906763475   -2.8487642835   -0.7154777896
 H   -1.7141047701   -1.9765858942   -2.7380147212
 H   -0.4082575210   -3.2421559192   -2.5548339432