19

 C    0.1703778409    1.5757803306   -0.0484560221
 C   -0.0394814891    0.0449982148    0.0352575961
 C    0.6837790583   -0.5058457760    1.1845226930
 C    1.3004882039   -0.9237675891    2.1271736616
 N   -1.4430012143   -0.4052542579    0.0562001554
 C   -2.2261116736    0.0401309572    1.2028831776
 C   -2.1195533271   -0.1874679176   -1.2111194566
 C   -3.3144546771   -1.0342631289   -1.3388155259
 N   -4.2630547850   -1.6841114126   -1.4475907524
 H    1.2369936590    1.8009733787   -0.1271910201
 H   -0.3306780080    1.9903534769   -0.9284982881
 H   -0.2148640172    2.0763990655    0.8429833594
 H    0.3992827901   -0.4001847130   -0.8684031272
 H    1.8431009938   -1.3100116670    2.9546269406
 H   -2.4620816555    1.1184506196    1.1856330127
 H   -3.1702615645   -0.5110093267    1.2281445689
 H   -1.6761913548   -0.1824634128    2.1192886189
 H   -2.4388944173    0.8585150462   -1.3794330298
 H   -1.4386742125   -0.4452021479   -2.0305034220