25

 C    0.3994542064    1.4708543578    0.2277400544
 C    0.1691416863   -0.0401908049    0.1225201768
 C    0.4814416278   -0.5606910973   -1.2737115368
 O    1.8731826493   -0.3770825120   -1.6260344510
 C    2.0782283512   -1.8032511323   -1.8477735476
 C    2.4842025528   -2.0624136724   -3.2942466303
 C    3.1188143413   -2.3451336842   -0.8739545942
 C    0.5746276142   -2.0890359642   -1.5321481010
 C    0.1894560888   -3.0754894591   -0.4372593125
 H    1.4319792111    1.7148275548   -0.0372747055
 H   -0.2605430634    2.0206656889   -0.4526041027
 H    0.2099902056    1.8321763863    1.2429204646
 H    0.7957298979   -0.5576586157    0.8578752106
 H   -0.8742103736   -0.2829973570    0.3645785206
 H   -0.1639359009   -0.0391524515   -1.9966293076
 H    3.4616301936   -1.6155917421   -3.5040341889
 H    2.5498310276   -3.1378194052   -3.4948039824
 H    1.7555712131   -1.6256259383   -3.9831472809
 H    2.8513030942   -2.1285522263    0.1627982020
 H    3.2391719876   -3.4283938536   -0.9833753111
 H    4.0866674373   -1.8741313298   -1.0743806700
 H    0.0407472389   -2.3614554528   -2.4476256245
 H    0.6761952264   -2.8626132004    0.5173863167
 H   -0.8924444017   -3.0596768361   -0.2674550429
 H    0.4581192781   -4.0974585427   -0.7258971157