19

 C    0.0203009386    1.5084826270    0.0242048544
 C    1.3276919116    0.7250012476    0.0193454002
 C    0.0095701953    0.0191592175   -0.0412887073
 O   -0.4245001375   -0.7180932015    1.1066275797
 C   -1.1462948998   -1.8404605041    0.5724944889
 C   -2.4276092884   -1.2996200089   -0.0784894249
 O   -1.9362078849   -0.6430600306   -1.2662666775
 C   -0.5072809360   -0.7893297752   -1.2191323465
 C   -0.3269694093   -2.2152420370   -0.6741498630
 H   -0.2825352887    1.9591224679    0.9626833395
 H   -0.2597091439    2.0676257067   -0.8624007914
 H    1.9516458721    0.7545447147   -0.8683396373
 H    1.8701546461    0.6596879629    0.9561699253
 H   -1.2816612660   -2.5811938783    1.3592631689
 H   -3.1355270873   -2.0906957444   -0.3576992029
 H   -2.9279910211   -0.5766078915    0.5741636379
 H   -0.0926744184   -0.5341095260   -2.1931683815
 H    0.7044038061   -2.4778542440   -0.4343504087
 H   -0.7893800186   -2.9729054029   -1.3090721239