20

 C   -0.1009794760    1.5177793894    0.3197447122
 C    0.1841330517    0.0140141338    0.2620613194
 C    0.6824808058   -0.4510277671   -1.1018485649
 C    0.6160552111   -1.9753147320   -1.3825341766
 C   -0.3561935414   -1.5910291968   -2.5124016701
 O   -0.2846565072   -0.1874439632   -2.1641524019
 C    2.0605542793    0.1522944256   -1.4106631077
 N    2.1110052504    0.8541554229   -2.5689499978
 O    3.0046973739   -0.0238631840   -0.6620900584
 H    0.8116627960    2.1032605964    0.1696915335
 H   -0.8219107806    1.8028394229   -0.4521247547
 H   -0.5166041807    1.7951160745    1.2926121631
 H    0.9474136358   -0.2629078676    0.9968247973
 H   -0.7264218768   -0.5479356290    0.5002279046
 H    1.5557028819   -2.4355254115   -1.6878019908
 H    0.1778323234   -2.5558170590   -0.5690685339
 H    0.0064573229   -1.7738737413   -3.5306465737
 H   -1.3783749652   -1.9742095526   -2.4241718715
 H    1.2652397581    0.9825667106   -3.0997047135
 H    2.9665896975    1.3150581282   -2.8291000244