21

 C   -0.0147173544    1.5607257596   -0.0315731788
 C    0.1554567880    0.0395627667   -0.1295266945
 C    0.7567263002   -0.5556557664    1.1376873392
 C   -0.0918166486   -0.7447809422    2.4473483581
 C   -0.7636746516   -1.9872327824    1.7747998583
 C    0.7523549084   -2.1015397310    1.4025072897
 C    1.0136544121   -1.7238557015    2.8674351669
 C    2.1622826584   -1.6957323975    3.7576438096
 O    1.0260490511   -2.5740092879    3.9828489432
 H    0.9399279691    2.0533353686    0.1842846696
 H   -0.4001457154    1.9775576531   -0.9670948544
 H   -0.7134618516    1.8307250605    0.7673967315
 H   -0.8079087207   -0.4182754414   -0.3733926921
 H    0.8230055345   -0.1966616137   -0.9686645946
 H    1.7324127167   -0.0895823496    1.3259411675
 H   -0.5678215572    0.0249681736    3.0550585551
 H   -1.1490965111   -2.7493067094    2.4544306116
 H   -1.4628798527   -1.7951963101    0.9614695357
 H    1.2395696282   -2.8789293172    0.8132681320
 H    3.0853229236   -2.2046806294    3.4837266539
 H    2.2744810029   -0.8972374625    4.4896809827