25

 C    0.0912529855    1.3369489520   -0.2623713397
 O    0.0124468028   -0.0190303340    0.0989278876
 C   -1.2859243689   -0.5542774229   -0.0536731585
 C   -1.2479192480   -2.0198555309    0.3729927412
 C   -2.5608568041   -2.7564750257    0.1519459607
 C   -3.7279580375   -2.2433044442    0.9805465116
 C   -2.8737008518   -3.2666737402   -1.2411676602
 C   -2.5505667837   -4.2467226039   -0.1364566482
 C   -1.3037411661   -5.1035534066   -0.1773057483
 H    1.1247629961    1.6588239893   -0.1108318739
 H   -0.1785081807    1.4969038426   -1.3190433960
 H   -0.5701309821    1.9661924471    0.3553241189
 H   -2.0041913175    0.0202440658    0.5544708648
 H   -1.6153470692   -0.4721063070   -1.1041143524
 H   -0.4383855340   -2.4958474026   -0.1876982041
 H   -0.9629717233   -2.0667238237    1.4320371859
 H   -3.9813419090   -1.2060022494    0.7348623458
 H   -4.6257097694   -2.8458802559    0.8106029951
 H   -3.4982622928   -2.2828417986    2.0523946388
 H   -3.8936848709   -3.2002863010   -1.6062198038
 H   -2.1202188864   -3.1217755988   -2.0102234478
 H   -3.4118226406   -4.7716818912    0.2719787205
 H   -0.4641530266   -4.5944596102   -0.6580570249
 H   -0.9829036773   -5.3963038771    0.8289822513
 H   -1.4913862343   -6.0221298030   -0.7446037743