24

 C    0.8095821186   -0.1913513423   -1.2970098576
 C   -0.0352948554   -0.0371411765   -0.0268879338
 C    0.6010163192   -0.6374275956    1.2343489005
 C    1.9360983305    0.0247692445    1.6210859146
 C    1.8581355117    1.5292953550    1.9016793509
 C   -0.3250142093   -0.8174327727    2.4789179526
 N   -0.0307539578   -2.2927025898    2.5762937151
 C   -0.5472018907   -2.8781671089    1.3274397603
 C    0.7458500820   -2.1695355686    1.2742895908
 H    1.0560149842   -1.2433044662   -1.4790258226
 H    0.2666442668    0.1773633767   -2.1726024985
 H    1.7503044411    0.3646384329   -1.2368242841
 H   -0.2545815982    1.0237349335    0.1473272839
 H   -1.0085971231   -0.5129429038   -0.1918563367
 H    2.3211474460   -0.4890000651    2.5106403640
 H    2.6727989230   -0.1601311749    0.8291345426
 H    1.5977287587    2.1017235755    1.0061828505
 H    1.1104489192    1.7572306408    2.6693728293
 H    2.8216662646    1.9038289282    2.2605208220
 H    0.0252527030   -0.3028620349    3.3764882572
 H   -1.3890640621   -0.5961855538    2.3364981472
 H   -0.5192910217   -3.9639489850    1.3268495407
 H   -1.4378955612   -2.4515668659    0.8714606408
 H    1.6842775008   -2.6993237530    1.1314308202