20

 C   -0.1088424288    1.5309915046    0.0033734786
 C    0.0431640128    0.0147533838   -0.0081278439
 C    0.9107076531   -0.5566695623   -1.1686702378
 C    1.9475649560   -1.2850662229   -0.3252256360
 C    1.1943107121   -1.8903520661    0.9044524190
 C    2.4095919138   -1.6424675183    1.8026471479
 O    3.4961355485   -2.5040271416    1.5898356789
 C    2.2462553618   -0.3855308788    0.9147523644
 N    0.7472602316   -0.4640386979    1.2150289172
 H    0.8681751003    2.0271183588   -0.0092450970
 H   -0.6647634466    1.8704583295   -0.8764441544
 H   -0.6433762250    1.8591678866    0.8992744599
 H   -0.9522421112   -0.4444759383   -0.0024221652
 H    0.3559408264   -1.2305165045   -1.8291208060
 H    1.3542468316    0.2292784053   -1.7898246283
 H    2.7487905373   -1.8404215388   -0.8116721983
 H    0.4875788984   -2.7230237102    0.9247112965
 H    2.1805879707   -1.4920590712    2.8631068117
 H    4.2338226305   -2.1943083182    2.1237381912
 H    2.7887605568    0.5618253507    0.9539182517