21

 C    0.3960066104    1.5146972692    0.0849025017
 C    0.2263238249    0.0258523812   -0.0555701829
 C   -0.1248234466   -0.6130949150   -1.2000228936
 C   -0.2558097622    0.0932350321   -2.5365007157
 C   -0.4428756365   -2.0322295816   -1.2445560302
 C   -1.0466146369   -2.7821150154   -0.2838802054
 C   -1.4441937839   -2.3172946551    1.0229661578
 C   -0.8011820882   -1.3496247786    1.7020360788
 C    0.4999286159   -0.7878464143    1.1951329873
 H   -0.1916101394    1.8823035879    0.9351645376
 H    1.4419168994    1.7722469008    0.3025625155
 H    0.0817010590    2.0764409231   -0.7952191928
 H    0.2871425650    1.0388622162   -2.5759092624
 H    0.1385763639   -0.5441780588   -3.3358676392
 H   -1.3043135080    0.2967908968   -2.7879855794
 H   -0.3134330600   -2.5048918823   -2.2173437539
 H   -1.3482754255   -3.7908477920   -0.5580271462
 H   -2.3252888662   -2.7805002258    1.4618505559
 H   -1.2107146101   -0.9714097485    2.6348122622
 H    1.1802930915   -1.6152981389    0.9527775912
 H    0.9835438436   -0.1689041811    1.9558177037