14

 N    0.0507833652    1.4495030156    0.1392370127
 C   -0.0290400870   -0.0096978384   -0.0128628427
 C   -1.4474037766   -0.4161248677    0.0303164482
 N   -2.5539295782   -0.7454015261    0.0482744417
 C    0.6468681446   -0.5771072665   -1.2259238687
 C    1.6954596732   -1.4104842125   -1.4336541058
 N    1.9198366921   -1.5385428886   -2.7990537563
 C    1.0139724081   -0.7912264730   -3.3364211787
 O    0.1978052095   -0.1675563046   -2.4547255284
 H    1.0297936129    1.7221752582    0.1465657716
 H   -0.3715962906    1.8957124023   -0.6703960946
 H    0.4590022122   -0.4621064834    0.8587269991
 H    2.3005077399   -1.9288814364   -0.7066085802
 H    0.8286512646   -0.6047903988   -4.3825040678