23

 C   -0.1177276518    1.6409917247    0.1732094267
 C    0.0132575577    0.1234565268    0.1333151871
 C    1.1479480437   -0.5874345995   -0.6763299342
 C    2.1429760768   -0.1644483745    0.4430619085
 C    0.8671636928   -0.6693459846    1.1833210777
 C    0.6440823982   -0.7414884376    2.6672297448
 O    1.6567212865   -1.5692894588    3.2250903299
 C    0.8849560573   -1.8728727317    0.1757774332
 C   -0.3181127582   -2.7797270808   -0.0416197818
 H    0.8269351341    2.1648016494    0.3376339212
 H   -0.5351487056    2.0069182155   -0.7718466970
 H   -0.8071166947    1.9477565919    0.9683585640
 H   -0.9800950212   -0.3017531756   -0.0329790880
 H    1.3139264239   -0.5371256946   -1.7544413636
 H    3.0366096941   -0.7819656486    0.5587120841
 H    2.3897916670    0.8941005925    0.5285370346
 H    0.6749854669    0.2736166450    3.0971500483
 H   -0.3611073471   -1.1494586046    2.8681791940
 H    1.5168386306   -1.6149444550    4.1754045348
 H    1.7819282170   -2.4901905468    0.2914265729
 H   -1.2621466826   -2.2468128527   -0.1790745928
 H   -0.1640649251   -3.4051798701   -0.9281457741
 H   -0.4409029603   -3.4547408502    0.8129319697