20

 C    0.2194752970    0.6913135275   -1.2776372401
 O   -0.1657223980    0.3085032922    0.0256415736
 C   -1.3645389108   -0.4500346595    0.0799710286
 C   -1.1867126286   -1.7690950516   -0.5458020991
 C   -1.0178070609   -2.8421525330   -1.0617179685
 C   -1.7861120798   -0.5516497733    1.5633786633
 C   -1.9342538472    0.8478502681    2.1724012304
 C   -3.0754421367   -1.3659654892    1.7204326798
 H    1.1270445159    1.2908593085   -1.1767204577
 H    0.4313570813   -0.1787641651   -1.9134100195
 H   -0.5579444106    1.2999413587   -1.7656155576
 H   -2.1602105606    0.0868495342   -0.4688097368
 H   -0.8739726010   -3.7908527838   -1.5172746922
 H   -0.9715463437   -1.0756463073    2.0787373868
 H   -2.7438392592    1.4023869867    1.6818218678
 H   -2.1806080701    0.7757164276    3.2363653740
 H   -1.0142333408    1.4244336163    2.0654692941
 H   -3.3441217734   -1.4494650709    2.7778880224
 H   -3.9127693778   -0.8797145193    1.2052128816
 H   -2.9693528449   -2.3749605869    1.3145610089