21

 C   -0.4203972081    1.2861365887   -0.1230521714
 C    1.0581043937    1.1383134797    0.1344465905
 C    0.1654696894   -0.0764797604    0.1559572049
 C   -0.1977042724   -0.8354282609    1.4065838145
 C    0.8957619141   -1.5667889273    2.1603595965
 C    0.2443283393   -0.3486484893    2.7621815546
 C   -1.5190521002   -1.5352629645    1.2645930158
 C   -2.4265665899   -1.8889879954    2.3626916936
 O   -2.7145744124   -0.7816366226    1.5102472227
 H   -1.0243857388    1.7293321922    0.6605382023
 H   -0.7549938580    1.5125311833   -1.1291917352
 H    1.7406385654    1.2414843765   -0.7020955511
 H    1.4518258235    1.5246050912    1.0677110731
 H    0.2614582364   -0.7258449946   -0.7125855133
 H    0.6621031745   -2.5356806755    2.5888567816
 H    1.9093094732   -1.4697453477    1.7866605781
 H    0.8241477153    0.5650920858    2.8145987882
 H   -0.4215847805   -0.4831155296    3.6059656284
 H   -1.5861654787   -2.1509308220    0.3639798476
 H   -3.0833411398   -2.7519503106    2.2523988803
 H   -2.1800534759   -1.6362001569    3.3920534884