15

 N    0.0496838387   -1.1376409841   -0.0336671588
 C    0.0438538629    0.0182931039   -0.0249230958
 C    0.0176416425    1.4620726574    0.0160923077
 C   -0.3125682745    2.2725943008    1.3213609364
 C    0.4848884782    3.3372042312    0.5030553065
 N    1.3148855611    2.2299438563   -0.1006461750
 C   -0.5221625347    3.6065541132   -0.6443449168
 O   -0.1513481423    3.0603197272   -1.9122980356
 C   -0.8732127199    2.2369071791   -1.0108320398
 H   -1.3645988052    2.4572852262    1.5634016872
 H    0.2279749550    1.8980265702    2.1941326041
 H    1.0072175829    4.1757706356    0.9583375759
 H    1.9226478640    1.8797848878    0.6413804091
 H   -1.1951590356    4.4559362465   -0.6405578380
 H   -1.8406938033    1.8573486788   -1.3171294870