20

 C   -0.0622907630    0.9110416060   -2.0458564301
 C   -0.0048643379   -0.2241928059   -1.0468340066
 C    1.2712280230   -0.6319722045   -0.3072251427
 C    2.6034947870    0.0591832695   -0.5007918975
 C    0.1368607964    0.0198753015    0.4262842087
 C    0.1630654137    1.3816223340    1.1318232036
 N   -0.6182287699    1.1747082089    2.3655679368
 C   -0.9877738817   -0.0368845820    2.3357003129
 O   -0.6381563670   -0.8284595081    1.2957780957
 H    0.5694136106    1.7550883968   -1.7553839380
 H    0.2694951501    0.5783985666   -3.0351673031
 H   -1.0854915954    1.2884845137   -2.1486537806
 H   -0.6540706734   -1.0620726311   -1.2881848653
 H    1.3471002133   -1.7015532618   -0.1283338517
 H    2.4976065340    1.1389274871   -0.6378308595
 H    3.2539503273   -0.0981871411    0.3664523465
 H    3.1234741544   -0.3336040945   -1.3810239276
 H    1.1770576174    1.7097360848    1.3878471045
 H   -0.2936998799    2.1797003942    0.5353134695
 H   -1.5852753592   -0.5313997141    3.0935829844