14

 N    0.0144238722   -1.1792206033   -0.0848432468
 C    0.0065945752   -0.0221006839   -0.0505800106
 C   -0.0116077066    1.3984635313    0.0126609973
 C    0.2727601373    2.2834993235   -1.1831930568
 C    1.1545898472    2.4375899324    0.0159841006
 N    0.4568008859    3.2739675547    1.0080987624
 C   -0.6090686388    2.2280756002    1.1612803045
 C    2.5653960315    2.2381527730    0.0228355208
 N    3.7129294786    2.0924456447    0.0553233067
 H    0.7094360426    1.7635909735   -2.0280735157
 H   -0.4052316695    3.0982760383   -1.4180057572
 H    1.0007101727    3.3678610188    1.8593817023
 H   -1.6246641821    2.6036961638    1.0097092384
 H   -0.5490340362    1.6935519330    2.1119368540