17

 O   -0.0964859139    1.4091026001    0.1833167522
 C   -0.0119554671    0.0360362768    0.0831834733
 C   -0.8258536447   -0.8345967390    0.9726055730
 C    0.6868884223   -0.9958783255    0.9612663650
 C    1.2325429061   -1.7069302758   -0.2973082365
 C    0.2169614639   -2.1553939412   -1.2757467265
 C    0.5059847520   -0.6633453693   -1.2103736941
 C    1.1446980915    0.0201820223   -2.3330182732
 O    1.6966637185   -0.5358944836   -3.2606298893
 H    0.7821298581    1.7869310274    0.0569220693
 H   -1.1753640057   -0.3066859939    1.8547046463
 H   -1.5146679266   -1.5927698987    0.6160551499
 H    1.2767874905   -0.8559471900    1.8571561519
 H    2.2800638451   -1.9562006633   -0.4095342655
 H    0.6162455009   -2.5998278579   -2.1822843456
 H   -0.7501896069   -2.5359974340   -0.9710275124
 H    1.1029699960    1.1314176156   -2.2831534079