16

 C    0.0739116771    1.5338648997    0.0647511566
 C   -0.1044577247    0.0037443669   -0.0258127235
 O   -1.4602220561   -0.3510092176   -0.0936332766
 C    0.6944875048   -0.5590018792   -1.1862296913
 N    0.2551305020   -0.5779839979   -2.3665303477
 O    1.9030966064   -1.0340664546   -0.7710292380
 C    1.9645136819   -1.1172529522    0.6605014979
 C    0.6034270609   -0.6396577825    1.1749546266
 O    0.2014050384   -0.7414853672    2.2982733889
 H    1.1257077188    1.8260465371    0.1548049379
 H   -0.3353699865    1.9884611771   -0.8410620617
 H   -0.4729400623    1.8971495049    0.9380974957
 H   -1.6588926754   -0.4438581371   -1.0367274407
 H    0.9039871076   -1.0220386328   -3.0164596190
 H    2.1584935973   -2.1512161832    0.9608110984
 H    2.7752895798   -0.4826989015    1.0348822963