15

 C    0.0534951972    1.4867149524    0.0096402871
 O    1.2204262875    0.6193935800   -0.0069880276
 C   -0.0402442767    0.0379320417    0.0026879991
 C   -0.6282826503   -0.9957541709    1.0085968582
 N   -1.7577966427   -1.0655276411    0.0141800983
 C   -0.6487811090   -0.9847665757   -1.0022469315
 C    0.2276508773   -2.2094880390   -0.6816118634
 C    0.2412050586   -2.2168655768    0.6567971843
 H   -0.0939097579    2.0410639638    0.9345851035
 H   -0.1126683912    2.0511132506   -0.9060006405
 H   -0.8637338620   -0.7690771193    2.0474774658
 H   -2.1749303369   -1.9980849740    0.0133406806
 H   -0.9053413438   -0.7467840622   -2.0335734290
 H    0.7454771671   -2.8399118421   -1.3895722191
 H    0.7732060927   -2.8549886274    1.3471299843