15

 N   -0.0176273474    1.4263380359   -0.0491320078
 C    0.0012005081    0.0464118767   -0.0373620204
 C   -1.1955540116   -0.6837216516   -0.0507387306
 C   -1.1051840125   -2.0675247479   -0.0934744222
 O   -2.2451847319   -2.7923979990   -0.1066985999
 N    0.0388541397   -2.7529679397   -0.1200467998
 C    1.1640388392   -2.0366615756   -0.1050021116
 O    2.3231382165   -2.7302653470   -0.1299057639
 C    1.2171712915   -0.6509067309   -0.0629953574
 H    0.8202123752    1.8905576113    0.2642721617
 H   -0.8645551537    1.8676434634    0.2728310470
 H   -2.1638947049   -0.2001746738   -0.0347898303
 H   -1.9692142640   -3.7182149952   -0.1365434790
 H    2.0721591811   -3.6632492525   -0.1570736436
 H    2.1721154147   -0.1412016142   -0.0568166723