23

 C   -0.0897220913    1.8284201323   -0.9308289286
 C    0.0246480467    0.3705488972   -0.4698079922
 C    0.8234567140   -0.5493921836   -1.4133391454
 C    2.3153594634   -0.2051555766   -1.3963906719
 O    2.9621089359   -0.9687160164   -2.4066012254
 C    0.6295376405   -2.0415747309   -1.0791016016
 C   -0.7571576826   -2.5990727690   -1.4460808386
 C   -0.8207214861   -4.0951557471   -1.2433854275
 O   -1.6236505966   -4.6692108681   -0.5536196753
 H    0.8827789736    2.3272546008   -0.9819919838
 H   -0.5462714630    1.8914225504   -1.9247959846
 H   -0.7148944182    2.4049113569   -0.2419747929
 H    0.4759914795    0.3321469640    0.5315326614
 H   -0.9863380285   -0.0352252155   -0.3545260215
 H    0.4749125189   -0.3844689053   -2.4433656384
 H    2.4579461886    0.8701325779   -1.5745721509
 H    2.7298277703   -0.4322030167   -0.3994960162
 H    3.9060785472   -0.7930726041   -2.3606461920
 H    1.3955374109   -2.6105840880   -1.6160822198
 H    0.8126416798   -2.1984645714   -0.0072007445
 H   -1.5651697495   -2.1418827859   -0.8690840735
 H   -0.9455816256   -2.4051939714   -2.5126908036
 H   -0.0324969280   -4.6619882896   -1.7943936331