15

 N    0.0152662792    1.3904699790   -0.1945993292
 C    0.0022364331   -0.0137262319   -0.1012521582
 N   -1.1168804448   -0.6686485025   -0.3047052411
 N   -1.1285344349   -2.0078616475   -0.2761909382
 C    0.0225019003   -2.6210468765    0.0054647820
 N   -0.0214392199   -3.9858554312    0.1460601153
 H   -0.8366804538   -4.4265124363   -0.2499956474
 H    0.8540620715   -4.4657557530    0.0144483499
 N    1.2248849708   -2.0340085770    0.1837802093
 C    1.2215367838   -0.7178284603    0.1173784988
 N    2.3888051032   -0.0227604892    0.2864478983
 H   -0.9248991972    1.7239017386   -0.3820966855
 H    0.3645732093    1.8305846782    0.6515478249
 H    3.2281556239   -0.5814278052    0.2305631576
 H    2.4298434655    0.8750033148   -0.1744445665