12

 N   -0.1142758912    1.2295627319   -0.4901391394
 C   -0.0378235470    0.0619880696   -0.0714330014
 O    1.0289164670   -0.6927192949    0.3888109366
 C    0.1862829033   -1.8486757189    0.6574513688
 C    0.1823897483   -2.2228504476    2.0651077398
 N    0.1859155858   -2.5448548587    3.1738915233
 C   -1.0542366971   -1.0695408238    0.0993299952
 C   -2.1878729566   -0.8348146369    0.9723785571
 N   -3.0949378686   -0.6557842722    1.6639885272
 H    0.7804567298    1.7196667731   -0.4781270085
 H    0.4887639144   -2.6992666548    0.0422779445
 H   -1.3941314482   -1.4699478668   -0.8589275933