21

 C   -0.0319988560    1.5842929363    0.1469008829
 C    1.5257546404    1.6141826753    0.1328126735
 C    1.5569174141    0.0710474751   -0.0661221647
 C   -0.0075397108    0.0410227951   -0.0519206170
 C   -0.3584669192   -0.5979228598   -1.4417873158
 C    0.7938625471   -1.6360167681   -1.5264979470
 C    1.9068180579   -0.5543995235   -1.4623693493
 C    1.4146535695    0.3843805872   -2.5531893968
 C    0.0773737671    0.3586577209   -2.5410638596
 H   -0.4765314006    1.9006642803    1.0938183170
 H   -0.5097545728    2.1461876863   -0.6594221530
 H    1.9669342841    2.1937220788   -0.6818191903
 H    1.9748865754    1.9476862663    1.0716465415
 H    2.0571062154   -0.4838080329    0.7314449568
 H   -0.4715197182   -0.5323120429    0.7544151949
 H   -1.3776836338   -0.9792009760   -1.5191769199
 H    0.8149160360   -2.3314812314   -0.6798182727
 H    0.7961085546   -2.1966378216   -2.4648117579
 H    2.9383521725   -0.8962760660   -1.5584066003
 H    2.0524832212    1.0139018332   -3.1611335468
 H   -0.5951075040    0.9629795874   -3.1371207056