15

 C   -0.2022149895    1.5222804184    0.0472863838
 C   -0.0347902697    0.0378233251   -0.0808403009
 N   -0.0961510010   -0.5556324065   -1.1978542757
 C    0.1875096548   -1.9769781523   -1.2751306880
 C    0.2326858477   -2.7452333747    0.0338327515
 O    0.4186550705   -3.9352121018    0.1020083845
 C   -0.0344199664   -1.9209603164    1.2839526409
 O    0.2087320407   -0.5232724318    1.1422055965
 H    0.6766309319    1.9556357633    0.5354061676
 H   -0.3309515665    1.9641688822   -0.9395631996
 H   -1.0673860120    1.7560710275    0.6758892884
 H   -0.5481859486   -2.4659460757   -1.9267476539
 H    1.1538232783   -2.1247606281   -1.7775890831
 H   -1.0864837301   -2.0802055341    1.5654409889
 H    0.5906979998   -2.2820095649    2.1033081991