15

 N   -0.1498722052    1.4413974450   -0.2117717285
 C   -0.0807702469    0.0110084317   -0.0579283650
 C    0.9917917800   -0.6060124510   -0.7971182390
 C    1.9027981611   -1.1219007169   -1.3873924413
 C   -0.4668473397   -0.7380674051    1.2001625913
 O   -1.4756668724    0.0173782348    1.9109661624
 C   -2.3683087317   -0.1673295669    0.8426462731
 N   -3.5810549887    0.1227730839    0.7454481849
 C   -1.3629495721   -0.8559093432   -0.0181545819
 H   -0.8124115027    1.8247930809    0.4564690938
 H    0.7577893263    1.8431378703    0.0055700050
 H    2.7037525111   -1.5720717002   -1.9205182190
 H    0.1112293139   -1.4608972023    1.7598226825
 H   -3.9293743302    0.5685333052    1.5958115598
 H   -1.5442805928   -1.6563153562   -0.7190930981