16

 C    0.1287803602    1.4720562013   -0.0499423527
 C   -0.1417331976   -0.0201038415    0.1084325391
 N    0.5704420734   -0.5491236091    1.2669370357
 C    0.8110085416   -1.8605725730    1.4526608350
 N    1.2657867720   -2.4360523451    2.5407665905
 C    1.3495853121   -3.7368850547    2.1264504485
 O    1.7831531533   -4.7038607398    2.9369278328
 N    0.9847818069   -4.0010307779    0.8977231985
 O    0.6063139611   -2.6970023796    0.4327455906
 H    1.1963164688    1.6645175986   -0.1885845072
 H   -0.4105016709    1.8618479417   -0.9171660543
 H   -0.2095960756    2.0324186730    0.8290860697
 H   -1.2220958268   -0.2043672535    0.1952059388
 H    0.2049813057   -0.5680569852   -0.7712419449
 H    0.5917217968    0.0050862290    2.1087268908
 H    1.9981298788   -4.2845627343    3.7787656691