10

 C    0.0215736508   -1.1939831076   -0.0042281306
 C    0.0242311230    0.0088112494    0.0023591105
 C   -0.0181550907    1.4275576751    0.0107992168
 C   -1.2256639240    2.1368327054    0.0307428641
 N   -1.2264372949    3.4579297813    0.0380939896
 N   -0.0560434660    4.0945123867    0.0261208570
 N    1.0831968737    3.4344103586    0.0073522241
 N    1.1344020074    2.1108630561   -0.0006790196
 H    0.0348189311   -2.2566017918   -0.0101997381
 H   -2.1892537002    1.6368640868    0.0407460462