19

 C    0.0128285984    1.5538455045   -0.0163202655
 C   -0.0088222275    0.0223923214    0.0537035609
 C    0.7875615839   -0.5203084231    1.2461381226
 N   -1.3794390884   -0.4895176846    0.0536935542
 C   -2.3759528317   -0.2847243782    1.0046839885
 N   -3.5056198549   -0.8397175001    0.7834779562
 C   -3.3454934430   -1.5502263402   -0.4880850005
 C   -1.9094988000   -1.2968901297   -0.9537471741
 O   -1.3242999062   -1.6763105640   -1.9407199765
 H    1.0430152443    1.9116898961   -0.1020467518
 H   -0.5486427676    1.9129746077   -0.8829118104
 H   -0.4206955887    2.0024961059    0.8843019425
 H    0.4162055772   -0.3815403307   -0.8708050218
 H    1.8303400515   -0.1963206555    1.1803694459
 H    0.3854435844   -0.1538242040    2.1970985028
 H    0.7680299428   -1.6132476348    1.2637622412
 H   -2.1646872731    0.3231484780    1.8782941810
 H   -3.5275977211   -2.6233041476   -0.3641543007
 H   -4.0625599903   -1.1887303510   -1.2331621646