11

 O    0.2949589389   -0.0448271215   -0.1745054457
 C    0.1057043295    1.1299251271   -0.2168341038
 O   -1.1421234729    1.5911984299   -0.6242793536
 C   -1.5050772073    2.8997277983   -0.7949530006
 N   -0.7945925458    3.8895627979   -1.1135414016
 C    0.5848871063    3.7223234940   -1.3608599313
 O    1.1058123584    4.0014604532   -2.4007065056
 N    1.3346837154    3.2936765612   -0.2343123359
 C    1.1183924415    2.1427059894    0.2507107416
 H   -2.5790543013    2.9934891420   -0.6581189262
 H    1.7355143972    1.7789578484    1.0727872926