15

 N    0.2940910621   -0.0505526200    0.9806105050
 C   -0.2291354167    0.5454617276   -0.1174983424
 O    0.1292648779    1.6095516350   -0.5824748399
 C   -1.3512852099   -0.2434728176   -0.7864596467
 C   -1.0074531535   -0.8427516017   -2.1671884577
 C   -1.2140230475   -2.2102463978   -1.4638283525
 O   -1.5728278812   -1.5657353756   -0.2212582081
 C   -2.2871176290   -3.0590729722   -1.9837687718
 N   -3.1264722566   -3.7283086078   -2.4109845958
 H    1.0067207457    0.4266781884    1.5072764416
 H   -0.0885610125   -0.9216811399    1.3088050532
 H   -2.2627911651    0.3611276590   -0.7555147966
 H   -1.7245999580   -0.6259272005   -2.9568011582
 H    0.0042590627   -0.6504095026   -2.5211881980
 H   -0.3070225384   -2.8156657344   -1.3542847322