20

 C   -0.0509017181    1.4567215623   -0.0201246795
 C    0.0339488153   -0.0368270336    0.0529230232
 C   -0.5498184943   -1.1128986713   -0.8233971104
 N    0.5016156554   -2.0925166357   -0.3241451597
 C    1.2503970867   -0.9295399683    0.3609397297
 C    1.0470143782   -1.5969934861    1.7319801934
 C   -0.2119542753   -2.1513576239    1.0432915171
 C   -1.0871972957   -0.9735645769    0.5760538061
 C   -2.4217743824   -0.5241922894    1.0861430704
 H    0.6601110786    1.8593685613   -0.7505954527
 H   -1.0501431582    1.7874815618   -0.3216716962
 H    0.1703605523    1.9196805283    0.9492258210
 H   -1.0065603225   -1.1152493099   -1.8064764270
 H    2.2319526799   -0.6462642680   -0.0233484270
 H    1.7863297132   -2.3828645685    1.9092264366
 H    0.9343592289   -0.9671224101    2.6183925923
 H   -0.6893599457   -3.0870688598    1.3397744416
 H   -2.3631218185   -0.1971259560    2.1313778783
 H   -2.8132478288    0.3143833283    0.5010312505
 H   -3.1600455092   -1.3324401847    1.0318963821