25

 C   -0.0444312602    1.5820871201    0.0597071242
 C    0.0017244170    0.0505490243    0.0924252216
 C   -1.3800386463   -0.5980405449   -0.0245765585
 C   -2.0811382135   -0.4522149377   -1.4195638584
 C   -2.3596240976   -1.9381287141   -1.7431895481
 C   -3.0753689032   -2.2528535256   -3.0364909251
 C   -2.8592358463   -2.4628500158   -0.3589034924
 C   -1.4012063019   -2.1412599819    0.0720069764
 C   -0.9948371052   -2.5910299805   -1.3607328486
 H    0.9573594453    2.0133287765    0.1517108110
 H   -0.4791833014    1.9500887189   -0.8758966350
 H   -0.6530324007    1.9751764282    0.8819993971
 H    0.6529702870   -0.3118488836   -0.7129676659
 H    0.4686776543   -0.2757402196    1.0313903607
 H   -2.0172791312   -0.1774127550    0.7641880906
 H   -3.0012373524    0.1395387140   -1.3776339722
 H   -1.4257174125    0.0072418721   -2.1686006942
 H   -2.5103550938   -1.8861599859   -3.9018173676
 H   -3.2166515248   -3.3316208795   -3.1632424137
 H   -4.0646193331   -1.7807929501   -3.0662888866
 H   -3.6747152571   -1.9236466826    0.1350723437
 H   -3.0717430026   -3.5352568075   -0.3744982053
 H   -0.9536184280   -2.5860181389    0.9623064415
 H   -1.0108433573   -3.6782202650   -1.4756575618
 H   -0.0819316546   -2.1850701360   -1.8068642535