17

 O   -0.1176114312    1.4641971861    0.0949274653
 C    0.0332383009    0.0628107682   -0.0421169738
 C   -1.3683061185   -0.5365936605    0.0128602310
 C   -1.3824370648   -2.0780368288   -0.0345232178
 C   -2.8338644760   -2.6140456689    0.0982326824
 C   -2.9014322744   -4.0661029230    0.2403317948
 N   -2.9453376963   -5.2128544424    0.3704249964
 C   -0.7595304006   -2.5769246857   -1.2659643073
 N   -0.2713664940   -2.9435473819   -2.2469836910
 H    0.7418567118    1.8759255285   -0.0332787275
 H    0.5167643670   -0.2031810309   -0.9931801911
 H    0.6491985470   -0.3578402752    0.7702954978
 H   -1.8480969477   -0.2149759165    0.9435611278
 H   -1.9614335858   -0.1331099084   -0.8147636571
 H   -0.7980910920   -2.4677031292    0.8078396848
 H   -3.2945785924   -2.1546462946    0.9789356608
 H   -3.4236607930   -2.3090710567   -0.7722675754