14

 O   -0.3663474366    0.5244345210   -0.8353141792
 C    0.1340309950    0.9950669266    0.1542802032
 C    1.3548646373    1.8712552776    0.1134004791
 C    2.3577832493    1.5551139662   -1.0188265743
 C    1.4972397415    2.7480326821   -1.1509798736
 C    1.8432815593    2.3615557150    1.3589965874
 C    2.2275241065    2.7580309148    2.4359480123
 C    2.6716227949    3.2120929192    3.6428946679
 N    3.0503144018    3.5991813416    4.6712059005
 H   -0.2756574148    0.8113458810    1.1673609969
 H    3.4044928565    1.6829189728   -0.7723779488
 H    2.1014212152    0.6760957231   -1.5986078640
 H    0.6479662752    2.6909080237   -1.8218102842
 H    1.9277813890    3.7300013554   -0.9991804034