16

 O   -0.0834628926    1.4956165125   -0.1128688546
 C    0.0640526419    0.1250257430    0.2119251188
 C   -1.2739447011   -0.5803236060    0.0984121151
 O   -1.8250867351   -0.5614902010   -1.2638347726
 C   -2.1416942391   -1.9386660879   -1.1615907954
 C   -0.9027997471   -2.7986498290   -1.0827412702
 C    0.3204177826   -2.4817928353   -1.7680415300
 N    1.3015545367   -2.2558831322   -2.3376365308
 C   -1.4460247748   -2.0982369631    0.1656079732
 H   -0.3290527547    1.5369276073   -1.0440990456
 H    0.8221261116   -0.3619939416   -0.4110879730
 H    0.3996629077    0.0798048428    1.2543374142
 H   -1.9992411071   -0.0886611961    0.7576286587
 H   -3.0897418577   -2.2849040251   -1.5559474114
 H   -1.1237783398   -3.8629816069   -1.0669237101
 H   -1.7102943714   -2.6697614013    1.0443678335