15

 C   -0.9180648404    0.9991703549    0.5669350037
 C   -0.2309240167   -0.2767830743    0.2135205101
 N   -0.1748400071   -0.7168741933   -1.0475170063
 N    0.5414854704   -1.8279507122   -0.9742783121
 N    0.9644323898   -2.1809162390    0.2318141438
 C    0.4820811246   -1.2095784518    1.0064328521
 N    0.7847007695   -1.2240235562    2.3729408388
 C   -0.0505317592   -0.8614814035    3.3960683317
 O   -1.1574740549   -0.3901426006    3.2767109849
 H   -0.2157750349    1.7114322119    1.0142128223
 H   -1.3357058466    1.4475064610   -0.3365349928
 H   -1.7074439431    0.8277071693    1.3006347846
 H    0.7561159298   -2.3769769705   -1.7899431734
 H    1.6141964585   -1.7437368965    2.6208809834
 H    0.4286851106   -1.0445286692    4.3769919191