19

 C   -0.0628397432    1.4793536309    0.1679834979
 C   -0.0143899176   -0.0121109579    0.1819934925
 O   -0.7124806642   -0.6973280587   -0.8577418592
 C   -1.1107407839   -1.7361609180    0.0832891762
 C   -0.2744001672   -1.0978277191    1.1790867698
 C    1.1614590634   -0.9071488147    0.6719064873
 C    1.8523718220   -1.8719043465   -0.2694306467
 C    2.0336271569   -0.2427081978    1.6728797581
 O    1.6491498260    0.3811781736    2.6380153298
 H    0.4014627542    1.8639511234   -0.7467384175
 H   -1.1021651854    1.8212443009    0.1889439862
 H    0.4593740169    1.8898427485    1.0328788378
 H   -2.1877540257   -1.6789004329    0.2714855975
 H   -0.8444818267   -2.7405108878   -0.2622127594
 H   -0.4941403167   -1.0338129357    2.2359430514
 H    1.2743553144   -1.9974944031   -1.1871251204
 H    2.8388354322   -1.4874644840   -0.5504230310
 H    1.9985267093   -2.8564455397    0.1882696276
 H    3.1222586355   -0.3506433814    1.4660227218