20

 C    0.2957732054    1.3267447520   -0.5442989387
 C   -0.0264420569    0.0593940568    0.2060680030
 O    1.0284639316   -0.8934683621    0.3897552860
 C    0.4512660717   -0.2826056233    1.5561712672
 C    1.3784724610    0.5693414793    2.3890994673
 N    2.3627261528   -0.2579424795    3.0644808111
 C    2.4841021420   -0.3001284585    4.4253403384
 C    3.5445554940   -1.2565471573    4.9486519146
 O    1.8033180698    0.3818923081    5.1705952410
 H    1.2554092028    1.7507756000   -0.2438072512
 H    0.3404670973    1.1220552698   -1.6190433764
 H   -0.4861971075    2.0756648613   -0.3791808134
 H   -0.9712677049   -0.4014245867   -0.0908641191
 H   -0.1605723178   -0.9680772164    2.1459494296
 H    1.8791500147    1.3188201855    1.7681959379
 H    0.8222351395    1.0881387295    3.1744111144
 H    2.9209036295   -0.8718749569    2.4941140120
 H    3.0763459602   -1.9432960718    5.6582782272
 H    4.0429805527   -1.8345216228    4.1662077979
 H    4.2950300419   -0.6818745970    5.4982861014