17

 C   -0.1702701702    1.4631812043   -0.1077183287
 N    0.1021826277    0.0372760996    0.0284910695
 C    1.4210779418   -0.5286977010   -0.1654291686
 C    2.5558034761    0.3127692323    0.4019086990
 N    3.1922090010   -0.3296562568    1.5482599313
 C    1.8839659571    0.3186231199    1.7634947086
 C    1.7607868389    1.3558593999    2.7343900376
 C    1.6113446142    2.2212714719    3.5560935793
 C    0.7444302119   -0.5331070382    1.1919389590
 H    0.6069393573    2.1196932618    0.3020665564
 H   -0.2982008529    1.6892890319   -1.1706768782
 H   -1.1116872206    1.6857912610    0.4030320259
 H    1.5372021963   -1.3483728466   -0.8670457101
 H    3.0873511901    1.1267307956   -0.0755654788
 H    3.0926396035   -1.3435011843    1.5145475726
 H    1.4930843163    2.9864225215    4.2827666389
 H    0.2525690115   -1.3459090630    1.7162560762