18

 C   -0.0304741783    1.4248888541   -0.1223846647
 N   -0.0213641711   -0.0099638169   -0.0408516739
 C   -1.1013531581   -1.0076238374    0.0117436360
 C    0.0098264687   -2.0673314653   -0.0009408570
 C    0.1200396518   -3.3806174392    0.7285611792
 C    0.0557320264   -3.3432718416   -0.7773328055
 O   -1.1314712564   -3.6920168528   -1.4255748762
 C    1.0083104163   -0.9237260198   -0.0549753989
 O    2.2068707113   -0.8042641080   -0.1011024631
 H    1.0088595920    1.7591673324   -0.1721727101
 H   -0.5571383045    1.7766195691   -1.0186663170
 H   -0.5044648523    1.8782375229    0.7571961998
 H   -1.7044539066   -0.9612857303    0.9256054096
 H   -1.7550864162   -1.0107494364   -0.8665904331
 H    1.0671672018   -3.6118667054    1.2052124503
 H   -0.7665827796   -3.7284698665    1.2489624763
 H    0.9727055816   -3.5470303344   -1.3300630286
 H   -1.2006623168   -4.6526777347   -1.4254144931