17

 N    0.0109913433    1.3195836371    0.0991647609
 C   -0.0588612992   -0.0445206792    0.0089287234
 N   -1.1211936216   -0.7496093512    0.0139055049
 C   -0.7427286580   -2.1659580528   -0.0407655568
 C    0.7615286634   -2.2187227385   -0.4133006108
 C    1.2745185181   -0.8092273360   -0.0266275863
 O    2.1889902561   -0.2299082263   -0.9207173504
 C    1.8895739032   -0.8211496542    1.3650083303
 O    3.0116124263   -0.4221871096    1.5639207276
 H    0.8256434941    1.7154004151   -0.3490995534
 H   -0.8526220588    1.8075692031   -0.0897975613
 H   -0.9339193499   -2.6410771474    0.9306549814
 H   -1.3684967657   -2.6915415983   -0.7696320095
 H    1.3030982006   -3.0325632685    0.0769386355
 H    0.9058471464   -2.3193958411   -1.4921863496
 H    3.0027493964   -0.0927597230   -0.4061887115
 H    1.2580047952   -1.2307641194    2.1766780255