20

 C   -1.5424750265    1.5637866015   -0.0903672907
 N   -1.2016958564    0.1587211360   -0.1718094552
 C   -1.6532317679   -0.7546186345    0.7297435552
 O   -2.3230810088   -0.4773324634    1.7127273975
 C   -1.2787802714   -2.1818289204    0.3969846915
 C   -1.3627155496   -3.1981741648    1.5110599838
 C   -2.4115681182   -3.1803784660    0.4338239411
 O   -0.3394173561   -2.3552242528   -0.6287507940
 C    1.0130867752   -2.2349838299   -0.2047796585
 H   -2.0184004815    1.7289573687    0.8771522028
 H   -0.6474330432    2.1902011241   -0.1653302061
 H   -2.2420768800    1.8587868158   -0.8817031023
 H   -0.7593423599   -0.2091000259   -0.9993350067
 H   -0.6394822335   -4.0052172729    1.4921594882
 H   -1.6286901352   -2.8147363672    2.4883175539
 H   -3.3947016034   -2.7989677192    0.6817561104
 H   -2.3749371599   -3.9570285367   -0.3211243578
 H    1.6333984900   -2.3865120602   -1.0911153331
 H    1.2203101239   -1.2424220587    0.2162569217
 H    1.2675017325   -2.9934797035    0.5456739382