19

 C   -0.0768572012    1.5779820220   -0.0883492935
 C   -0.0392047981    0.0265592991   -0.0011086125
 C    0.7038970775   -0.4548709989    1.2839615489
 C    0.0623385756   -0.0323033911    2.6014147383
 O    0.8266640950   -0.6370874375    3.6354384064
 C   -1.4154342350   -0.4965480573   -0.0224707341
 C   -2.5455875066   -0.9046242288   -0.0260798728
 C    0.6907966579   -0.4937235849   -1.1683312619
 C    1.3174017029   -0.8990591277   -2.1095395040
 H    0.9401672259    1.9757736346   -0.0334462670
 H   -0.5239347404    1.8899534155   -1.0341476159
 H   -0.6700949801    1.9958092857    0.7278592850
 H    0.7598690061   -1.5468209573    1.2663391524
 H    1.7308729508   -0.0781908172    1.2429232985
 H    0.0664456346    1.0637399907    2.7015696227
 H   -0.9853736892   -0.3650800525    2.6273904625
 H    0.4263435628   -0.4036831785    4.4778689765
 H   -3.5406608825   -1.2755949356   -0.0418495414
 H    1.8587316242   -1.2663846704   -2.9461453780