16

 C    0.0301501848   -1.2173631459   -0.0425368539
 C    0.0270378141   -0.0146088215   -0.0014087871
 C    0.0033984524    1.4155685074    0.0508954240
 C    0.3814418592    2.2354138814   -1.1844247644
 C    1.2706871297    2.2901096003    0.0207794154
 C    1.0684821876    3.4214306118    1.0265694857
 C   -0.3576473525    3.2309071487    1.4998384167
 C   -0.9169145177    2.1306338693    0.9953271357
 H    0.0380992062   -2.2782688484   -0.0761975835
 H    0.7473956254    1.6806063658   -2.0412142170
 H   -0.2516391858    3.0852357973   -1.4186089941
 H    2.2396840816    1.8117344094   -0.0477043651
 H    1.7783920425    3.3489305483    1.8610484737
 H    1.2253206416    4.4085404176    0.5725210464
 H   -0.8512789368    3.9356554799    2.1590571377
 H   -1.9189954223    1.7711420586    1.1947601698