20

 C    0.0804983594    1.5735139890   -0.0738990452
 C   -0.0281148094    0.0584246763    0.1313540628
 C   -1.4465648791   -0.5221483148    0.0295379722
 C   -2.3746057665    0.0900378592    1.0953295219
 C   -3.7269206968   -0.4650795651    1.1006181041
 N   -4.7950172454   -0.9065083181    1.0989166821
 C   -1.9792541568   -0.5902089532   -1.4262880869
 O   -1.6823832795   -1.9969656112   -1.5073964666
 C   -1.4341251066   -2.0682840004   -0.0902466584
 H    1.1298045637    1.8815066628   -0.0924332898
 H   -0.3693671219    1.8841220333   -1.0231207582
 H   -0.4066524768    2.1379388844    0.7274679009
 H    0.5860132935   -0.4520171572   -0.6196324899
 H    0.3949970839   -0.2129897702    1.1080657661
 H   -1.9399044508   -0.0557898900    2.0923037550
 H   -2.4568823565    1.1726158982    0.9489312322
 H   -3.0544932999   -0.3935905058   -1.5296032658
 H   -1.4321693062   -0.0087085696   -2.1773556439
 H   -0.4840436138   -2.5645021770    0.1409554411
 H   -2.2489657943   -2.5766896306    0.4411688663