18

 C    0.0826610952    1.5223316243   -0.0415217707
 C    1.3449740747    0.7442991739    0.1014606959
 C    1.9137863300    0.2532337609    1.4858128253
 C    1.4426471191   -1.2183693779    1.3424343212
 C    0.0380662373   -0.4971566610    1.3412408400
 C   -0.8466886598   -0.9678170036    2.4891600566
 O    0.1530494643   -0.3986931542    3.4015558229
 C    0.6612618749    0.4898157404    2.3501249121
 N   -0.0000245629    0.0476215599   -0.0247041808
 H   -0.3297685199    2.0970156520    0.7790017249
 H   -0.1321937924    1.9442379747   -1.0195484048
 H    2.0148761137    0.6529291969   -0.7484069528
 H    2.9348727121    0.5593779768    1.7183782983
 H    1.6994695829   -1.7343353655    0.4162644667
 H    1.6230851669   -1.8362674133    2.2196225238
 H   -1.8083163474   -0.4490457699    2.5903266855
 H   -0.9751530053   -2.0438421928    2.6389363066
 H    0.3324113766    1.5085067084    2.5535182193