15

 C    0.0642105734    1.4579705594    0.0421343659
 C   -0.0751240553   -0.0196918645   -0.0076049298
 C   -1.1578084167   -0.8372641943   -0.2046128249
 C   -0.6156320387   -2.1510401619   -0.1366260755
 C    0.7257919858   -2.0462324593    0.0913080398
 O    1.0910732545   -0.7424334532    0.1760685573
 C    1.2694035472   -3.3582539408    0.1595840537
 C    0.1817239135   -4.1646699023   -0.0380660774
 O   -0.9832672506   -3.4519614389   -0.2217234160
 H    0.7491185265    1.8238692605   -0.7316335195
 H   -0.9098099480    1.9268702543   -0.1136077206
 H    0.4557957077    1.7929483097    1.0096855218
 H   -2.1723075992   -0.5136723929   -0.3698242046
 H    2.2833333805   -3.6833740813    0.3246711093
 H    0.0714865095   -5.2353370344   -0.0756864494