16

 C   -0.0266808496    1.6455431104    0.2520203577
 C    0.0532873745    0.1288482099    0.0812904112
 C    0.7658471177   -0.3390880702   -1.1999716941
 O    1.4159367682   -1.5310467541   -0.7840499887
 C    1.8344877413   -1.2637811787    0.5262359726
 O    0.8333169887   -0.4584081143    1.1322197446
 C   -1.3557737164   -0.4654496436    0.1843441577
 O   -2.1088004905   -0.5882577570   -0.7450245862
 H    0.9793971744    2.0738741505    0.2522341542
 H   -0.6059100083    2.0890440418   -0.5635524627
 H   -0.5087106219    1.9046710445    1.1992168725
 H    0.0654164986   -0.5743112063   -2.0019332082
 H    1.4925492739    0.4131191747   -1.5425346351
 H    1.9316120141   -2.2087845775    1.0691896226
 H    2.7953285090   -0.7192270656    0.5342171630
 H   -1.6276670537   -0.7682884843    1.2194071688