11

 N   -0.0341290027    1.3398066967    0.1423913439
 C   -0.0371903407   -0.0342978722    0.0220997311
 N   -1.1150425149   -0.7979689574   -0.0641615884
 C   -0.5767404198   -2.0531437670   -0.0763030757
 O   -1.3455986343   -3.1479354960   -0.1559954436
 N    0.7330102465   -2.1379690243   -0.0149964474
 N    1.0711493233   -0.7982251903    0.0442695185
 H    0.7209318804    1.8124009307   -0.3346127306
 H   -0.9330186956    1.7357324374   -0.0949603496
 H   -2.2581538185   -2.8380944774   -0.1880301924
 H    2.0310794263   -0.5349605102    0.1822341142