18

 C   -0.0602357393    1.6086362768   -0.1584134748
 C    0.0076335499    0.1033146136    0.1163948258
 C   -1.3613391206   -0.5604901325    0.0875297828
 N   -2.0086333298   -0.6307847659   -1.2314425320
 C   -2.0949065028   -1.9942843744   -1.3089924196
 O   -2.5372026988   -2.7491321373   -2.1270577638
 C   -1.4240918003   -2.1363422791    0.1058131049
 C   -0.1937710155   -2.8861796471    0.1920091594
 C    0.8299082818   -3.5135619218    0.2550316874
 H    0.9348856897    2.0602032244   -0.1145500925
 H   -0.4691421833    1.8140461284   -1.1539348333
 H   -0.6919711952    2.1219476227    0.5752406739
 H    0.6566678110   -0.3882874487   -0.6157275430
 H    0.4534106355   -0.0781962172    1.1016684273
 H   -2.0155766330   -0.1174166002    0.8490661399
 H   -2.3921074272    0.0834971901   -1.8326503528
 H   -2.1570853392   -2.5052774329    0.8300924465
 H    1.7292697271   -4.0758426689    0.3063762340