18

 C   -0.1895902543    1.6045247991    0.2041701873
 C    0.0214597710    0.1156644594    0.1275608965
 N    0.9885304982   -0.3620286760   -0.9044198875
 C    1.7048101875   -1.2462598162    0.0542300512
 C    0.7522096410   -0.7979320132    1.1875626975
 O    1.2761894598   -0.2223227474    2.3424023025
 C   -0.5141362689   -1.6920061779    1.3182205793
 C   -1.1715430340   -0.8563118393    0.2028167572
 O   -2.1889544505   -0.9622023018   -0.4226978455
 H    0.7722432879    2.1229067480    0.2381382506
 H   -0.7396655695    1.9513682041   -0.6770727177
 H   -0.7674565904    1.8743772504    1.0936239288
 H    0.5668324271   -0.8251205605   -1.7031577499
 H    1.6924469881   -2.3180775089   -0.1768858354
 H    2.7419845461   -0.9251198044    0.2005721790
 H    1.6240820521   -0.9198153715    2.9087490782
 H   -0.4302867847   -2.7725194730    1.1689958500
 H   -1.0202497466   -1.4947563509    2.2703699379