22

 C   -0.1156365876    1.5081392875    0.0103094816
 C   -0.0010520928   -0.0041337562    0.0212568787
 O   -1.3345555260   -0.5427248175    0.0020170357
 C   -1.4300271121   -1.8757058492   -0.0000527848
 N   -0.4437750251   -2.6814210572    0.0067035452
 C   -0.9878634142   -4.0438886664    0.0370424803
 C   -2.5009501560   -3.9467851154   -0.3180977793
 C   -3.3853422706   -4.9826861969    0.3713517578
 C   -2.8173685594   -2.4742678777    0.0207974037
 H    0.8821504930    1.9567740399    0.0244635057
 H   -0.6363616099    1.8538400509   -0.8873073450
 H   -0.6664586718    1.8646608516    0.8854430576
 H    0.5465645649   -0.3824004450   -0.8485447698
 H    0.5174177426   -0.3722655239    0.9130516165
 H   -0.4377446953   -4.6882779538   -0.6571545282
 H   -0.8420444818   -4.4688135767    1.0412798325
 H   -2.5961392103   -4.0687470413   -1.4040395618
 H   -3.3317104562   -4.8809610984    1.4615529712
 H   -4.4350483920   -4.8770782919    0.0775221728
 H   -3.0721385849   -6.0010223612    0.1167824086
 H   -3.2515802671   -2.3633742553    1.0237161466
 H   -3.4980807376   -1.9828988158   -0.6795084356