16

 O   -0.0198209703    0.0160745401   -0.1079996201
 C    0.0417982473    1.2288620379   -0.0815453830
 N    1.1972987041    1.9348870159   -0.0553105734
 C    2.5041308601    1.2750015721   -0.0566187969
 C    3.4460697914    2.4399611250   -0.0224188271
 C    2.7961923522    3.6115753420   -0.0038395184
 C    1.2946286623    3.3929550074   -0.0231026445
 C    3.3506307595    4.9112636782    0.0293884024
 C    3.7762236423    6.0377914550    0.0576685478
 H   -0.8528123834    1.8837689918   -0.0762127621
 H    2.6134226862    0.6079182084    0.8097672047
 H    2.6307085736    0.6455273861   -0.9484188521
 H    4.5214191212    2.3234954969   -0.0143548891
 H    0.8326457344    3.8611177695   -0.9030179480
 H    0.8153857087    3.8231957524    0.8668842889
 H    4.1677441906    7.0247115713    0.0826508310