12

 O    0.0386146294   -0.0150515338    0.0879514778
 C   -0.0320022945    1.1816690631    0.0058725741
 C   -1.2432002382    2.0457172995    0.0068937724
 C   -0.8702091920    3.3313735035    0.0338997245
 C    0.6137138136    3.4234672182    0.0022681525
 C    1.3720052661    2.8222406235    1.1449585769
 N    1.1277099830    2.0553564515   -0.0910518500
 H   -2.2436345588    1.6394484513    0.0611013337
 H   -1.5198066019    4.1975527736    0.0572333091
 H    1.0938187870    4.1743402697   -0.6186920749
 H    2.4069564589    3.1060945528    1.3131124215
 H    0.8097708074    2.5453088070    2.0332227824