15

 C   -0.0168848027   -1.1299207324    0.0051871517
 C   -0.0479378183    0.0727014998   -0.0223961704
 C   -0.0578423426    1.4894664025   -0.0591043394
 O   -1.1152390785    2.2098744266    0.5317648757
 C   -0.7216537627    3.4071766742   -0.2770936085
 C    0.1535336265    4.2176852965    0.6401255991
 C    1.2981011559    3.5375260858    0.8141194526
 C    1.3080728987    2.3465515101   -0.0594640078
 C    0.2410582774    2.5117251869   -1.1067506299
 H    0.0003676255   -2.1914412611    0.0302066500
 H   -1.5995558840    3.8602955078   -0.7323556954
 H   -0.1895106583    5.0743496417    1.2041979946
 H    2.0696797514    3.7511894254    1.5430627175
 H    2.2001284509    1.7732647212   -0.2754270592
 H    0.3587487808    2.4372577251   -2.1802160105