17

 C    0.6276637048    1.3665904577    0.0352052793
 C   -0.1420165313    0.0550511939   -0.0299436585
 C    0.2068334230   -0.8233289305   -1.2540025095
 C    1.2338523481   -1.7740907409   -0.6863310195
 C    1.8718648559   -2.9127321663   -1.3482173924
 O    2.5985206108   -1.7055670590   -1.1132010918
 C    1.0372797910   -1.7644232854    0.8174590848
 O    1.5204373111   -2.5010675190    1.6268213116
 O    0.1932637215   -0.7526363834    1.1315607573
 H    1.7033933389    1.1910729545   -0.0679723128
 H    0.3073076646    2.0310149913   -0.7735451860
 H    0.4476524410    1.8679208378    0.9894922560
 H   -1.2163143565    0.2409159424    0.0410397493
 H   -0.6752326254   -1.3728935942   -1.5963540711
 H    0.6022649964   -0.2430259718   -2.0894659927
 H    2.1780940687   -3.7628074571   -0.7423187239
 H    1.6300791774   -3.1187862201   -2.3899977501