17

 O    0.0570692293    1.5525768877   -0.3054126561
 C   -0.0169322260    0.1834437282    0.0030196589
 C    0.8779091776   -0.6485975445   -0.9394038549
 C    2.2700898848   -0.2227750370   -0.8562159832
 C    3.3941595406    0.1929992345   -0.7525847198
 C    0.1512440874   -0.1927777333    1.5182058045
 C   -1.2071147799   -0.9020270815    1.4310120636
 O   -1.7884842403   -1.6745314237    2.1356398441
 C   -1.4911967924   -0.3089485925    0.0432052537
 H    0.9919358264    1.7952155591   -0.3311386804
 H    0.7917589695   -1.7141582254   -0.6941533885
 H    0.5114053456   -0.5239189263   -1.9654916037
 H    4.3996100020    0.5275385092   -0.6779876613
 H    1.0115441499   -0.7967903987    1.8169491056
 H    0.0969838578    0.6981785333    2.1518215815
 H   -2.1823444400    0.5379944469    0.0977465237
 H   -1.8301734324   -0.9989638060   -0.7338084276