16

 C    0.0602855923    1.3795342044   -0.3114215506
 C   -0.0163382410   -0.0447309598    0.1998241525
 O    0.9204718508   -0.6041524902    0.7173083211
 C   -1.3747749939   -0.7618645927    0.0807134344
 C   -1.9451302777   -0.8944570063   -1.3556749187
 O   -1.6051551411   -2.2166052815   -1.7617405308
 C   -1.2341576986   -2.9622776160   -0.6710404529
 O   -0.9339061511   -4.1171592796   -0.7352208302
 N   -1.2971849908   -2.1534726994    0.4566201776
 H    0.2376805435    1.3702339762   -1.3933436099
 H   -0.8719546700    1.9261478092   -0.1385978167
 H    0.8950549861    1.8945309799    0.1656118441
 H   -2.0801981299   -0.2027037557    0.7105531780
 H   -3.0344284906   -0.7830421759   -1.3567700180
 H   -1.5163473072   -0.1854869950   -2.0669997698
 H   -0.6436916711   -2.3992633977    1.1876314999