19

 C   -0.1434367644    1.5383643275    0.0354389307
 C    0.0162567303    0.0235878225   -0.0199098983
 C   -1.3125292544   -0.6471415727   -0.3188794751
 O   -1.2797763237   -2.0701464189   -0.1457840658
 C   -0.6287749538   -2.4999565077    0.9665776315
 N    0.2391636978   -1.8998429651    1.6630384492
 C    0.7394167095   -0.6168156479    1.2082518186
 C    1.9612768235   -0.7907777294    0.2610693007
 N    1.1521909055   -0.3667638884   -0.9195051971
 H    0.8198532340    2.0126305525    0.2422064123
 H   -0.5013717804    1.9250854004   -0.9248817497
 H   -0.8501691361    1.8361855682    0.8179465624
 H   -2.0864100966   -0.2385658010    0.3439695905
 H   -1.6197490851   -0.4790579325   -1.3557394980
 H   -0.9458207625   -3.5102876931    1.2196835722
 H    0.8916535022    0.0353339114    2.0726390474
 H    2.7848944737   -0.0958641957    0.4550438402
 H    2.3556502782   -1.8090170883    0.2255890643
 H    0.9029165723   -1.1697237619   -1.4899248561