16

 C    0.0350397534    1.4978740924   -0.0678088030
 C    1.5388325539    1.9448402381    0.0376583450
 C    2.1324480744    0.7226935513    0.6524435397
 C    1.3118732006   -0.3639289595    0.6666839303
 C   -0.0245871812   -0.0638871989    0.0566947372
 N    1.9413692588   -1.4689537193    1.1843059061
 C    3.1493856299   -1.0380364888    1.4837068643
 N    3.3279835564    0.2907747584    1.1733968744
 H   -0.5186100457    1.9423959815    0.7640995529
 H   -0.4281245254    1.8581648783   -0.9895466953
 H    1.9669375486    2.1627746148   -0.9506036811
 H    1.6451503548    2.8579768634    0.6344899636
 H   -0.8748917832   -0.3874367402    0.6655682560
 H   -0.1397741215   -0.5432801872   -0.9241421187
 H    3.9373668809   -1.6255970328    1.9316728132
 H    4.1641679653    0.8275286685    1.3296193755