13

 O    0.0604906128    0.0547472393   -0.0177151423
 C    0.0060311489   -0.0006013562    1.1908792670
 H    0.9227439893   -0.0581994728    1.8118633216
 C   -1.2137398269    0.0012529439    1.9494898126
 C   -2.2301654941    0.0009696747    2.6204680040
 C   -3.3539282325    0.0007299118    3.3608380663
 C   -4.3745235324    0.0006411810    4.0306138754
 C   -5.5014951948    0.0005044956    4.7711882531
 C   -6.5159293858    0.0004633383    5.4368305182
 C   -7.7285406690    0.0002303595    6.2299215667
 H   -8.3181977290   -0.9041096776    6.0421236909
 H   -8.3557697073    0.8652366461    5.9868922111
 H   -7.5011198139    0.0381347162    7.3010178448