23

 C    0.1086902135    1.5757566223    0.0093550229
 C    0.0398974428    0.0433307337    0.0223891202
 C    0.5142767919   -0.5461187894   -1.3232533375
 C    0.7486697864   -2.0334778056   -1.2705108169
 C    1.0874684411   -2.6662704407   -0.1460608812
 C    1.2644772940   -1.9776893827    1.1613637747
 C    1.1285181696   -2.8509220312    2.3927840341
 C    2.2636126785   -0.8244639261    1.2008579983
 C    0.7831588277   -0.5424170229    1.2131442736
 H    1.1455660927    1.9170072919   -0.0871663297
 H   -0.4619474662    1.9914025526   -0.8283632550
 H   -0.2964974926    2.0005765246    0.9339028302
 H   -1.0133172745   -0.2485350523    0.1437324174
 H   -0.2226578417   -0.3056553000   -2.0987326158
 H    1.4378693053   -0.0362852584   -1.6380009991
 H    0.6598090596   -2.5903498379   -2.1994019573
 H    1.2591483280   -3.7405398863   -0.1564208174
 H    1.8658289451   -3.6627989769    2.3853190886
 H    1.2836870141   -2.2711075676    3.3079985174
 H    0.1333389699   -3.3068270942    2.4504061592
 H    2.8192233878   -0.6695938774    2.1205518058
 H    2.8316341540   -0.6259576799    0.2985642155
 H    0.3812106129   -0.2251887155    2.1732489122