22

 C   -0.0277572124    1.6111067812   -0.1209554752
 C    0.0279632022    0.0841928329   -0.0034580333
 C   -1.3603314111   -0.5470113158    0.0748064749
 C   -1.4555291968   -2.0901492225    0.1618947250
 C   -0.9358076151   -2.3478113958    1.5933042909
 C   -1.8159021061   -1.3051948185    2.2728562238
 C   -3.0960138685   -1.2459928694    1.5104641166
 C   -2.9807680614   -2.2426553968    0.3597573872
 N   -2.0761546388   -0.1829652320    1.3313176545
 H    0.9773013824    2.0431236620   -0.1489598090
 H   -0.5483437781    1.9177273810   -1.0352416963
 H   -0.5662466837    2.0403404253    0.7280066579
 H    0.5530182435   -0.3391642921   -0.8695607977
 H    0.6137482057   -0.1893358575    0.8809171890
 H   -1.9585505281   -0.1783470363   -0.7688867069
 H   -1.0013272345   -2.6652294707   -0.6436885422
 H   -1.1546901477   -3.3628853757    1.9407184099
 H    0.1347439612   -2.1666566015    1.7158835985
 H   -1.7335240597   -1.0552903059    3.3234483021
 H   -4.0439479051   -0.9570522305    1.9482267478
 H   -3.5576876166   -1.9480766165   -0.5225909978
 H   -3.2797980714   -3.2549580445    0.6507362803