17

 O    0.1976471516    1.1659020756    0.4620359034
 C   -0.0330613819   -0.1223466935   -0.0355377526
 C   -1.5068845402   -0.4621446586   -0.0727507420
 N   -2.1993201759   -0.1855876242   -1.3449309945
 C   -1.8950978836   -1.5724294234   -0.9650852847
 C   -0.8012945807   -2.2502926586   -1.7614019184
 O    0.2507345495   -1.3663628150   -2.1636550096
 C    0.5747676348   -0.2830220294   -1.4225420129
 N    1.3917395656    0.5970262831   -1.8225196423
 H    0.8142067867    1.5713913828   -0.1718057999
 H    0.4533317241   -0.8717787608    0.6183725938
 H   -2.0425717343   -0.3080223571    0.8595090280
 H   -3.1797479860    0.0225908027   -1.1788642482
 H   -2.7057361616   -2.2343384026   -0.6688210373
 H   -0.3778435124   -3.0751083947   -1.1718595593
 H   -1.1913479293   -2.6676522383   -2.6945451333
 H    1.7366399636    0.4002667121   -2.7611776204