16

 N   -0.0429304377    1.2668887087   -0.5876069968
 C    0.0172180495    0.1332243043   -0.0421732887
 O   -1.1428150053   -0.5007538033    0.2693751078
 C   -1.0958549163   -1.7762852242    0.9250101149
 C   -0.6140987566   -1.6183334404    2.3702739835
 O    0.8245143002   -1.6102443500    2.2677669043
 C    1.1596842713   -1.7690408817    0.9167880982
 C    0.0352042964   -2.6052065315    0.3192566306
 O    1.1951190621   -0.5022456622    0.2388176162
 H    0.8986622903    1.6103147356   -0.7632659941
 H   -2.0995332839   -2.1897936748    0.8349413377
 H   -0.9624991474   -0.6824104010    2.8147780091
 H   -0.9275186456   -2.4598556236    2.9992531263
 H    2.1760149530   -2.1538606365    0.8507783800
 H    0.0492879543   -3.6226704130    0.7166752892
 H    0.0281570156   -2.6244255064   -0.7706414084