19

 O    0.4505484619    0.7031666137   -0.7849349990
 C    0.1869236643   -0.3341179405    0.1164238332
 C   -0.0410376339   -0.0287454751    1.6292914652
 C   -1.2070858637   -1.0596325427    1.6129877682
 C   -1.2408601547   -0.9375477960    0.0791217963
 O   -2.2044602452    0.0681968389   -0.3878013080
 C   -2.7986021132   -0.9068087168   -1.2585181609
 C   -1.8212531309   -1.3875731608   -2.2824741953
 C   -1.8050558324   -1.9731670390   -0.8797275949
 H   -0.3939313864    1.1620634142   -0.8983766529
 H    0.9521960204   -1.1046539885   -0.0239081981
 H    0.7911336964   -0.2054791961    2.3131735057
 H   -0.4064427233    0.9923454306    1.7649258576
 H   -0.8884770183   -2.0590039527    1.9249534950
 H   -2.1313941612   -0.7973385593    2.1300588148
 H   -3.8775298405   -0.9003671146   -1.3534472533
 H   -2.2297407422   -2.0480150607   -3.0413363052
 H   -1.0187370085   -0.7353785902   -2.6116818155
 H   -1.9414441188   -3.0242420843   -0.6650792029