17

 C    0.0050787744    1.4396556018    0.0530818194
 C    0.0028419336   -0.0754809891    0.0094209333
 O    0.7223788785   -0.5368646332    1.1681656974
 C    0.8500265296   -1.8449503150    1.3310747423
 N    1.4691834703   -2.4168321504    2.3146236095
 C    1.3257568465   -3.7740700578    2.0443959268
 N    1.9372840910   -4.6975213574    2.8818534194
 C    0.6156736949   -3.9462281810    0.9008140174
 O    0.3012542387   -2.6673971812    0.4248196134
 H    1.0274038329    1.8263284222    0.0324571225
 H   -0.5339555237    1.8345748369   -0.8129290617
 H   -0.4832835553    1.8019862283    0.9615830301
 H   -1.0151983836   -0.4795614377    0.0332922645
 H    0.4934515433   -0.4550079329   -0.8935673101
 H    2.0747017154   -4.3208315954    3.8100385170
 H    1.4780216958   -5.5965191838    2.9149500394
 H    0.2744443577   -4.7754650741    0.3102850495