15

 C    0.2538081970   -0.2284909551   -1.1700761888
 C    0.1209957866    0.5188028177   -0.2381530510
 C   -0.0004291444    1.4110787724    0.9194271501
 N    1.1994098403    2.1866463176    1.2167989173
 C    1.4943760566    3.2839024213    0.4356422032
 N    0.5862501636    3.9447390089   -0.2717478955
 N    1.3374116830    4.9599682461   -0.7921883644
 C    2.6132431237    4.8505170507   -0.3918630846
 N    2.7609347631    3.7985971538    0.3907574469
 H    0.3621742650   -0.8797730484   -2.0017629238
 H   -0.8193419475    2.1184232985    0.7600648404
 H   -0.2540599428    0.8233274505    1.8086029525
 H    2.0224053205    1.6358026704    1.4164816498
 H    0.9076523453    5.6377698987   -1.3980619203
 H    3.3893563000    5.5413868271   -0.6855807419