18

 O   -0.1823464383    1.4143113726    0.3023518994
 C   -0.0196299638    0.0364872208    0.0510941790
 C    0.6993110942   -0.6476525631    1.2422984590
 C   -0.4375560419   -0.8489917328    2.2534345802
 C   -1.5984297449   -1.3639056577    1.3824497721
 C   -1.4066954323   -0.6807732808    0.0003019990
 C    0.7524388907   -0.1489039092   -1.2345904381
 O    1.1674816787    0.7819310564   -1.8826222835
 H    0.3005085745    1.8663758237   -0.4078709086
 H    1.1037062910   -1.6208208796    0.9322319657
 H    1.5241782252   -0.0297363226    1.6036616408
 H   -0.1737521643   -1.5327211522    3.0647446009
 H   -0.6932544600    0.1182708770    2.6978659233
 H   -1.5318304631   -2.4521189131    1.2769312207
 H   -2.5777107306   -1.1458385633    1.8157305457
 H   -2.1585520543    0.0833453018   -0.2042715566
 H   -1.4525819502   -1.4134313259   -0.8125486935
 H    0.9241319395   -1.1996720621   -1.5492223756