19

 C   -0.0102740258    1.4819447999    0.0095299255
 N    0.0003530372    0.0281144379    0.0015190288
 C    0.5637280641   -0.5040585653   -1.2339106849
 C    0.3961449650   -2.0309037635   -1.3031226304
 C    0.9539303704   -2.7034740141   -0.0587181711
 O    1.6772323646   -3.6709174183   -0.0987140887
 C    0.5192577724   -2.0440204417    1.2405883915
 C    0.6801368191   -0.5164605701    1.1712278369
 H    1.0023102558    1.9264481144   -0.0371875522
 H   -0.5803659650    1.8529488780   -0.8478694837
 H   -0.4947159785    1.8438240350    0.9217480679
 H    0.0491993044   -0.0387863331   -2.0811227144
 H    1.6385597981   -0.2497115622   -1.3340337328
 H   -0.6759415269   -2.2608954028   -1.3553707327
 H    0.8843467500   -2.4485208098   -2.1865267975
 H   -0.5428875528   -2.2750680673    1.3937532862
 H    1.0902784490   -2.4704610342    2.0683755862
 H    1.7597407082   -0.2626236665    1.1696957274
 H    0.2500619704   -0.0601845963    2.0689104280