16

 C    0.1175785608    1.3929119855   -0.4153419981
 C   -0.0157951605    0.0369736773    0.2847647818
 O    0.3069909211    0.1917411048    1.6539516715
 C   -1.3917308166   -0.5589647303    0.1139693756
 N   -2.0877004684   -0.8941461913    1.1965503818
 N   -3.2429107570   -1.4018755773    0.7258859684
 C   -3.3008464623   -1.3988744745   -0.6267809305
 C   -2.1124798659   -0.8583617441   -1.0669597789
 H    1.1203779672    1.7935348733   -0.2440628250
 H   -0.0391833138    1.2989695254   -1.4947596384
 H   -0.6133703094    2.0998353386   -0.0125742568
 H    0.7089179192   -0.6563390986   -0.1762223770
 H   -0.4007270672   -0.2302697102    2.1583843530
 H   -3.9385111456   -1.7239516021    1.3765849464
 H   -4.1628770944   -1.7717083781   -1.1573201225
 H   -1.8095668174   -0.7041010585   -2.0895776314