23

 C   -0.0689040897    1.5226965657    0.0427370110
 C    0.0295345358   -0.0016989036    0.0129806994
 C   -1.2938463208   -0.6320332092   -0.4119740717
 C   -1.4223262322   -2.1130899236   -0.0447078523
 C   -1.1308208092   -2.3120566543    1.4465091177
 C    0.3374369712   -1.9846800400    1.7483343275
 C    0.7898593153   -0.5952916146    1.2455853134
 C    1.9861688178   -0.6272414908    0.2710617282
 O    1.1266979888   -0.4073992045   -0.8635136296
 H    0.8978242557    1.9758065348    0.2817322417
 H   -0.3881008989    1.9002525224   -0.9342641228
 H   -0.7959968342    1.8526687838    0.7927619697
 H   -2.1114392782   -0.0769485298    0.0664833263
 H   -1.4004563307   -0.4797637104   -1.4929420983
 H   -2.4267723713   -2.4690695654   -0.2973501734
 H   -0.7152060981   -2.7060522657   -0.6384856998
 H   -1.7979207627   -1.6695046258    2.0382054499
 H   -1.3417054693   -3.3432011819    1.7506785008
 H    0.5336890340   -2.0677263066    2.8226475965
 H    0.9528781564   -2.7555581338    1.2680995913
 H    0.8834903220    0.1074366595    2.0771916422
 H    2.7110447178    0.1885348529    0.4008451249
 H    2.5309362906   -1.5754960089    0.1963917473