21

 C   -0.0475539086    1.5190993709   -0.3332195730
 C    0.0281140826    0.0051649759   -0.1164901132
 C   -1.3176740936   -0.5727597104    0.2914333130
 O   -2.3374358357   -0.4124309461   -0.7291030605
 C   -2.3812901259   -1.8320773865   -0.9859146357
 C   -1.4737081458   -2.1126965685    0.2382782402
 O   -0.2814164716   -2.8158306708    0.0019511538
 C   -2.1935667197   -2.6978314275    1.4439204609
 O   -2.3572363002   -4.0882945573    1.1763418547
 H    0.9151654384    1.9184898023   -0.6655362199
 H   -0.7981930551    1.7578683709   -1.0919298083
 H   -0.3259182769    2.0408648225    0.5896233807
 H    0.3706943811   -0.4952916028   -1.0276948102
 H    0.7582463418   -0.2398868926    0.6644654878
 H   -1.6520813068   -0.1154142602    1.2355138156
 H   -3.4024299938   -2.2284732143   -0.9583679569
 H   -1.9054915035   -2.0993700976   -1.9371532030
 H   -0.4810776891   -3.7433883994    0.1855317443
 H   -1.5768693456   -2.5373303143    2.3410387456
 H   -3.1604923996   -2.1963243209    1.5911882160
 H   -2.6419878522   -4.5297466433    1.9811269681