21

 C   -0.0095478693    1.5380822873    0.0281310054
 C   -0.0196912049    0.0128887602   -0.0103140672
 C    0.7153149334   -0.5497572701   -1.2633877899
 C    0.6980736084   -2.1013131688   -1.2206993444
 C   -0.0457640661   -2.5243973013    0.0632289615
 O    0.6965156601   -2.0073534289    1.1868348975
 C    0.7180179412   -0.5844024738    1.2161853408
 C   -1.4276258583   -1.9201531666    0.0480933557
 C   -1.4087398672   -0.5873678096    0.0074344737
 H    1.0136997172    1.9287514514    0.0312341758
 H   -0.5219750769    1.9540921895   -0.8460217350
 H   -0.5158029055    1.9158459377    0.9233581020
 H    0.2310494453   -0.1707756312   -2.1681970871
 H    1.7444285320   -0.1729097572   -1.2675620406
 H    0.2019868753   -2.5239705069   -2.0995866383
 H    1.7132575757   -2.5073870728   -1.1857466535
 H   -0.0502977708   -3.6077356396    0.1937591259
 H    1.7658158469   -0.2483021519    1.2163528615
 H    0.2493617552   -0.2357160302    2.1473946179
 H   -2.3238523528   -2.5293206738    0.0788980258
 H   -2.2921837190    0.0436058567    0.0104931628