23

 C   -0.9151589332    1.1976508924    0.0973302618
 C   -0.2288200333   -0.1772070267    0.0606380422
 C    0.5174378015   -0.4599320639   -1.2785144167
 C    2.0054638120   -0.3101625915   -0.9937599256
 C    2.4827046804    0.9490845029   -0.3144786134
 C    2.2025455710   -0.2921446952    0.5029488529
 C    0.8429494241   -0.4423575618    1.1749426210
 C    0.7001134647    0.3786844709    2.4507361470
 O   -0.5448912917    0.0481612880    3.0588921502
 H   -0.2240077907    2.0325072657   -0.0538328866
 H   -1.6657771183    1.2559307143   -0.6982175489
 H   -1.4248874695    1.3453936563    1.0528345038
 H   -1.0287750204   -0.9127235574    0.1847457316
 H    0.3251246437   -1.4873717274   -1.6090455313
 H    0.1674900264    0.1992706290   -2.0817398660
 H    2.7038635694   -0.8322978974   -1.6391461143
 H    3.5255408567    1.2158288483   -0.4515294492
 H    1.8217400389    1.8048472192   -0.2463910109
 H    3.0484348721   -0.7944281293    0.9615243142
 H    0.7468987137   -1.4937184964    1.4771065517
 H    1.5387749281    0.1435479591    3.1252446161
 H    0.7585542809    1.4533131700    2.2232334274
 H   -0.6359990962    0.5722388109    3.8599782630