13

 N   -0.0081330717    1.3243177824   -0.0841995612
 C    0.0146199176   -0.0285796977   -0.0295716676
 N   -1.1802010586   -0.6559696675   -0.0239155547
 C   -1.0779263340   -1.9802094904   -0.0037006294
 N    0.0345334195   -2.7058698565    0.0146757793
 C    1.1586660954   -1.9591681130    0.0161075600
 N    2.3345654885   -2.6287993501    0.0686749753
 N    1.2133111345   -0.6225470744   -0.0078747548
 H    0.8488831735    1.8248053688    0.0727870358
 H   -0.8892790141    1.7863951959    0.0564814011
 H   -2.0149319590   -2.5354293917   -0.0019964351
 H    2.3162873352   -3.6238005762   -0.0705545418
 H    3.1846969431   -2.1177068696   -0.0916131771