20

 C    0.3154180395    1.6634604998    0.0745405691
 C    0.0107805150    0.1706847254    0.0380229098
 C    0.1008404278   -0.3997809638   -1.3890047792
 N   -0.1744060392   -1.8193379495   -1.5501980278
 C    0.6929238366   -2.7512398180   -0.8305621725
 C    0.3321336095   -2.8821747336    0.6484518922
 O   -0.1168884213   -3.9002805828    1.1225893954
 C    0.5041752318   -1.6403714934    1.5358345118
 O    0.9561426753   -0.4759046312    0.8918197013
 H    1.3331996317    1.8513371580   -0.2819984022
 H   -0.3811563428    2.2195919930   -0.5601869874
 H    0.2373928094    2.0441979919    1.0958401346
 H   -1.0050147048   -0.0072592708    0.4303671779
 H   -0.5904035317    0.1520682827   -2.0372804581
 H    1.1153848425   -0.2078466840   -1.7629435553
 H   -1.1509353034   -2.0320392089   -1.3778154536
 H    0.6118147607   -3.7484111052   -1.2738576983
 H    1.7269895502   -2.4026128798   -0.9325264620
 H   -0.4448999874   -1.4738272445    2.0693667785
 H    1.2543986304   -1.8946116353    2.2937028058