13

 C   -0.0096163266    1.3241532958    0.0099051782
 C    1.2815783773    1.8352338527    0.0002498059
 N    1.8226521904    3.0700945759    0.0019614906
 C    3.1331778070    3.1345470083   -0.0104609999
 C    3.9882181228    1.9925719300   -0.0252784777
 C    3.4262877922    0.7515905034   -0.0268281366
 N    2.0682401242    0.6841180508   -0.0139501667
 N    1.3041125881   -0.4323002433   -0.0127292525
 N    0.0555228561   -0.0224125835    0.0016234298
 H   -0.9454741593    1.8566626790    0.0219987847
 H    3.5727272798    4.1289105482   -0.0091137100
 H    5.0639511987    2.1071680903   -0.0351137638
 H    3.9551246895   -0.1926220474   -0.0373189622