14

 O    0.0864546341    1.3475718920   -0.0341435406
 C    0.0549021073   -0.0130480111   -0.0045398161
 C    0.0455466894   -0.8283708115   -1.1094401117
 N    0.0824420738   -2.1848839039   -0.7005016892
 C    0.0206077232   -2.1660082858    0.6611084910
 C    0.0417880581   -0.8720504470    1.1421157620
 N    0.0824529087   -0.8623680233    2.5229430724
 C    0.0807149072   -2.1313892703    2.8519840650
 N    0.0568097331   -2.9901928971    1.7562894642
 H    0.1009009193    1.6581044859    0.8767198571
 H    0.0511653194   -0.5753995663   -2.1557113530
 H   -0.2184249513   -2.9374561183   -1.2951971388
 H    0.0876272310   -2.5236926502    3.8579339966
 H    0.0245853069   -3.9939419330    1.7911967813