11

 O    0.2093547055    1.3066093353    0.1630137855
 C    0.0743750130   -0.0160342722    0.0800955509
 N    0.1418900643   -0.7239051728   -1.0095145813
 O   -0.0525942024   -2.0306906967   -0.6097194330
 N   -0.2541720400   -2.1164945873    0.7405970807
 C   -0.1701802194   -0.8951459094    1.1812691284
 O   -0.3190202689   -0.5115761525    2.4647152933
 C    0.0751532689   -1.3928484244    3.4610440599
 O   -0.1359024344   -1.1482264677    4.6003901988
 H    0.3603304217    1.6580745088   -0.7250542012
 H    0.5849445616   -2.2771871613    3.0519319379