14

 O    0.5035595001    0.6567426312   -0.8419238544
 C   -0.1339287521    0.2975281119    0.3580804123
 C   -1.4493636861   -0.4047717311    0.1416409916
 C   -1.9656264384   -0.8144094967   -1.0255531824
 C   -3.2734466978   -1.4740743693   -1.0702954476
 O   -3.8073696907   -1.8541552663   -2.0862563819
 N   -3.9069099310   -1.6508911757    0.1985957250
 C   -3.3203713732   -1.2297694579    1.2388867265
 O   -2.1164942708   -0.5981958889    1.3170666720
 H   -0.0095183191    1.3564947748   -1.2601549217
 H    0.5477684470   -0.3796291913    0.8867610467
 H   -0.3038519823    1.1548916828    1.0279957825
 H   -1.4137571236   -0.6683263840   -1.9440680782
 H   -3.7460765722   -1.3347798995    2.2334249197