21

 C    0.0102896762    1.5339585943    0.2338768603
 C    0.0057795420    0.0322128868   -0.0899607111
 C   -1.3862352136   -0.5413629482   -0.0900047971
 C   -2.0709246256   -1.0232896065    1.1449715224
 O   -3.3167973542   -0.4742022134    1.5205733776
 C   -1.9197624318   -2.0014682267    0.0180242975
 C   -2.9787698385   -1.7286119312   -1.0519639064
 C   -2.4341631695   -0.2644013589   -1.1856620316
 O   -3.3024753207    0.8255003920   -1.0201598175
 H    1.0200762324    1.9503110433    0.1661329006
 H   -0.6360490735    2.0832198656   -0.4571470505
 H   -0.3645547160    1.7151758306    1.2466142262
 H    0.4649903935   -0.1340242804   -1.0735463445
 H    0.6305280960   -0.5074418930    0.6332790036
 H   -1.4013454240   -1.1903284326    1.9891452362
 H   -3.8654487012   -1.1806361897    1.8782414951
 H   -1.3586197656   -2.9218870147    0.1344556171
 H   -2.8455213150   -2.3164569551   -1.9624684973
 H   -4.0209229500   -1.8101795600   -0.7289664024
 H   -1.9477188840   -0.1232599695   -2.1554181427
 H   -3.6760263870    0.7320847273   -0.1337056855