14

 O    0.0411478851    0.2294089219   -0.5891940125
 C   -0.0484923328    1.3058456243   -0.0926227218
 C   -1.3107050224    2.1146264793    0.2326427920
 C   -0.7967691100    3.3940112398    0.8533314259
 C    0.6942211932    3.2491036306    0.8708093501
 O    1.0647414442    2.0346724511    0.2828782401
 C    0.0688554388    4.3075740451   -0.0254233967
 C    0.0652459572    4.1674406269   -1.4525069392
 N    0.0394049413    4.0434851670   -2.6022085437
 H   -1.8842616151    2.2529570976   -0.6879531623
 H   -1.9308214975    1.5432768110    0.9283128769
 H   -1.3372214215    3.8590476332    1.6672370737
 H    1.3430470511    3.5456355931    1.6846967285
 H    0.1689825185    5.3290140391    0.3272129388