16

 N    0.0430116718    1.4027453725    0.0749784575
 C   -0.0146455622    0.0277502575    0.0665201537
 C   -1.1638796395   -0.6822210634    0.0587227861
 C   -1.1888130453   -2.1481768993    0.0408770051
 O   -2.2124962698   -2.8015078011   -0.0904046299
 N    0.0511723866   -2.7677866960    0.1419241885
 C    1.1795190692   -2.0655874570    0.7288662903
 C    1.3158312828   -0.6862022706    0.0827738014
 H    0.8969552163    1.8314543436   -0.2452447530
 H   -0.7909319231    1.8998410528   -0.1991080555
 H   -2.1341084622   -0.2009582199    0.0083616530
 H   -0.0259830610   -3.7591519934    0.3186697652
 H    1.0635738789   -1.9397445577    1.8179842746
 H    2.0894738732   -2.6494841780    0.5612900281
 H    1.6762325488   -0.7888476451   -0.9500488555
 H    2.0563345155   -0.0931318350    0.6304984103