20

 C   -0.1860951696    1.5711196432    0.0636425906
 C   -0.0405749016    0.0763208310   -0.0196376810
 C   -0.0431458397   -0.5794239437   -1.1826788782
 C    0.1650033827   -2.0629904321   -1.3434742056
 C    0.3425470711   -2.7767305065   -0.0275875104
 C   -0.2701250452   -2.1385983109    1.1876029485
 C    0.1278508705   -0.6570052143    1.2937213685
 N    0.9701394086   -3.8761500730    0.1402142188
 O    1.4717670627   -4.3894161386   -1.0714872938
 H    0.6722316166    2.0217688997    0.5791818611
 H   -0.2639744318    2.0280094131   -0.9265581397
 H   -1.0758111098    1.8522487248    0.6420576740
 H   -0.1679466811   -0.0200680407   -2.1077427912
 H   -0.6816478711   -2.5112816949   -1.8869798600
 H    1.0370236187   -2.2629370589   -1.9765059735
 H   -1.3639009747   -2.1942078495    1.0940110488
 H    0.0143403384   -2.7009834882    2.0798429999
 H    1.1708473425   -0.5708319592    1.6315096744
 H   -0.4757002884   -0.1709411499    2.0702841224
 H    1.9412701014   -5.1754624913   -0.7741520836