19

 O    0.1548148551    1.4458993418   -0.1412272314
 C    0.0835222678    0.0491104001    0.0083548803
 C    0.2426084232   -0.5448681917    1.4913611046
 C   -1.2907294885   -0.6757409609    1.4976748568
 C   -2.6429981029   -1.4525920669    1.4838692138
 C   -2.7951221853   -0.2422525382    0.4308786521
 C   -2.1365569906    0.6401032211    1.5078355914
 C   -1.3556714852   -0.6146513133   -0.0418354363
 O   -1.1956634959   -1.7659806894   -0.8412261583
 H    1.0800762519    1.7039987483   -0.0758067910
 H    0.7268300759   -0.4572576044   -0.7205750955
 H    0.7775689231   -1.4976636311    1.4629212005
 H    0.6938253968    0.1106319827    2.2419238046
 H   -2.6228888983   -2.4713964951    1.0911213932
 H   -3.2895939779   -1.3890438767    2.3644197075
 H   -3.6917278188   -0.0146547332   -0.1577044887
 H   -2.7220292225    0.7988070930    2.4169736735
 H   -1.6528701867    1.5531712315    1.1698582096
 H   -2.0422931310   -2.2170550775   -0.9057960866