17

 N   -0.0195407106    1.4576067468    0.1512654495
 C    0.0181955591    0.0413333261   -0.0012268234
 C    1.2037312678   -0.6557462063    0.7314080249
 C    1.0968691806   -2.1495757181    0.7455534153
 C    1.5367998214   -1.4773539604   -0.5250675077
 C    0.3462746077   -0.8311678806   -1.2539906080
 O   -0.9449105782   -1.5130136398   -1.1076857027
 C   -1.3092782515   -0.7087715534   -0.0340283373
 N   -2.3912204144   -0.6421841486    0.5950646737
 H    0.8803895292    1.8790170480   -0.0535559100
 H   -0.7213510973    1.8834281662   -0.4443444978
 H    1.8570565504   -0.1113269996    1.4027231639
 H    1.8922121594   -2.6538851696    1.2849243762
 H    0.1352902279   -2.6479687422    0.8046331858
 H    2.4968778119   -1.6792233890   -0.9829798347
 H    0.4914745680   -0.4438615509   -2.2616786050
 H   -3.0745118315   -1.3098265085    0.2315777374