17

 C   -0.0062413924    1.4635051315   -0.0044186548
 N   -0.0535091149    0.0149853182   -0.0399354929
 C   -1.2368567625   -0.6620341084    0.0432066215
 O   -2.3181090165   -0.1084502563    0.1509139463
 N   -1.1153388013   -2.0632629928   -0.0051926535
 C    0.1645138710   -2.7471838916   -0.1333513328
 C   -2.2809570305   -2.8156752407    0.0741270350
 N   -2.2626586192   -4.0879914602    0.0380030588
 H    0.5806221959    1.8218279940    0.8487995031
 H    0.4287355952    1.8702682969   -0.9242707100
 H   -1.0308839301    1.8216924285    0.0931197473
 H    0.8095027534   -0.4901346530   -0.1273772683
 H    0.8225107543   -2.5249454828    0.7145969770
 H   -0.0437940082   -3.8165852339   -0.1443513870
 H    0.6697661774   -2.4768486839   -1.0676987583
 H   -3.1565831211   -2.1742506714    0.1664942343
 H   -3.2108159205   -4.4497323141    0.1093335144