20

 C    0.0038693837    1.5710069304    0.0019909584
 C    0.0676093896    0.0511019342    0.0362373577
 O   -1.2354579153   -0.4971182476   -0.1401724745
 C    1.0915358113   -0.7080611577   -0.8187379450
 C    1.2264848225   -1.7708446503    0.1970017334
 N    2.3860617723   -0.8747357673   -0.0688476696
 C    2.1494310502   -0.2105100347    1.2574806125
 C    0.6960911411   -0.7113121239    1.2531290678
 C   -0.1107083013   -0.9426825512    2.5012945898
 H    0.9853859483    2.0340825826    0.1264623633
 H   -0.3915555817    1.9075830927   -0.9646546130
 H   -0.6660562337    1.9440158141    0.7831570850
 H   -1.5610580237   -0.2210368839   -1.0032643714
 H    1.1495260721   -0.7749165167   -1.8988956639
 H    1.2555772844   -2.8505962975    0.1426071013
 H    2.7669812458   -0.7187814201    2.0038160094
 H    2.3473542709    0.8664728010    1.2976950702
 H   -0.2660933319   -0.0022710862    3.0436743599
 H   -1.0931105501   -1.3551617909    2.2574882126
 H    0.4004525555   -1.6345567867    3.1789858861