17

 C   -0.5189054080    1.3384152690    0.0256624981
 C    0.1839595657   -0.0032858176   -0.0752074911
 N    1.5409530562    0.0249750991   -0.6566565559
 C    2.0459690677   -0.9633577530    0.3191801183
 C    0.8154705842   -0.6732616809    1.2234890567
 C    1.0884635720    0.3403574995    2.3384336707
 O    2.1477321107    0.8761709905    2.5089771725
 C    0.0771685165   -1.8005667958    1.7612335193
 N   -0.5194662041   -2.6873905113    2.2033923223
 H    0.1218073785    2.0855940529    0.5012763510
 H   -0.7604647409    1.6984022201   -0.9798645379
 H   -1.4570664155    1.2538642445    0.5841400943
 H   -0.4826469145   -0.7422884352   -0.5421877600
 H    1.5989101785   -0.2536396626   -1.6295105129
 H    2.0590987644   -2.0033242993   -0.0272190499
 H    3.0069528439   -0.7012811305    0.7674067049
 H    0.2102207448    0.5533108906    2.9828101997