20

 C   -0.3040559476    1.3752467188   -0.1386873102
 C    0.0215059262   -0.0901265286    0.0376081589
 C   -1.1569731065   -1.0457489812    0.4052904022
 C   -0.4159284312   -1.4726220927    1.7082571060
 C    0.8349908221   -0.6927680488    1.2479575897
 C    1.7398036691   -1.4618332782    0.2463818842
 C    1.0649630700   -0.7115063183   -0.9519542928
 C    0.5730258962   -1.4995922607   -2.0689977620
 N    0.1585827659   -2.1416616945   -2.9377851924
 H    0.6034140568    1.9854975253   -0.2107568709
 H   -0.8914089021    1.5380860211   -1.0506286114
 H   -0.8935694761    1.7498802336    0.7052062497
 H   -2.1049835738   -0.5277763813    0.5678186936
 H   -1.3319964304   -1.8461472188   -0.3177636545
 H   -0.8705189739   -1.0454036637    2.6057613984
 H   -0.2815449891   -2.5456369837    1.8717012391
 H    1.3537972707   -0.0680322671    1.9767414078
 H    2.8104417273   -1.2694483135    0.3305575630
 H    1.5820755465   -2.5427621864    0.2387847580
 H    1.7256337299    0.0691908686   -1.3411418165