16

 O   -0.0501928725    1.2600834214   -0.3822252824
 C   -0.3593157862   -0.0990217315   -0.3234689007
 C   -0.3828168804   -0.8392219381    0.9626226537
 O   -0.8219810969    0.0586170980    1.9983191564
 C   -2.1528854414    0.1057428649    1.4040718152
 C   -2.6974744987    1.5343222700    1.2688962031
 C   -4.0695436151    1.5234210940    0.7711955831
 N   -5.1544435039    1.4842142682    0.3754317666
 C   -1.6823488830   -0.6627057616    0.1762914772
 H    0.2021216813    1.5208226981    0.5132271285
 H    0.0367220611   -0.6514027275   -1.1718120710
 H    0.2064794138   -1.6981626161    1.2615010039
 H   -2.8323772972   -0.4941886420    2.0197671127
 H   -2.6766327891    2.0199905840    2.2515293191
 H   -2.0675271047    2.1086716242    0.5855403976
 H   -2.2741631769   -1.3715648959   -0.3859436032