23

 C   -0.1543066219    1.5895747006   -0.0956403240
 C    0.0244441660    0.0602055827    0.0111691959
 C    0.6952783002   -0.4783667087   -1.2313009357
 C    1.9266527475   -0.9868648569   -1.2641880398
 C    2.8225805962   -1.0817383320   -0.0572682191
 C    2.2983425037   -0.2379700522    1.1119483975
 C    0.7810956895   -0.4138332480    1.2755626040
 C    0.2626985340    0.2286741801    2.5596887016
 O    0.8164660229   -0.4869630623    3.6576737000
 H    0.8089760897    2.1084855125   -0.0706812402
 H   -0.6394053802    1.8496517182   -1.0422599318
 H   -0.7784241750    1.9835571903    0.7125768382
 H   -0.9874661662   -0.3696971504    0.0537729204
 H    0.1124122951   -0.4232060565   -2.1491420920
 H    2.3243902840   -1.3644945227   -2.2038975399
 H    2.9114767819   -2.1353769186    0.2481827215
 H    3.8407890008   -0.7722053210   -0.3257755525
 H    2.7999726816   -0.5119563080    2.0437281130
 H    2.5253514417    0.8202521240    0.9264540677
 H    0.5855792160   -1.4903712642    1.3791270564
 H    0.5516117269    1.2903589834    2.6001912349
 H   -0.8392477507    0.1863766772    2.5797229542
 H    0.5794540862   -0.0259611974    4.4671777798