20

 C   -0.0545531197    1.5734460907   -0.0192513147
 C    0.0030276271    0.0437451565   -0.0020262002
 C    0.7160724519   -0.5062566322    1.2360615102
 C    0.8144969748   -2.0379080945    1.2456934201
 N    1.6818661610   -2.5511961120    0.1654450412
 C    2.5777135021   -3.2541922985    0.7373426462
 N    2.4859816735   -3.3498204669    2.1210093057
 C    1.4007083713   -2.5843085469    2.5507430892
 N    0.9624494675   -2.3549215125    3.7203167338
 H    0.9516033418    2.0076206147   -0.0201442396
 H   -0.5752861338    1.9418451958   -0.9087204287
 H   -0.5801897945    1.9625539801    0.8600722075
 H   -1.0166167098   -0.3626168276   -0.0396010586
 H    0.5129082584   -0.3234664760   -0.8991525320
 H    1.7299677284   -0.0904170436    1.2993225040
 H    0.1943225884   -0.2063329352    2.1522172806
 H   -0.1917652826   -2.4549798420    1.1064849386
 H    3.3796445359   -3.7713324978    0.2193097086
 H    3.1401458104   -3.8210319495    2.7229607598
 H    1.5172817478   -2.8221221825    4.4393556281