19

 C   -0.0591604446    1.5546159039   -0.0842199865
 C    0.0061434502    0.0432523922   -0.0326473905
 C    1.3337299700   -0.6740885975   -0.2604091119
 C    0.6879080158   -0.6697515047    1.0885174668
 C    1.1924211348   -0.1946606996    2.4512331365
 C   -0.0360743298   -0.8287688926    3.1852393362
 O    0.7656536546   -1.5718979385    4.1494710193
 C    1.5093471881   -1.6613098718    2.8989035863
 C    0.2389287310   -1.8115353129    1.9976013501
 H    0.8402202357    2.0026593836    0.3512648126
 H   -0.1411746285    1.9135953901   -1.1161637415
 H   -0.9220629930    1.9386528835    0.4716482510
 H   -0.8645434868   -0.4587010387   -0.4504965613
 H    1.3318771205   -1.5911266237   -0.8417008278
 H    2.2143064315   -0.0556446692   -0.4114357484
 H    1.7331974583    0.7065826276    2.7380791782
 H   -0.9683673827   -0.3715595240    3.5152836207
 H    2.4501359763   -2.2103889932    2.8811810505
 H   -0.2988248614   -2.7311520547    1.7680316597