17

 O   -0.0588902744   -0.0103021450   -0.0989438980
 C   -0.0363976019    1.1925467078   -0.0455591760
 N   -1.0111006644    2.1551737194   -0.0266344543
 C   -0.0967822296    3.3040416839    0.0146523241
 C    1.0688375176    2.2805826381    0.0245652451
 C    2.1841917328    2.2859154039    1.0948083482
 C    3.1695279787    2.2615463086   -0.0706647233
 C    2.8809362725    1.1536760789   -0.9991671378
 N    2.0561886553    2.3826799966   -1.1026867318
 H   -2.0162855549    2.0914436717   -0.0870315783
 H   -0.1156548545    3.9304691408   -0.8814914479
 H   -0.1911034927    3.9206283374    0.9144783592
 H    2.2036709147    3.2214526537    1.6579595771
 H    2.2204818099    1.4445615098    1.7922506517
 H    4.0693360491    2.8632883195   -0.1433841632
 H    3.5428872146    1.0341110002   -1.8510237911
 H    2.4085918973    0.2415819848   -0.6468215737