20

 C   -0.2851539428    1.4766743671    0.0611562287
 N    0.0861476418    0.0849130596   -0.0632361361
 C    0.6867541500   -0.4264395065   -1.3204709609
 C    0.1845007214   -1.8433401524   -1.7489552381
 C    1.4688910137   -2.4980664344   -1.1246988754
 C    1.8045663937   -1.1474543715   -0.5107739213
 O    3.0912577179   -0.6088553283   -0.2752679197
 C    2.5665749409    0.2241800246    0.7962029897
 C    1.1796566476   -0.4845883364    0.7417510717
 H    0.5283396983    2.1917956075   -0.1608764345
 H   -1.1145312179    1.6959371688   -0.6196318685
 H   -0.6326678036    1.6723800878    1.0817043318
 H    0.8804542083    0.3052535469   -2.1091518747
 H   -0.7479028557   -2.1170021601   -1.2529259675
 H    0.0808780738   -1.9931869996   -2.8256051051
 H    1.3410741287   -3.3450703380   -0.4456044066
 H    2.1982589953   -2.7730180532   -1.8927475405
 H    3.1347387133    0.0783006169    1.7210002684
 H    2.5697377388    1.2872673426    0.5297715193
 H    0.8734465165   -0.9975941514    1.6574091192