17

 N    0.0784433635   -1.1677506187   -0.0520236486
 C    0.0085550818   -0.0113843222   -0.0231017479
 C   -0.0318507940    1.4140652056    0.0089257462
 C   -1.1959315303    2.0761248907    0.1027001965
 C   -1.2212347770    3.5529678833    0.0590753848
 C   -1.0679978571    4.3947976356    1.2839611298
 N    0.0153262962    4.2996469524    0.3058984768
 C    1.1840869218    3.4906497541    0.7033096832
 C    1.2786058663    2.1759303974   -0.0784253827
 H   -2.1403242222    1.5419904197    0.1431648253
 H   -1.8294569871    3.9605432411   -0.7493599977
 H   -1.5728343708    5.3550340243    1.3463031381
 H   -0.9410041389    3.8770305433    2.2329402875
 H    2.0810057278    4.0948789073    0.5324912520
 H    1.1519343348    3.2533053914    1.7753457071
 H    2.0970617271    1.5710978082    0.3213690080
 H    1.5178298580    2.3694738764   -1.1317210083