21

 C   -0.1445948591    1.5409912437    0.0455950642
 C   -0.1162898666    0.0303931385   -0.1700046310
 C    0.9955734529   -0.4247284512   -1.1042157864
 O    1.7800756888    0.3463416485   -1.6174378534
 C    1.0580011342   -1.8539705359   -1.3437617279
 C    1.0981681852   -3.0457645720   -1.5384187644
 C    1.1875076349   -4.4824783331   -1.7885030883
 C    1.6066329055   -4.7651996392   -3.2453123395
 C    2.1536410330   -5.1456198119   -0.7839142731
 H    0.7988551963    1.8926654504    0.4706556377
 H   -0.2901736734    2.0681999203   -0.9006369224
 H   -0.9559749591    1.8167163598    0.7249490084
 H    0.0075425989   -0.5110347216    0.7777661220
 H   -1.0654875413   -0.3372883748   -0.5829064411
 H    0.1896420934   -4.9142739831   -1.6302250454
 H    0.9075789388   -4.3113352279   -3.9522295419
 H    2.6026734357   -4.3591979307   -3.4442711693
 H    1.6299514294   -5.8444845337   -3.4250827137
 H    1.8405917624   -4.9620586530    0.2469969986
 H    2.1793532441   -6.2266523366   -0.9514756648
 H    3.1669327761   -4.7527978464   -0.9084501084