23

 C   -0.1388972117    1.7323492726   -0.0692096449
 C   -0.1699264823    0.2697755207    0.3889762897
 C   -1.3846245594   -0.4896676190   -0.1253211141
 C   -1.4988610791   -0.8573740753   -1.6337377137
 C   -2.1660996740   -2.1951171877   -1.2145370694
 C   -1.5846983890   -1.9932280935    0.2026433480
 C   -0.4268033731   -2.8871805284    0.7070452653
 C   -1.3831089852   -3.2235097509    1.8658138275
 O   -2.3937263887   -2.3382677824    1.3423602417
 H    0.7493668366    2.2491629733    0.3072796051
 H   -0.1280672331    1.8047996510   -1.1620822190
 H   -1.0196439148    2.2763776005    0.2892447631
 H    0.7454904997   -0.2338639863    0.0508225538
 H   -0.1575622239    0.2295822534    1.4865356451
 H   -2.3030910002    0.0210912265    0.1917158984
 H   -2.0728898516   -0.1887180479   -2.2778272535
 H   -0.5133448709   -1.0134802799   -2.0845955775
 H   -3.2565264832   -2.1150928415   -1.1838830057
 H   -1.8911252921   -3.1069426120   -1.7516356408
 H   -0.1645120272   -3.7193702688    0.0509818275
 H    0.4821853797   -2.3581640962    0.9971060958
 H   -1.7310339114   -4.2628811046    1.9093564542
 H   -1.0517990453   -2.9196989337    2.8660139133