16

 O   -0.2582798186    0.0562887948    0.1564747959
 C   -0.0331155804    1.2253677610   -0.0653850267
 C    1.2704412352    1.8581587008   -0.0085521528
 C    1.6810704450    3.2392559674    0.5312548506
 C    2.8210394771    2.5985017617    1.3260032368
 C    2.7501628026    1.4273482921    0.3071017739
 C    3.1753927988    2.0828924527   -1.0361311658
 C    1.8994073469    2.9204450634   -0.9269224475
 H   -0.8524872365    1.9311067051   -0.3423598032
 H    1.0055336868    4.0261601608    0.8419568137
 H    3.7691298977    3.1430902166    1.4007411872
 H    2.4859832416    2.2947386672    2.3203301187
 H    3.0746185895    0.4259143774    0.5743786095
 H    4.1377275304    2.6068521811   -1.0574213831
 H    3.1148913140    1.3799537182   -1.8700441115
 H    1.3872356000    3.4686052995   -1.7075047759