18

 N    0.0303798727   -1.1723115870    0.0553815961
 C    0.0071050287   -0.0168381501    0.0276388123
 C   -0.0147880350    1.4426973261    0.0165740575
 C   -0.7619482397    1.9895550277    1.2528894249
 O   -0.9480649687    3.3834749446    1.1450794002
 C    0.1992582695    4.1425511277    0.8800385513
 C    1.4657693386    4.0187797476    1.6756139646
 C    1.4163977394    3.5294645695    0.2326339135
 C    1.4184008470    2.0299222576   -0.0504022517
 H   -0.5793013599    1.7692334154   -0.8652816470
 H   -1.7622377214    1.5567945070    1.3218017573
 H   -0.2133826719    1.7178818400    2.1674401462
 H   -0.1097276445    5.1333776692    0.5665436792
 H    2.0158694835    4.9253075136    1.9019309185
 H    1.5229509515    3.2604478269    2.4497347094
 H    1.9302291732    4.1377176104   -0.5040451091
 H    2.0530432818    1.4974384911    0.6658416365
 H    1.8363513451    1.8334826625   -1.0409992396