15

 C    0.0472664160    1.5419063181    0.0017595180
 C   -0.0089086011    0.0148638376   -0.0109047308
 C    0.7776262457   -0.6427224994   -1.1825177214
 O    1.7095048056   -1.5358528086   -0.5288860398
 C    1.5088244690   -1.3557089799    0.8042989830
 C    2.4199096097   -2.1765263057    1.6681251535
 O    2.3981713396   -2.1593394523    2.8685588400
 N    0.6118253503   -0.5514066441    1.2022261953
 H    1.0850004092    1.8897201848    0.0267870379
 H   -0.4334444651    1.9521169357   -0.8924504496
 H   -0.4657784322    1.9335895843    0.8832791584
 H   -1.0597938744   -0.2986716628   -0.0220689164
 H    0.1547907046   -1.2336561895   -1.8581820073
 H    1.3534086423    0.0813900843   -1.7680833783
 H    3.1231327109   -2.8073845124    1.0870075177