18

 C    0.0365878600    1.5176083357    0.0581402092
 C    0.0344479514    0.0305226381   -0.0410582638
 C    0.1650349521   -0.8321160791   -1.0981399397
 O    0.3714687445   -0.6938824948   -2.4419625813
 C    0.1562563082   -2.0129892857   -3.0009938314
 C    0.2944435041   -3.0605090207   -1.8499671182
 C    0.0895862813   -2.1702318789   -0.6586772379
 C   -0.0851084614   -2.1361336314    0.7015029827
 N   -0.1103844576   -0.8061597347    1.0651713274
 H    0.8760410702    1.8995914100    0.6539232607
 H    0.1229841687    1.9464854091   -0.9429831073
 H   -0.8863905641    1.9086684374    0.5060581719
 H   -0.8557730924   -2.0444754528   -3.4248551113
 H    0.8791979729   -2.1522323588   -3.8079778746
 H   -0.4428092446   -3.8611345735   -1.9619540743
 H    1.2870677480   -3.5282003694   -1.8539611144
 H   -0.1918168213   -2.9130280491    1.4412177549
 H   -0.2820068098   -0.4752006815    1.9980332175