15

 C   -0.9920621632    0.3479245732    0.3608816039
 C    0.4375525793    0.2251866397   -0.1027529703
 O    1.3805258145    0.7054592359    0.4794052952
 C    0.6915697011   -0.5227327476   -1.4269140076
 C    1.9621834290   -1.3885879699   -1.4087356540
 O    1.4468389838   -2.7196098076   -1.3066361830
 C    0.1188979867   -2.7334872696   -1.5675928771
 O   -0.5570633740   -3.7064177804   -1.6445890105
 O   -0.3453183720   -1.4576151684   -1.7273114509
 H   -1.6226785817    0.7484143723   -0.4401728708
 H   -1.3944585504   -0.6424494932    0.5980603281
 H   -1.0370163246    0.9911958750    1.2397435057
 H    0.7158071084    0.2303755883   -2.2221067938
 H    2.5466042056   -1.3029502247   -2.3288547555
 H    2.5915374777   -1.1674198131   -0.5464282694