19

 O   -0.1016159420    1.3331527166    0.3743917758
 C   -0.0174166351   -0.0329757012    0.0638567702
 C    0.9747286989   -0.5556985342   -0.9377685877
 C    1.1274831915   -0.8825763026    0.5415624666
 C   -1.3904891139   -0.6105387076    0.0780580924
 C   -2.3756105820   -0.8031092540    1.2634225987
 C   -2.9073884446   -1.5579937306    0.0247595579
 C   -2.5962321384   -0.3303413773   -0.8601517610
 O   -1.5281673794   -2.0560540426   -0.2294160024
 H    0.7857251966    1.7046389153    0.3661043398
 H    0.6569882259   -1.3510821562   -1.6019805899
 H    1.6659971769    0.1586008097   -1.3746633668
 H    1.9208193982   -0.3866748624    1.0926182961
 H    0.9113676443   -1.8954100212    0.8613282034
 H   -2.0066657001   -1.4363359459    2.0709286553
 H   -2.9297464526    0.0693188263    1.6152131827
 H   -3.7161691922   -2.2834874118   -0.0527121944
 H   -3.1699459510    0.5840781234   -0.6969577069
 H   -2.4206618708   -0.5492090239   -1.9139213198