17

 O    0.2685549538    1.3748822479   -0.0063133340
 C    0.1089351664   -0.0136121939    0.0145138458
 C    0.3014768780   -0.7130498560    1.3703426288
 O   -0.7191471226   -0.1610827640    2.2201972181
 C   -1.0730439110   -1.2394581979    1.3333535325
 C   -1.3593525088   -0.6021274687   -0.0207589257
 C   -2.5912975313    0.2728212764   -0.2880633706
 O   -2.9825779035   -0.5471740427   -1.4125678247
 C   -1.8542759010   -1.4216443615   -1.2267902797
 H   -0.1403118931    1.7058592826    0.8042330320
 H    0.7267329558   -0.4302655595   -0.7862069552
 H    1.1994724418   -1.0824851760    1.8515032915
 H   -1.4952890182   -2.1312503334    1.7821933895
 H   -3.3503618091    0.2833570368    0.5037728130
 H   -2.3597066971    1.3020470497   -0.5883018292
 H   -1.1860831841   -1.4301002627   -2.0983294842
 H   -2.1622837361   -2.4531221172   -1.0069478680