19

 C   -0.1174597755    1.5770919815   -0.0320683654
 C   -0.0027806530    0.0587487021   -0.0083905402
 O   -1.2920471631   -0.5088859163   -0.1552041254
 C    1.1704379774   -0.6554400575   -0.7846159285
 C    2.1221535285   -0.1868877140    0.3647574469
 C    0.8253207640   -0.6612876712    1.1008844440
 C    0.8805039753   -1.8574407948    0.1307119527
 C    0.2515970431   -3.1541290923    0.0131133404
 O    1.6743306387   -3.0097808981    0.2731388333
 H    0.8305324939    2.0962264515    0.1093551055
 H   -0.5250923049    1.9043056827   -0.9974098712
 H   -0.8110309147    1.9037986886    0.7487306017
 H   -1.7358013583   -0.0583529188   -0.8808797491
 H    1.3650375716   -0.6546386356   -1.8577705109
 H    2.9993131513   -0.8132641255    0.5252322775
 H    2.3763234764    0.8706525871    0.4163580502
 H    0.6243088403   -0.6695355976    2.1721126174
 H   -0.3305340432   -3.5566778344    0.8401885044
 H    0.0013648423   -3.5551069974   -0.9678041033