18

 C   -0.3034760162    1.3556126068    0.1843956053
 O    0.2266162414    0.0831258967   -0.1167751624
 C    0.7535146156   -0.5748806364    0.9925126936
 C   -0.1771878671   -1.1939358057    2.0636192588
 N   -0.9578676127   -2.2659636150    1.4047225203
 C    0.4348718498   -2.5398980729    1.8471824429
 C    1.2989182772   -1.9919528415    0.7274165544
 C    1.7823880688   -2.6014712247   -0.5028210683
 O    2.6769083792   -2.2504364578    0.5753653909
 H    0.4584706757    2.0188088133    0.6236933698
 H   -0.6536595733    1.7909392213   -0.7540664497
 H   -1.1513165465    1.2908054839    0.8820434790
 H    1.5340391334    0.0260902696    1.4882971036
 H   -0.5121905825   -0.7391189803    2.9872215250
 H   -1.5774795580   -2.6585011678    2.1139318241
 H    0.6764103377   -3.3183956605    2.5588352160
 H    1.6470855783   -3.6689661689   -0.6666568655
 H    1.8744414594   -1.9894650300   -1.3972249578