15

 C   -0.0028246342    1.4671828427    0.0329491151
 N   -0.0067524309    0.0213890728    0.0308458882
 C   -0.0675657935   -0.8231815874   -1.0828144158
 N   -0.0569258197   -2.0988471516   -0.8000573163
 C    0.0150456866   -2.1326577816    0.5828114008
 C    0.0455295935   -0.8430337565    1.0893859972
 N    0.1156576457   -0.9107192746    2.4358235691
 N    0.1321695752   -2.2246530143    2.8395322284
 C    0.0722495048   -2.9591205123    1.7324586060
 H    0.9140774059    1.8604837707    0.4853317066
 H   -0.0560717623    1.8197832298   -0.9987763494
 H   -0.8652563310    1.8651405360    0.5787380813
 H   -0.1178923587   -0.3954354897   -2.0747941805
 H    0.1532532729   -0.1910744269    3.1342077847
 H    0.0731385257   -4.0354870370    1.8148300545