16

 O   -0.1029230059    1.4368338653    0.0835046445
 C   -0.0559699237    0.0520692960   -0.1602608250
 C   -1.4520722667   -0.5563892442    0.0002984486
 C   -1.6188661075   -2.0945891075    0.1954128510
 O   -2.1148113085   -1.8772883192    1.5461043405
 C   -1.9488354939   -0.5169633515    1.4274796663
 N   -2.0679426265    0.4167609928    2.2566488567
 C   -2.6191180249   -2.7604724128   -0.7171859031
 O   -3.7542478212   -3.0124913084   -0.4203536403
 H   -0.5241561490    1.5624283862    0.9468537276
 H    0.3100098723   -0.0835061211   -1.1833444808
 H    0.6450743370   -0.4664088898    0.5154535722
 H   -2.1463800779   -0.1134516470   -0.7178578368
 H   -0.6764938048   -2.6554005481    0.2083561598
 H   -2.3631288322    0.0910637657    3.1777841851
 H   -2.2045268265   -2.9818423564   -1.7280961663