14

 N   -0.0788715443   -1.2209164988   -0.1397704928
 C   -0.0860579567   -0.0659618506   -0.0381431076
 C   -0.0850825370    1.3355657960    0.0876380061
 C   -1.0994092621    2.2842786949   -0.0676040387
 N   -0.6618603947    3.5677771561    0.1508600054
 C    0.6116849732    3.3922542790    0.4367422202
 C    1.9833884607    3.9261200448    0.8102464332
 C    2.4165506588    2.4044217892    0.7768780167
 N    1.0101320226    2.1124768924    0.4164437069
 H   -2.1259396926    2.0762572039   -0.3294534070
 H    2.4698110942    4.5547262766    0.0618766493
 H    2.0592088932    4.3998855549    1.7908624299
 H    3.1295215216    2.1313776403   -0.0030660670
 H    2.7164109830    1.9758142414    1.7347784954