18

 O   -0.1353762693    1.4469599642   -0.1010526635
 C    0.0163837765    0.0391850740   -0.0994667747
 C   -1.3761471028   -0.5605938736    0.1310608224
 C   -1.3841666288   -2.0550759882    0.1314648298
 C   -1.6050605811   -2.8999027030    1.1434271861
 C   -1.5173168322   -4.2815635709    0.6629917033
 N   -1.6682823852   -5.3412922739    1.3392286821
 O   -1.2354231467   -4.2399401623   -0.6859412393
 C   -1.1345627401   -2.8809674377   -1.1074932376
 H    0.7335206131    1.8461508338   -0.2031673590
 H    0.4294669181   -0.3197223240   -1.0556973690
 H    0.6955183568   -0.2973354722    0.6988622333
 H   -1.7604214858   -0.1821558736    1.0827316891
 H   -2.0368692750   -0.1778313755   -0.6577276290
 H   -1.8274846591   -2.6605121671    2.1731086818
 H   -1.5537831446   -6.1637467998    0.7451055600
 H   -1.8780259017   -2.6858690097   -1.8931480932
 H   -0.1403560922   -2.7137770805   -1.5436959627