23

 C    0.0181512187    1.5409004460   -0.0345855446
 C   -0.0194255908    0.0123134035   -0.0022803050
 C   -1.3591382331   -0.5258408245    0.5859717945
 C   -0.6789104411   -0.5983873965    1.9788996138
 C    0.7032165960   -0.5793495323    1.2638813437
 C    1.2783812436   -1.9931284479    1.0396450064
 C    1.7908261234   -2.1864374125   -0.3858824231
 O    0.7603584843   -1.9187160690   -1.3223494268
 C    0.4397665123   -0.5400422589   -1.3516098609
 H    1.0357957952    1.9085781461   -0.2095946834
 H   -0.6207233342    1.9305472560   -0.8365041511
 H   -0.3349516172    1.9742007757    0.9062024457
 H   -2.2411976585    0.1119329577    0.4794537135
 H   -1.5926162569   -1.5193947423    0.1937791939
 H   -0.8565952127    0.3021539540    2.5718933858
 H   -0.8943788480   -1.4691623628    2.6036456812
 H    1.4653213195    0.0759222356    1.6978467827
 H    2.0756174812   -2.2004264058    1.7626540121
 H    0.4980790346   -2.7442970318    1.2083058696
 H    2.6604116490   -1.5357473186   -0.5850561058
 H    2.1020836702   -3.2218549301   -0.5542640040
 H   -0.3514425158   -0.4230931286   -2.1012706878
 H    1.3184026505    0.0313378268   -1.7023191103