17

 O    0.1115905299    1.4321402050   -0.1655957194
 C    0.0782206719    0.0172427600   -0.0177624220
 C    0.7640807152   -0.4603119503    1.2621566686
 O   -0.0913897475   -0.3049156602    2.3933166638
 C   -1.3940198102   -0.7534784140    2.1436436308
 C   -1.7084103814   -1.6949417682    0.9335825249
 O   -3.1003103323   -1.2222575558    1.0002376361
 C   -2.2878147955    0.0015982798    1.1185828572
 C   -1.3605830802   -0.5107072422   -0.0182438572
 H   -0.2285728502    1.8164936373    0.6504621592
 H    0.6275901103   -0.3738888665   -0.8806991292
 H    1.0467532484   -1.5190188920    1.1549857080
 H    1.6650778239    0.1242801817    1.4620269869
 H   -1.8801712925   -1.0117728807    3.0847068148
 H   -1.5498936678   -2.7660765965    0.8058566611
 H   -2.8145038026    0.9521601914    1.2085396534
 H   -1.8378595295   -0.5504231688   -0.9985539171