16

 C   -0.1696563136    1.6313033971    0.0425178469
 C    0.0267750506    0.1250793998   -0.0061619036
 C    0.8953347886   -0.5954667618   -1.0779265872
 C    2.2755311897    0.0814388064   -1.0205760529
 C    2.3788443528    0.0916385583    0.5230707645
 O    3.2354184754    0.5328208081    1.2358871858
 C    1.0628802146   -0.6208192689    0.8826379174
 O    1.0845870644   -1.6897697025   -0.1178162706
 H    0.7732113808    2.1844452396    0.0052854745
 H   -0.7894510224    1.9661228293   -0.7957631067
 H   -0.6817117489    1.9193290249    0.9662074358
 H   -0.9248139080   -0.4063806475    0.0763127956
 H    0.5019827791   -0.9137248648   -2.0427728375
 H    3.0515464236   -0.5419020274   -1.4709465843
 H    2.3366607816    1.0876040175   -1.4434972565
 H    0.8957538015   -0.9373398780    1.9101321388