19

 C    0.0214023933    1.5308387143   -0.2930999801
 C    0.0416728127    0.0470002118   -0.0427528671
 O    0.4703187226   -0.6227644421   -1.2280283732
 C    0.4458400978   -2.0032807982   -0.8599964403
 C   -0.0249484357   -1.9018014358    0.5796284544
 C    0.6908271705   -0.6559191519    1.2033572455
 C   -0.6056014711   -0.4163587843    2.0190491378
 O   -0.9382501005    0.8686319607    2.4915227943
 C   -1.1204432060   -0.7807073043    0.6191736983
 H   -0.6520702236    1.7560829691   -1.1260921624
 H   -0.3102850739    2.0677929771    0.5935725570
 H    1.0226360476    1.8722162784   -0.5753518392
 H   -0.2471689811   -2.5593400375   -1.5046691641
 H    1.4462239253   -2.4442497309   -0.9588886957
 H   -0.1540638633   -2.8102956375    1.1682302759
 H    1.7292552794   -0.5990523621    1.5357373547
 H   -0.8021341483   -1.1750183416    2.7883437377
 H   -0.4505665007    1.0229136163    3.3065039520
 H   -2.1553181948   -0.8641185016    0.2845407845