27

 C    0.1398127016    1.3569079860    0.0079820061
 O   -0.0482691671   -0.0380032258    0.0025895333
 C   -1.3913026786   -0.5591173608    0.0123519018
 C   -2.1329715228   -0.0826845763    1.2752672028
 C   -2.1565660656   -0.0691426101   -1.2311522254
 C   -1.1713980275   -2.1229680441    0.0018336247
 C   -0.3549899594   -2.5501866595    1.2411756749
 C   -2.5042260271   -2.8970312969    0.0106751215
 C   -0.3793624297   -2.5368018585   -1.2576981955
 H    1.2212055319    1.5195607042   -0.0008656410
 H   -0.2865764808    1.8500951536   -0.8766647192
 H   -0.2706301703    1.8410750377    0.9050672820
 H   -2.3094781885    0.9960107414    1.2366106772
 H   -3.1123364249   -0.5593578071    1.3611975830
 H   -1.5612988930   -0.2978928141    2.1803374560
 H   -1.6021793997   -0.2747028527   -2.1491317671
 H   -3.1375026375   -0.5448096321   -1.3036253470
 H   -2.3320210835    1.0090883757   -1.1776303960
 H   -0.9148232417   -2.4089365694    2.1705548688
 H   -0.1073024224   -3.6146894497    1.1726107646
 H    0.5755211461   -1.9841365739    1.3117084371
 H   -3.1190307288   -2.6826800850   -0.8683907217
 H   -2.2979414588   -3.9726747868    0.0030517717
 H   -3.1019221910   -2.6919545170    0.9036473603
 H    0.5497529377   -1.9700824187   -1.3401879149
 H   -0.1306896000   -3.6020017587   -1.2054817284
 H   -0.9571251387   -2.3854635115   -2.1744316595