15

 N   -0.0632717047    1.5398640720   -0.1296925501
 C   -0.0106530931    0.2806062018   -0.1450836841
 C   -1.2097185236   -0.5992813446    0.0699206122
 C   -2.5093375363    0.2057916518    0.2235311796
 C   -3.6632154668   -0.6650065999    0.4332747576
 N   -4.5669724062   -1.3650887990    0.5999885433
 O    1.1121023989   -0.4987967758   -0.3961580018
 C    2.3221798730   -0.1208499812    0.1215584006
 O    3.3327700738   -0.6632682588   -0.1884812196
 H    0.8242442597    1.9918498625   -0.3446536462
 H   -1.2792678535   -1.2955032018   -0.7731516602
 H   -1.0324873720   -1.2238037222    0.9531121031
 H   -2.4238628271    0.9019959777    1.0628671478
 H   -2.6771503914    0.8212768489   -0.6653239775
 H    2.2296349593    0.6961310787    0.8565805853