19

 O    0.3423232715    0.9568703331   -0.7829308381
 C   -0.0026791716    0.0566269080    0.2255215708
 C   -1.3608651446   -0.5815496093   -0.0385254188
 O   -1.9985806076   -0.2254409264   -1.0095783623
 C   -1.8564401074   -1.6396964616    0.9212596089
 C   -3.3072907446   -2.0312034200    0.6856175163
 C   -3.6478151141   -2.9300907208   -0.5212435640
 C   -4.2147517160   -3.8923594856    0.5410012217
 O   -3.7355674292   -3.0518474475    1.6160160256
 H   -0.4254839211    0.9741456031   -1.3770384173
 H    0.7485596805   -0.7444696800    0.3205789849
 H   -0.0495320100    0.5499999385    1.2118958898
 H   -1.2088400077   -2.5226487363    0.8275366997
 H   -1.7253606213   -1.2883632299    1.9531439912
 H   -3.9457876957   -1.1411899935    0.7576063175
 H   -4.3545948917   -2.5172253521   -1.2403021350
 H   -2.7740731196   -3.3072272784   -1.0564477389
 H   -5.3085293753   -3.9798478710    0.5524398938
 H   -3.7793895346   -4.8970940404    0.5835777238