19

 C   -0.1139785503    1.5379406492    0.0166483372
 C    0.0391098169    0.0437450209    0.0263230526
 C   -0.8111224907   -0.8594706779    0.8854863069
 C    0.6802849612   -0.9082515054    1.0440946996
 C    1.2666939737   -1.7750701923   -0.0690093489
 C    0.6382047929   -0.7780481828   -1.1425819040
 N   -0.3098343472   -1.2058982712   -2.1575418381
 C    1.7187733712   -0.0409553480   -1.8092529818
 N    2.5868483998    0.5265638097   -2.3196283819
 H    0.8140950788    2.0329591831   -0.2858269670
 H   -0.9005648105    1.8446159811   -0.6818184457
 H   -0.3872863339    1.9050611766    1.0107390476
 H   -1.3577266376   -0.3333849937    1.6617066166
 H   -1.3474659899   -1.7180936787    0.4857772720
 H    1.1777892454   -0.6622129910    1.9734543313
 H    2.3566277633   -1.7952583876   -0.1042941071
 H    0.8853718148   -2.7999980038   -0.1307169638
 H    0.1331671299   -1.8186626623   -2.8353922801
 H   -1.0683860477   -1.7221561859   -1.7255801554