16

 O   -0.0687455590   -0.0276029635    0.3332740658
 C   -0.0391931704    1.1530753965    0.1026370376
 C   -1.3156439319    2.0014847097    0.0133023600
 O   -1.6236472571    2.3674754298   -1.3197591756
 C   -0.8123789614    3.3826366947   -1.8758652112
 C    0.6021097474    2.9120583281   -2.2181898262
 N    1.4745445640    2.7555640403   -1.0579028993
 C    1.3254088862    1.8779462225   -0.0247183673
 O    2.1795840649    1.6875477198    0.8162044139
 H   -2.1438900891    1.3855054036    0.3694909986
 H   -1.2151863371    2.8933874960    0.6540948592
 H   -1.3164767167    3.6830123603   -2.7997340077
 H   -0.7601665374    4.2545158336   -1.2046584989
 H    0.5320858437    1.9804936829   -2.7955834915
 H    1.0692886886    3.6603309289   -2.8641539642
 H    2.3948497955    3.1703067869   -1.0987952033