18

 C    0.5322760608    0.1061582219   -1.5381437384
 C    0.1040258226    0.0910653187   -0.0705731695
 O    0.1065727330    1.3862709093    0.5103062470
 C   -1.2752307005   -0.5515311029    0.1010442845
 N   -1.4473232769   -2.0140871216   -0.2525301971
 C   -0.6981295631   -2.7727127116    0.7465557068
 C   -2.0505060407   -2.2753881926    1.1289312635
 C   -1.9463648131   -0.8154231747    1.4731200194
 O   -2.4082791955   -0.1228094691    2.3307858298
 H    1.5233152324    0.5569147946   -1.6363405828
 H    0.5594268197   -0.9075051581   -1.9494614970
 H   -0.1745618819    0.6910244627   -2.1394592425
 H    0.8481028573   -0.4626616223    0.5109457713
 H   -0.5418761264    1.9284152683    0.0468625726
 H   -2.0006112001    0.0142786610   -0.5010829775
 H   -0.6230873745   -3.8311305191    0.5167764038
 H    0.1851233831   -2.3496857790    1.2158199467
 H   -2.8949989360   -2.9336931954    1.2956782294