15

 C    0.0934738086   -1.1790818435    0.0143419826
 C   -0.0276943264    0.0209826973   -0.0055084563
 C   -0.0942247795    1.4220426299   -0.0331984601
 C   -1.1351857513    2.2638602667   -0.0124475884
 C   -0.5087212739    3.6772789959    0.0216382536
 O    0.6507624982    3.4555740554   -0.7961684742
 C    1.1564152113    2.3697922868   -0.0145846909
 C    1.2028562496    3.0238318993    1.3861143796
 C    0.1591010166    3.8462492422    1.4104838657
 H    0.1775109479   -2.2372266529    0.0315170424
 H   -2.1891971129    2.0354249599    0.0391935308
 H   -1.1142852588    4.5002056965   -0.3533110213
 H    2.0778942601    1.9632238240   -0.4252290363
 H    1.9122193989    2.7811237285    2.1634010474
 H   -0.2215376583    4.4587888539    2.2145740554