21

 C   -1.7823250528    0.1574524149    2.0792685691
 C   -0.9022587610    0.3931186202    0.8779812578
 O   -0.2335636717    1.6659320821    0.7507564184
 C    0.5691306900    0.4797357600    0.8660662638
 C    1.4918103680    0.4400344851    2.0852574104
 C    2.8673551313    1.0093095991    1.7051264201
 O    0.9374959701    1.2127558864    3.1507316981
 C    1.6168777502   -0.9885349904    2.6410854863
 O    2.3934410540   -1.0183618569    3.8208116593
 H   -2.7040366523    0.7418540184    1.9851045601
 H   -2.0665520632   -0.8997480917    2.1223996334
 H   -1.2813838461    0.4243455661    3.0088446437
 H   -1.3533228244    0.0773398093   -0.0654618222
 H    1.0677070065    0.1977517885   -0.0629280598
 H    2.7727062838    2.0510711670    1.3837080554
 H    3.5305784313    0.9623580682    2.5705325608
 H    3.3215985574    0.4374445563    0.8888316882
 H    0.4882480560    1.9600302592    2.7313808012
 H    0.6082694406   -1.3916326151    2.8157957175
 H    2.1178700567   -1.6352237704    1.9129198408
 H    2.0070521456   -0.3565597264    4.4072373075