19

 C    0.4777164707    1.1129825460    0.4170510483
 O   -0.1814424291   -0.0145900137   -0.1449536731
 C    0.4571958536   -0.4943275280   -1.2933400843
 C    1.3440699122   -1.6977579838   -1.0823002123
 O    1.4842978230   -2.1741636062    0.2226422766
 C    0.0062359783   -1.8472410658   -1.7961649527
 C   -1.1488442310   -2.5881488920   -1.1452139931
 C   -0.9063827192   -4.0851541998   -1.1397331593
 O   -1.6644865083   -4.9021323256   -1.5965712596
 H    1.5141118217    0.8811403524    0.6966199473
 H    0.4841980775    1.9560141396   -0.2875518460
 H   -0.0847313870    1.3978907625    1.3085755195
 H    0.7213858422    0.2771076213   -2.0156197795
 H    2.2591780285   -1.8117882366   -1.6545209161
 H    0.9237478793   -1.6169531219    0.7793763776
 H    0.0670490349   -1.9699724354   -2.8742527581
 H   -1.2568725099   -2.2634043140   -0.1043702166
 H   -2.0930483528   -2.3831012243   -1.6572622462
 H    0.0549450455   -4.3832710946   -0.6672660923