21

 C    0.0329106632    1.5033417228    0.0199981271
 C    0.0370854314   -0.0101044366   -0.0674061708
 C    0.7206571549   -0.6355856949   -1.2930275544
 C   -0.0585688437   -1.9671978651   -1.5109390903
 C   -0.7633760018   -2.1733613017   -0.1623067218
 C    0.3181380055   -2.2253607573    0.9614134753
 C    0.2638956119   -0.7290737580    1.3139346000
 O   -1.1598610807   -0.5728129289    1.6056057291
 C   -1.3106194871   -0.7476668634    0.1769758580
 H    1.0538176466    1.8958424157    0.0950307103
 H   -0.4253686036    1.9497448173   -0.8697550524
 H   -0.5259751264    1.8353153002    0.8992232174
 H    0.6481448970    0.0253044901   -2.1622206599
 H    1.7887886553   -0.8048529809   -1.1175326590
 H   -0.7920244358   -1.8533536463   -2.3179221681
 H    0.5893080188   -2.8067978373   -1.7791911148
 H   -1.4923369409   -2.9835195199   -0.1399285747
 H    0.0186338991   -2.8239765262    1.8239638162
 H    1.2911489085   -2.5756124160    0.6049707205
 H    0.9217374500   -0.3306468438    2.0883656708
 H   -2.2762194623   -0.4330463399   -0.2213451387