20

 C    0.1747091219    1.5525965918    0.0664885008
 C    0.0419487596    0.0396723118   -0.0154120054
 C    0.6681682534   -0.5654111723   -1.2954051245
 C    1.1292164869   -2.0075038469   -1.0278385045
 C    0.1965580461   -2.6582524922    0.0384904335
 C    1.0357322227   -1.8543703016    1.0718522730
 C    2.2221689267   -1.9652247265    0.0786996370
 O    0.6165601588   -0.5015278850    1.1814440420
 H    1.2299955604    1.8428239082    0.0723900364
 H   -0.3131206965    2.0271312227   -0.7911071665
 H   -0.2900292630    1.9285891574    0.9821721654
 H   -1.0290967725   -0.2144776504   -0.0165785287
 H   -0.0789260933   -0.5305216946   -2.0970879278
 H    1.5243615536    0.0352186589   -1.6281700887
 H    1.3375074478   -2.5530521492   -1.9510194361
 H   -0.8814029132   -2.4874092015   -0.0122139911
 H    0.3863980323   -3.7295122951    0.1401887163
 H    1.1447017306   -2.2292495055    2.0916651037
 H    2.7515018066   -2.9171960318    0.1758262985
 H    2.9359138712   -1.1371181780    0.0715320366