14

 C    0.0790101110    1.3688003466    0.0070190909
 O   -0.0123006629   -0.0646066410    0.0002948533
 C   -1.2649750613   -0.5509811277    0.0118356298
 O   -2.2658271120    0.1198233368    0.0267226902
 C   -1.2537622327   -1.9984374534    0.0039926804
 C   -1.3169350148   -3.1992371496   -0.0016955278
 C   -1.3595063050   -4.6574594469   -0.0089163340
 C   -2.7220530316   -5.2053593517   -0.0008924481
 N   -3.7842676288   -5.6566314315    0.0052145782
 H    1.1449877842    1.5934444178   -0.0024998003
 H   -0.4115706100    1.7880861786   -0.8746969631
 H   -0.3937945686    1.7786515161    0.9027539100
 H   -0.8342958507   -5.0422806326   -0.8926235968
 H   -0.8203565669   -5.0512865315    0.8623457974