19

 C    0.0795576591    1.4668053428   -0.3326170980
 C    0.0427225562    0.0326937269    0.2096090826
 O    0.5008590180   -0.0184226157    1.5510366115
 C   -1.3504036545   -0.5708758494    0.1279123911
 O   -2.2438297060    0.0027546707    1.0561684909
 C   -1.9203960358   -1.0865561252   -1.1572766204
 C   -1.5546752449   -2.0627477995   -0.0337553474
 C   -0.4548616352   -2.9675475844   -0.1859505751
 C    0.4575791252   -3.7390430535   -0.3244920691
 H    1.0843924860    1.8788404260   -0.2133236431
 H   -0.1909185212    1.5024792806   -1.3932251687
 H   -0.6097337518    2.1142021869    0.2227586553
 H    0.7275357337   -0.5928427726   -0.3722944906
 H   -0.2579175213    0.2194062859    2.0991726433
 H   -2.5528212343    0.8411520020    0.6940037855
 H   -2.9777462462   -0.9308211208   -1.3404820815
 H   -1.2889997300   -1.0902488046   -2.0387572568
 H   -2.4003688391   -2.4436043269    0.5306076350
 H    1.2692288622   -4.4151439491   -0.4303599345