16

 O    0.0802672834    1.4499136544    0.2681035819
 C    0.0294867116    0.0476456632    0.1182446258
 C    0.6175091852   -0.5677152567    1.4052129260
 C   -0.5995975183   -0.8731395153    2.2429785642
 C   -1.7243481825   -0.8221122639    1.5359432001
 C   -1.4482837973   -0.4930739273    0.0767644094
 C   -2.3753958439    0.4446479007   -0.5434822618
 C   -3.1050725869    1.2455515422   -1.0674249055
 H   -0.5659251201    1.8355637055   -0.3370757097
 H    0.5731632099   -0.2664148836   -0.7838932661
 H    1.1887257054   -1.4805858021    1.1886013320
 H    1.3066084300    0.1418111122    1.8735031761
 H   -0.5375225227   -1.1286540455    3.2948112028
 H   -2.7257164550   -1.0168949288    1.8994334672
 H   -1.4629209909   -1.4225704393   -0.5131255666
 H   -3.7730372779    1.9338185242   -1.5238338258