14

 O   -0.1795250233    1.4532763811    0.1194778898
 C   -0.0379023234    0.0689285822   -0.0081414323
 C   -1.3587691326   -0.6780030916   -0.0076710476
 C   -2.1600161685   -0.3325683100   -1.1956049313
 N   -1.0898451980   -1.3358663742   -1.3616295863
 C    0.2039213668   -0.5606070012   -1.4362441481
 C    0.3521261449    0.3624767453   -2.5507093904
 N    0.4828452192    1.1196236696   -3.4147638369
 H    0.6879762194    1.8681907405    0.0583600983
 H    0.6818365805   -0.3422729925    0.7092893147
 H   -1.7526233540   -1.2447511499    0.8277742771
 H   -3.1470865418   -0.7766662570   -1.2678253240
 H   -2.0582538000    0.6434763568   -1.6604550225
 H    1.0364907907   -1.2677542491   -1.4388917605