20

 C   -0.8381535000    1.4286091366   -0.2783600693
 N   -0.5020734240    0.0351151746   -0.0096265412
 C   -1.1790670066   -0.6780258170    1.1090440577
 C    0.0129055599   -1.6772044803    1.2193236343
 C    0.1159259230   -1.5417193005    2.7416428165
 C   -0.2669470529   -0.1109956474    2.2928282114
 C   -0.4619412528    1.0024662131    3.2983244959
 O   -1.0231062200    2.2176071893    2.8243437653
 C    0.5937621738   -0.2577190895    0.9554835205
 H   -0.1280519010    1.8235704647   -1.0134552314
 H   -1.8333520626    1.4698916620   -0.7361378616
 H   -0.8209604849    2.0816145714    0.6050654687
 H   -2.2478361287   -0.9065260477    1.1188642380
 H    0.1609569685   -2.5409858523    0.5732198267
 H   -0.6296377458   -2.0785117041    3.3374433579
 H    1.1117131814   -1.6644570685    3.1796926615
 H   -1.0626438691    0.5996367342    4.1300703749
 H    0.5136455990    1.2733530400    3.7190615948
 H   -1.9250971341    2.0335372940    2.5421818090
 H    1.6355534869    0.0239898472    0.7886101404