19

 C    0.0401632706    1.5823444092    0.2598378509
 C   -0.0202755574    0.0787627973    0.0596051021
 C   -1.3491511674   -0.4695781881   -0.4353999229
 C   -1.7003713399    0.0005129571   -1.8656029752
 C   -2.9433809614   -0.5887528597   -2.3563689738
 N   -3.9283876969   -1.0661712221   -2.7272883005
 C    1.2370621394   -0.6274119086   -0.3967978594
 C    0.7553302856   -0.7836969946    1.0265516850
 H    1.0120007199    1.8837067228    0.6620151590
 H   -0.1045878485    2.1309345280   -0.6779355477
 H   -0.7296208336    1.9183647030    0.9646632014
 H   -1.3223513656   -1.5640669888   -0.4277687526
 H   -2.1562346433   -0.1719016313    0.2447352804
 H   -1.8002667127    1.0904232483   -1.9017186715
 H   -0.8906390155   -0.2646294526   -2.5549614610
 H    1.1391288868   -1.4804089482   -1.0609132354
 H    2.1244568069   -0.0295236495   -0.5748893394
 H    1.3147875390   -0.2883027207    1.8129115954
 H    0.3312884339   -1.7385523113    1.3188274251