20

 C    0.0341551503    1.5242297053    0.0318714702
 C   -0.0229668065    0.0295584736   -0.0346829347
 C    0.6840476212   -0.9999692580   -0.8783446648
 C   -0.6270464904   -1.7932982772   -1.1230009847
 C   -0.8457709625   -3.0499061394   -0.2568175606
 C   -0.9939859145   -2.0911633834    0.9583991383
 C    0.3995315410   -1.7481764021    1.5045108402
 N    1.0100798027   -0.8104447887    0.5493253206
 C   -1.2809487294   -0.8921934983   -0.0330690472
 H    1.0633709730    1.8705801020   -0.0963789154
 H   -0.5858809491    1.9805031181   -0.7473183098
 H   -0.3266967769    1.8895798938    1.0010500930
 H    1.5043641421   -0.8975580285   -1.5816683285
 H   -0.9538230884   -1.7704281152   -2.1639405964
 H   -1.7873162067   -3.5439275268   -0.5146243859
 H   -0.0510881011   -3.8020157410   -0.2063356103
 H   -1.7258865936   -2.3426544566    1.7277714906
 H    0.3435071116   -1.2360525618    2.4721507884
 H    1.0315582363   -2.6340222046    1.6278243439
 H   -2.2864433390   -0.4875201914   -0.1227973168