15

 N    0.0585294544    0.8877071364   -0.8270999960
 C   -0.0115874187    0.0117216423    0.2089356892
 O    0.8526244418   -0.1393115687    1.0537501593
 C   -1.2718713168   -0.7824734160    0.2192102530
 C   -1.8641261304   -1.4372616293    1.4282956340
 C   -1.4878579352   -2.2895546040    0.2443616412
 C   -2.4528097863   -2.0266242989   -0.9070200417
 O   -2.2601583480   -0.5848751540   -0.8026592543
 H    0.8717902550    1.4718898744   -0.9210743651
 H   -0.6887329271    0.9358045639   -1.4990888290
 H   -1.1824113089   -1.5050757656    2.2684909141
 H   -2.9064794728   -1.2428209330    1.6645488936
 H   -0.7470803520   -3.0751490428    0.2906346517
 H   -2.0941706675   -2.3907755014   -1.8754294080
 H   -3.5021398974   -2.3091921530   -0.7663110220