23

 C   -0.1758968381    1.6038537013    0.1511777062
 C   -0.1007401298    0.0883627513   -0.0709866409
 C    0.7055399065   -0.4106768168   -1.3125200050
 C   -0.0127712859   -0.0041754208   -2.6126612826
 C    2.0717236785    0.2585361974   -1.2851324936
 O    3.0794433841   -0.2132616315   -0.8076098189
 C    0.8470897726   -1.9628430958   -1.2004176965
 C    1.5428723847   -2.6262607342   -2.3957794762
 O    1.4732627162   -2.3390731431    0.0160104482
 H    0.8069640380    2.0409421620    0.3559165232
 H   -0.6068298325    2.1350110598   -0.7035590986
 H   -0.8089782526    1.8184811359    1.0174126874
 H    0.3321510948   -0.3930289799    0.8092254362
 H   -1.1170746322   -0.3124460865   -0.1770374341
 H   -0.1980639599    1.0734776713   -2.6460599869
 H    0.5652961764   -0.2644223705   -3.5035527296
 H   -0.9815196632   -0.5095502777   -2.6812585263
 H    2.1074665685    1.2718483792   -1.7444069805
 H   -0.1735718447   -2.3624693054   -1.1318798428
 H    2.5463106666   -2.2178575474   -2.5511662269
 H    1.6428419207   -3.6950554615   -2.1900223790
 H    0.9737827144   -2.5108180337   -3.3226494084
 H    2.3460496969   -1.9206327835    0.0018719154