17

 O   -0.1607588806    1.3421618240    0.0810142266
 C    0.0183826622   -0.0209386426    0.0411273478
 C   -0.2061111360   -0.8410220992   -1.2496800139
 C    0.4548831232   -2.2006973641   -1.0598513972
 C    0.0250023239   -2.0727288971    0.4313424110
 C   -1.0806587396   -1.0372776801   -0.0237991393
 C    0.8404872154   -0.8696757631    1.0270652794
 C    2.3441870764   -0.8565926771    0.9804167478
 O    3.0489283994   -0.6424434215    1.9363169041
 H    0.5463222313    1.7655215615   -0.4187084621
 H   -0.4722769353   -0.3275962593   -2.1650212622
 H   -0.1171315347   -2.9898472468   -1.5564665066
 H    1.5169296851   -2.3257986329   -1.2950963123
 H   -0.1392152629   -2.9511436427    1.0497961964
 H   -2.1454700396   -0.9619957358    0.1356426386
 H    0.5182158480   -0.6642215977    2.0517021763
 H    2.7958556536   -1.0430366855   -0.0206885743