17

 C    0.0256821169    1.4788289195   -0.0538118384
 N   -0.0112681701    0.0242498231    0.0605825540
 C   -1.3549626933   -0.5491026201    0.0081075471
 C   -1.9499893153   -0.6287096129   -1.4248822765
 O   -1.1024820085   -1.3548685673   -2.2920050360
 C   -1.3389098433   -1.8933113373    0.5939040262
 C   -1.3375458114   -3.0233720750    1.0233697033
 C   -1.3336884544   -4.2943213152    1.5229131521
 N   -1.3335980359   -5.3779983579    1.9414450527
 H    1.0691068095    1.8044682873   -0.0435103558
 H   -0.4468659730    1.8911859299   -0.9607282643
 H   -0.4689368210    1.9247792201    0.8161399790
 H    0.5336537359   -0.4025790281   -0.6828589392
 H   -2.0178036393    0.0782823680    0.6203325930
 H   -2.9659880240   -1.0463954915   -1.3885799154
 H   -2.0147735425    0.3832478867   -1.8349783407
 H   -1.1423874903   -2.2843453095   -2.0389987311