17

 O    0.0310335333    1.6115365802    0.2774095214
 C    0.0949888314    0.2147973663    0.5209426954
 C   -1.1721109185   -0.5277909789    0.1057999139
 C   -2.4934293851    0.1385238130    0.2252686978
 N   -1.8699292089   -0.0648161440   -1.0965810176
 C   -1.0697466499   -2.0129027900    0.2921655765
 C   -1.5463178963   -2.9615536059   -0.7188323870
 O   -0.1488843288   -2.6947390427   -0.5685916755
 H   -0.4354456318    2.0262237866    1.0087692493
 H    0.9247630982   -0.1651872000   -0.0842505888
 H    0.3306633766   -0.0028212735    1.5730372973
 H   -3.3848974113   -0.4544474462    0.4101550826
 H   -2.5311076209    1.1495575161    0.6223349691
 H   -1.4387483189    0.8130064311   -1.3838505243
 H   -1.0226702680   -2.3423554591    1.3324639729
 H   -1.8647695928   -3.9565311054   -0.4102810862
 H   -1.9980697784   -2.5647193274   -1.6237110768