20

 C    0.0045207957    1.5251507053    0.0058428307
 C    1.3102442677    0.7581941350   -0.0229263633
 C   -0.0038617059    0.0234058276   -0.0094737809
 C   -0.4462474022   -0.8227672703    1.1931284899
 N   -0.6455441152   -2.1962127389    0.6773484121
 C   -1.6841819379   -2.3653638671   -0.3545055664
 C   -2.0053437158   -1.0619979439   -1.0989612616
 C   -0.4651362090   -0.7970901252   -1.1967149719
 C   -0.2384523096   -2.2640566087   -0.7203820647
 H   -0.2677113865    2.0313034661    0.9267803021
 H   -0.2967039244    2.0525437093   -0.8937038635
 H    1.8880399884    0.7688320477   -0.9417427961
 H    1.9118044145    0.7445724779    0.8806501614
 H    0.3129313726   -0.8523831469    1.9814422303
 H   -1.3769130887   -0.4580521569    1.6415216096
 H   -2.3274374063   -3.2339732177   -0.2660046020
 H   -2.4417951676   -1.2758002562   -2.0780774809
 H   -2.6148019265   -0.3057138976   -0.5927517988
 H   -0.0816443433   -0.4791153743   -2.1659065159
 H    0.4853549501   -2.9953546851   -1.0590619903