12

 O    0.0427457770    1.3627812060    0.1471363476
 C   -0.0320697222    0.0177931466    0.0496507678
 C   -1.1883510596   -0.6662050884    0.0587472898
 C   -1.1331545719   -2.1124220592   -0.0040061379
 N   -2.1741132971   -2.8524049212   -0.0451881228
 N    0.1766296650   -2.7187814292   -0.0182277881
 N    1.2319822125   -2.0479209594   -0.0229594481
 N    1.1568343049   -0.6759239376   -0.0445850653
 H    0.8136941460    1.6953028788   -0.3278993380
 H   -2.1407910678   -0.1576450325    0.0951994005
 H   -1.8810184415   -3.8306529698   -0.0881788683
 H    2.0423152646   -0.2398357740    0.1611074127