23

 C   -0.2799421042    1.5192598246   -0.1079189518
 O   -0.1045986501    0.1221135533   -0.1083860358
 C    0.7343467823   -0.4555764286   -1.1244196193
 C    0.1513405737   -0.1929331732   -2.5268928716
 C    2.1668457216    0.0932268021   -1.0451922107
 C    0.6041802281   -1.9510910509   -0.8372948773
 C    1.6551159155   -2.9897170823   -1.1728126183
 C    1.2823078706   -2.7107245357    0.2650281202
 O    2.1829171435   -2.0489540033    1.1063998567
 H    0.6544046512    2.0675502562    0.0771566998
 H   -0.7233361154    1.8974642339   -1.0404298442
 H   -0.9707269134    1.7404227988    0.7104916420
 H    0.2407056030    0.8589906547   -2.8136259220
 H    0.6881858064   -0.7857791371   -3.2733788360
 H   -0.9063298475   -0.4714284126   -2.5600329575
 H    2.5829838996   -0.0519313834   -0.0492895748
 H    2.8117023157   -0.4089349642   -1.7720778485
 H    2.1802915902    1.1579042045   -1.2956459317
 H   -0.4215043965   -2.2731019386   -0.9981520219
 H    1.3502312275   -3.9213948355   -1.6376933132
 H    2.6288821575   -2.6276086602   -1.4846898977
 H    0.6694211336   -3.4544065422    0.7749494072
 H    2.9032182072   -2.6577167705    1.3004142665