16

 N   -0.1560047455   -1.1698042063   -0.2438061851
 C   -0.0954490068   -0.0236981330   -0.1098946472
 C   -0.0073310601    1.4328683464    0.0239529256
 O   -0.5378678434    1.8757101909    1.2794380334
 C    0.5215832517    2.6605068934    1.8536971251
 C    1.5808054326    1.7135958819    2.4393928910
 C    2.2710783764    1.2320730717    1.1254878657
 C    1.4449397498    2.0024374183    0.0766832712
 O    1.1632438329    3.2420391352    0.7361789801
 H   -0.5726431672    1.8932322958   -0.7952524352
 H    0.0887226744    3.4197653546    2.5026257074
 H    2.2700257106    2.2543652851    3.0918962460
 H    1.1171796898    0.9061676261    3.0075784732
 H    3.3145249973    1.5479089371    1.0770571944
 H    2.2310619600    0.1509409513    0.9849851401
 H    1.9027053275    2.1750325015   -0.8948638357