20

 C    0.0510962993    1.5996288400    0.0740982269
 C    0.1291522510    0.0713306981    0.0520878550
 C    0.5794961487   -0.4878702181   -1.3073633145
 C    0.6576984120   -1.9878194283   -1.3334869751
 C    1.8516271186   -2.7935978178   -0.8451660016
 C    1.3543898040   -2.9715860046   -2.2467625915
 O    0.2409952943   -3.8685904585   -2.2743947298
 C   -0.5305301207   -2.9436608290   -1.4616271268
 H    1.0262851411    2.0487920163   -0.1453350596
 H   -0.6581186490    1.9718219894   -0.6737114700
 H   -0.2726867156    1.9690019451    1.0520366098
 H    0.8217103959   -0.2780483150    0.8278353903
 H   -0.8515285488   -0.3500978618    0.3090758868
 H   -0.1114491990   -0.1416470128   -2.0889377588
 H    1.5621255857   -0.0695723414   -1.5626649929
 H    2.7664121270   -2.2167173686   -0.7411253011
 H    1.7342087666   -3.6063209451   -0.1328106337
 H    1.9397956654   -2.8574945540   -3.1525189901
 H   -0.9191725797   -3.4128465418   -0.5496011736
 H   -1.3606160170   -2.5238169320   -2.0435988596