16

 C    0.2618024399    0.9625433267    0.3841368213
 O   -0.4558107225    0.0643993166   -0.4469218000
 C    0.3446819139   -0.5680955290   -1.3849324959
 C    1.4010145202   -1.5901264212   -1.0209649840
 O    1.0487431467   -2.2792816397    0.1742509985
 C   -0.1625157469   -2.7945056299   -0.4451995056
 C    0.1172886171   -2.0098731496   -1.7288403811
 O   -0.1012473327   -2.4943366744   -3.0010751362
 H    1.0422580768    0.4383365668    0.9490758844
 H    0.7238750832    1.7725227679   -0.1993574856
 H   -0.4600272358    1.3965304861    1.0796882177
 H    0.6307992326    0.0377324516   -2.2500782749
 H    2.4455888478   -1.5511591284   -1.3080504404
 H   -0.0861441117   -3.8761136400   -0.5971644401
 H   -1.0618861350   -2.5388138868    0.1222987079
 H   -0.8859341734   -2.0648884867   -3.3596549260