22

 C    0.1151996296    1.3748046913    0.1637598121
 O   -0.3884563360    0.1900059455   -0.4378571433
 C    0.5323946462   -0.5899534699   -1.0454976238
 N    0.1973015080   -1.6878419491   -1.5564995805
 C    1.1861703279   -2.4973932163   -2.2381382251
 C    0.9237251354   -2.4015271059   -3.7449962475
 C    2.7153627152   -2.3819975151   -1.8976900401
 C    2.7885723283   -3.9319240338   -1.8816857593
 C    1.2433123679   -3.9762369581   -1.7502513577
 H    0.8075586117    1.1481426759    0.9841857845
 H    0.6227805199    2.0158128095   -0.5680148743
 H   -0.7479591398    1.9079644228    0.5642184487
 H    1.5487333212   -0.1705273309   -1.0414814273
 H    1.0993847080   -1.3807065084   -4.1012367476
 H    1.5776038082   -3.0770692824   -4.3058768902
 H   -0.1160680346   -2.6631865012   -3.9613264930
 H    3.3524558656   -1.8445546673   -2.6056900845
 H    2.8778467937   -1.9710733586   -0.8970027432
 H    3.1415900881   -4.3417471802   -2.8314165671
 H    3.3668336845   -4.3894614861   -1.0764508088
 H    0.9230424080   -4.0462752092   -0.7078691457
 H    0.6943407831   -4.7152876925   -2.3397550662