17

 C   -0.0344530447    1.4066718026   -0.0551859631
 O    1.2247736299    2.0429126295    0.0404850068
 C    2.0764734510    1.5766795629   -0.9615541108
 C    3.2409881112    0.6456597884   -0.6361390763
 C    3.2898922138    0.0484310093    0.7260619600
 C    2.1974727885   -0.6688184192    0.9825408084
 C    1.2133593317   -0.6362485400   -0.1752550134
 O    0.0067177675    0.0372995516    0.2527971167
 C    1.9737928885    0.1131138793   -1.2828042061
 H   -0.6891336225    1.8816082929    0.6792603535
 H   -0.4356648873    1.5559906506   -1.0719204103
 H    2.2341221200    2.2858729918   -1.7723905753
 H    4.1476247890    0.7920389244   -1.2118774869
 H    4.1015043470    0.2405767751    1.4178792089
 H    1.9400301981   -1.1391630561    1.9235651228
 H    0.8851535085   -1.6301038439   -0.4932299332
 H    1.9320683598   -0.2393525093   -2.3051923917