16

 C   -0.0344655317    1.5024800006    0.0687474745
 C   -0.0239465267    0.0174512128   -0.0319935993
 C   -0.0127248243   -0.8241715712   -1.0922069358
 N   -0.0014002023   -2.1657782116   -0.7153613688
 C   -0.0091422369   -2.1546555494    0.5864140738
 N   -0.0675771369   -3.2323365955    1.4125702931
 N   -0.0171759620   -0.8428589842    1.1006088498
 C    0.0515020747   -0.4772829934    2.4262733014
 O    0.1223618859   -1.2540128101    3.3546294085
 H    0.8489258286    1.9015597335    0.5838750664
 H   -0.0415749631    1.9233137349   -0.9395942797
 H   -0.9197036703    1.8870777166    0.5912590045
 H   -0.0122447836   -0.5489422367   -2.1366718222
 H    0.1734685556   -4.1117589317    0.9856442918
 H    0.1759283623   -3.0771501115    2.3796654716
 H    0.0393102708    0.6157540169    2.5634778405