17

 C   -0.0213863387    1.4052500786    0.0183008026
 C    1.4131796971    1.9614167399    0.0362015385
 C    2.1918746641    1.2634043190   -1.0382127771
 C    1.7272495096    0.0927558386   -1.5981770453
 C    0.4418148896   -0.5725852682   -1.2135316379
 O   -0.0399727093   -0.0186348475   -0.0022139254
 N    2.6337708129   -0.2776130767   -2.5344117168
 N    3.6765047029    0.5798038524   -2.6207256788
 C    3.4085265394    1.5148362062   -1.7132109336
 H   -0.5703486942    1.6944744127    0.9183335555
 H   -0.5622135509    1.8017881622   -0.8563408603
 H    1.3833171503    3.0466821831   -0.1177407586
 H    1.8603341778    1.7923315677    1.0241042194
 H   -0.3109722789   -0.4638900175   -2.0151391814
 H    0.5716164201   -1.6454952319   -1.0296123377
 H    2.6203033762   -1.0837256040   -3.1356297001
 H    4.0981867918    2.3356330655   -1.5773096730