16

 C    0.0413716372    1.0658851258   -0.5647204626
 C   -0.2749274670    0.0633142368    0.5473951222
 N   -1.3034054306   -0.9398345232    0.3133875053
 C   -1.9126715558   -0.9780359200   -0.7766683744
 O   -2.8810335601   -1.9628478131   -0.9294741725
 C   -3.5447892573   -2.0142191765   -2.0998540678
 O   -3.3920397065   -1.2895377767   -3.0483189902
 C   -4.5776377676   -3.1472216397   -2.1218503820
 O   -4.7792664194   -3.9011324249   -1.2142049346
 H    0.8304619464    1.7449861188   -0.2292902539
 H    0.3960049600    0.5686634553   -1.4736694540
 H   -0.8309769459    1.6741466985   -0.8258588477
 H    0.6337570482   -0.4873718300    0.8219478359
 H   -0.5705282387    0.5988104222    1.4585414869
 H   -1.8060405781   -0.3457499038   -1.6556850531
 H   -5.1150875947   -3.1776001293   -3.0903212675