13

 N   -0.0265303251    1.3273315794    0.0099458793
 C    1.1520511907    2.0152826471    0.0021221548
 C    2.3430961913    1.3235045702   -0.0136024293
 N    2.4461773582   -0.0284969722   -0.0222457129
 C    1.3034559802   -0.6784038521   -0.0145597645
 N    1.0634290021   -2.0194044137   -0.0197613926
 C   -0.2664290925   -2.0730503943   -0.0068452340
 N   -0.9868266752   -0.8943372443    0.0069716556
 C   -0.0034248353   -0.0176436404    0.0021360088
 H   -0.9148413845    1.8138974525    0.0215107854
 H    1.0879879748    3.0939003372    0.0088393287
 H    3.2720648367    1.8825836781   -0.0196739105
 H   -0.7935641614   -3.0198628775   -0.0069492089