18

 O   -0.0742209538   -0.0458663199    0.0473492039
 C    0.0056869637    1.1497453251   -0.0812982542
 C    1.2906280999    1.9359984807   -0.0231694522
 C    1.5105581055    2.8636007372    1.2169871193
 C    2.2208313333    3.7616044288    0.1745113711
 C    3.6464222601    3.2448075332   -0.0363627334
 O    3.7142675378    1.8372674977    0.1605851617
 C    2.5612907473    1.1141194364   -0.2562468183
 N    1.3008940746    3.1798983930   -0.8474062184
 H   -0.8897772181    1.7904641398   -0.2444103241
 H    0.5753244891    3.3013460298    1.5667243857
 H    2.0962791272    2.4578336339    2.0406282862
 H    2.1831990102    4.8498796262    0.2772964815
 H    3.9876412113    3.5211093004   -1.0494262060
 H    4.3449100820    3.6840360743    0.6846933816
 H    2.5436452314    0.1874321284    0.3229442522
 H    2.6261812840    0.8460627304   -1.3242530053
 H    1.7269464344    3.0555981047   -1.7665692714