20

 O   -0.6142397262    1.4914870330   -0.6386759585
 C   -0.0427690092    0.3043017322   -0.1049157421
 C   -1.2052436747   -0.4965451352    0.4780950534
 C   -0.7997765604   -1.8005758927    1.1974209190
 C   -0.5046719369   -2.9490590739    0.2443294204
 O   -1.2150099750   -3.9261199237    0.1844937591
 C    0.7326094201   -2.8588719338   -0.6708916642
 N    1.4873667736   -1.6245150241   -0.7533492809
 C    0.7678671407   -0.4362754833   -1.1854360047
 H    0.0909188303    2.0137981537   -1.0352526163
 H    0.6498414413    0.5518100127    0.7218869083
 H   -1.7225524262    0.1519629970    1.1917297550
 H   -1.9253669545   -0.7128069790   -0.3204032702
 H    0.0795427314   -1.6116449322    1.8285887857
 H   -1.6124865852   -2.1369593528    1.8448843762
 H    1.4072920785   -3.6631692405   -0.3516712528
 H    0.3922113482   -3.1453921072   -1.6739450372
 H    2.0243518590   -1.4494146441    0.0874172493
 H    0.0962160617   -0.7154961945   -2.0066924251
 H    1.4925390634    0.2771536583   -1.6066178247