11

 N    0.1565343115    1.3737510053    0.1726023181
 C   -0.0198097884    0.0375963421    0.0563274259
 C   -1.1112491141   -0.7629117860    0.0130141601
 O   -0.6564434261   -2.0947896372   -0.0223015736
 C    0.6912386878   -2.0699516103   -0.0165951882
 O    1.4338925771   -2.9905923056   -0.0496781805
 O    1.0978856269   -0.7335668960    0.0353001598
 C   -2.4742731961   -0.4605541191    0.0005113210
 N   -3.5950043147   -0.1567013176   -0.0120858632
 H    1.0345207784    1.7396996670   -0.1636298767
 H   -0.6500050622    1.9530171274   -0.0042237527