17

 C    0.0412474249    1.5613819802   -0.1350933900
 C   -0.0155552077    0.0514082830    0.1299382003
 C   -1.4294578143   -0.5125713458    0.1045843415
 O   -2.2762516404    0.0133404647    1.0910485299
 C   -2.0679321057   -0.7799355923   -1.3107600126
 O   -1.1450135394   -1.9331433945   -1.4468919894
 C   -1.5804475985   -2.0531760174   -0.0330006185
 C   -3.0062008878   -1.8062343162   -0.6122104540
 O   -4.0976179578   -2.2610791398   -0.6524731105
 H    1.0767080738    1.9124095570   -0.1324695455
 H   -0.3926912318    1.8159063729   -1.1079907935
 H   -0.4873225476    2.1377262486    0.6336967609
 H    0.5794111666   -0.4815005708   -0.6152695293
 H    0.4159914871   -0.1662307903    1.1140192070
 H   -2.2620359546    0.9745155785    1.0363981032
 H   -2.1984094480   -0.1331680168   -2.1767765996
 H   -1.1537662888   -2.8553573010    0.5657681801