19

 C   -1.2239268727    1.3827748039    0.1552907203
 O   -1.3346215579    0.0158461441    0.5163688142
 C   -1.8494908450   -0.8226319064   -0.5218054870
 C   -0.9405391375   -0.8717916178   -1.6753484652
 C   -0.2042483001   -0.9222285302   -2.6240757319
 C   -2.0976176813   -2.2155359588    0.0420309844
 C   -1.2150548093   -2.7781553672    1.1424032301
 C   -2.6512932310   -2.4177943394    1.4321011846
 O   -3.0067464314   -1.3568959508    2.2607029914
 H   -0.8354999853    1.9089384666    1.0294455119
 H   -0.5337615189    1.5150309691   -0.6862154751
 H   -2.2023973158    1.8046451037   -0.1161904846
 H   -2.8124704658   -0.4031956204   -0.8610856439
 H    0.4470100765   -0.9697227373   -3.4619778223
 H   -2.4334353554   -2.9027124453   -0.7287111945
 H   -0.9202982411   -3.8208358070    1.0925819872
 H   -0.4605617383   -2.1093758046    1.5416597039
 H   -3.3545629780   -3.2352001775    1.5592019765
 H   -2.4443097517   -0.6104468248    2.0107928801