18

 C   -0.0370074824    1.5478601752    0.1401128807
 C    0.0244660995    0.0456040024   -0.0234514583
 C    0.6997194979   -0.6264065259   -1.2005604296
 C    1.3545722068    0.1389506423   -2.3299115781
 C    1.3517448071   -0.6968449532    0.1684698520
 O    2.5203844032    0.0728251470    0.2980571159
 C    1.3584868982   -1.9370545058    0.8987491677
 C    1.3650721789   -2.9558021788    1.5396698901
 H    0.9209935097    2.0180033266   -0.0894204701
 H   -0.7975017779    1.9836564402   -0.5169019851
 H   -0.3010299711    1.8133905376    1.1697209581
 H   -0.8407804745   -0.4839801022    0.3653650144
 H    0.2364816974   -1.5586715553   -1.5106092579
 H    1.9239316280    0.9955921462   -1.9679660175
 H    2.0466763659   -0.5077603214   -2.8787705714
 H    0.6003874487    0.4982770153   -3.0385550310
 H    2.6317943252    0.2781382931    1.2331313674
 H    1.3761400192   -3.8629362432    2.0914216824