18

 C   -0.3649228106    1.2460350000    0.2389413486
 O   -0.1839574689   -0.1581587280    0.2243907552
 C    0.8285302923   -0.5988155545    1.0942628136
 O    0.4890896901   -0.4264693602    2.4603261574
 C    0.1849447988   -1.6918033227    3.0640116805
 C   -1.2944791006   -1.7803737230    3.4440341709
 C    0.6149278873   -2.7013896887    2.0326915447
 C    0.9972824307   -2.0845872006    0.9225329406
 H    0.5633939252    1.7730356490   -0.0309915689
 H   -1.1322591282    1.4785765059   -0.5028258994
 H   -0.6931304880    1.5981261065    1.2242495076
 H    1.7397084430   -0.0055735330    0.9076469155
 H    0.7963585568   -1.7698508510    3.9751139532
 H   -1.9179760427   -1.6929946835    2.5501383606
 H   -1.5116868448   -2.7347679634    3.9356888755
 H   -1.5536461310   -0.9723667974    4.1338798987
 H    0.5771069942   -3.7693934345    2.2072155641
 H    1.3289392864   -2.5280528308   -0.0062101085