19

 C    0.0253725656    1.4947376157    0.1206281219
 C   -0.0827048174   -0.0132090996   -0.0749346548
 C    0.6286490848   -0.4888549634   -1.3476937464
 C    0.3061285783   -1.9206042142   -1.6906348510
 C    0.6554562642   -2.9214519051   -0.8887897842
 C    1.4518125066   -2.7046248775    0.3745530256
 C    0.8189687317   -1.8327308562    1.4580166838
 O    0.7821097660   -2.1898001251    2.6048420705
 O    0.4028656429   -0.5753465315    1.1692600975
 H    1.0745278324    1.8043379161    0.1595465452
 H   -0.4636995954    2.0211513620   -0.7042141719
 H   -0.4536758548    1.7877528089    1.0574067272
 H   -1.1407254323   -0.2972239005   -0.1469347859
 H    0.3175064459    0.1759976541   -2.1591388496
 H    1.7115727530   -0.3431363584   -1.2252495461
 H   -0.2525246050   -2.1167807682   -2.6009904867
 H    0.3910578623   -3.9453597790   -1.1342432880
 H    1.6810124314   -3.6495466160    0.8665918467
 H    2.4140710398   -2.2324109120    0.1247736763