14

 O   -0.7833256947    1.0228941636   -0.0512638514
 C    0.3867411336    0.7489947685   -0.0103859618
 C    1.4587406228    1.7974701972   -0.0008197680
 C    1.9166792137    2.7317343558    1.1585555472
 C    2.8976044098    2.8602095831   -0.0276675802
 O    2.8634072653    1.3900820218   -0.1895915241
 C    1.6834048270    2.9837236941   -0.9997280937
 C    1.9022675047    2.6570260495   -2.3967352961
 N    2.0611313250    2.4300653979   -3.5183506915
 H    0.7665714979   -0.2932850681    0.0359716774
 H    1.2813823887    3.5806975791    1.4162042541
 H    2.3169214822    2.2044862456    2.0231243014
 H    3.8657070471    3.3522419638   -0.0961135291
 H    1.0328104668    3.8517209182   -0.8800080641