22

 C   -0.1731002217    1.4728587856    0.0506321593
 C    0.0406037096   -0.0388028675    0.0112361170
 C    0.8630836563   -0.4936218850   -1.1866804259
 O    0.7559857040   -0.4668842783    1.1836862369
 C    0.0294707461   -0.6701742434    2.2990651824
 N    0.5921011699   -0.8879288797    3.4053827138
 C   -0.2336636426   -1.1399083329    4.5340695895
 C    0.2737942533   -2.1257056129    5.5614227339
 C    0.2595416973   -0.6537239938    5.8774256162
 H    0.7902923165    1.9901753124    0.0907689367
 H   -0.7121745122    1.8072298318   -0.8412996981
 H   -0.7547170727    1.7650843885    0.9301164365
 H   -0.9353088016   -0.5464281012   -0.0044306849
 H    1.8500635170   -0.0215749236   -1.1711140198
 H    1.0007390037   -1.5776688180   -1.1696047953
 H    0.3619288224   -0.2184024826   -2.1192193409
 H   -1.0610376041   -0.6498226449    2.1451145534
 H   -1.3145964605   -1.1169549215    4.3733527793
 H   -0.4495055585   -2.7714077725    6.0469981629
 H    1.2322604634   -2.5855964155    5.3525221882
 H    1.2085405061   -0.1310330670    5.8790325966
 H   -0.4733437518   -0.2778594980    6.5827635323