19

 C   -0.0371879476    1.5374777513    0.0107512742
 C   -0.0319282028    0.0291785621   -0.0677914011
 C    0.8676215732   -0.6624078449   -1.0138193658
 C    0.3581099576   -1.8364604840   -1.4133702501
 C   -0.9153946190   -2.1588987441   -0.6334527898
 C   -0.3449456002   -2.9466742575    0.5465080795
 C   -0.0398756453   -2.1186551391    1.5573819296
 C   -0.4850303420   -0.7447828328    1.2720398592
 C   -1.2879760977   -0.7911367212    0.0015926663
 H    0.9346399708    1.9240106165    0.3379945458
 H   -0.2586869402    1.9800848769   -0.9673866316
 H   -0.7913305256    1.8981024282    0.7173669122
 H    1.8356470974   -0.2658365591   -1.3001914343
 H    0.8557791297   -2.5628145242   -2.0458038813
 H   -1.7037009048   -2.6594447460   -1.1998533618
 H   -0.0626676726   -3.9903610209    0.4702402819
 H    0.5059821674   -2.3933729643    2.4524921870
 H   -0.7456452274   -0.0708313683    2.0807561754
 H   -2.2804696910   -0.3636322387   -0.0942711054