21

 C   -0.2003369306    1.5259933933   -0.0720175738
 N    0.1998353901    0.1259460304    0.0693002041
 C    1.4199145861   -0.5438213500   -0.2788647348
 C    1.4663187230   -1.5828849393   -1.3607960122
 C    2.7237546393    0.1696928618    0.2524875505
 N    2.3573406461    1.4462985665    0.9129919732
 C    2.1939638869    0.1568169580    1.6276819858
 C    0.8749306905   -0.5567892265    1.1353839069
 C    0.1897206797   -1.6132241821    1.9519640673
 H    0.4562523494    2.0650827242   -0.7579354584
 H   -1.2246357927    1.5560794705   -0.4660405688
 H   -0.1763421659    2.0502204423    0.8854882531
 H    1.6145218161   -1.1198537365   -2.3445333464
 H    2.2912617190   -2.2864891110   -1.1998809539
 H    0.5285451752   -2.1434823793   -1.3909299762
 H    3.7296446544   -0.0197935791   -0.1005204171
 H    3.2248332801    1.8639390096    1.2511950239
 H    2.7042446240   -0.0447157518    2.5611335127
 H   -0.3632410446   -1.1668618273    2.7880838707
 H   -0.5224294464   -2.1683615808    1.3361234393
 H    0.9136293302   -2.3193107928    2.3749072842