20

 O    0.0043068226   -0.0698842294   -0.0935788086
 C   -0.0170229941    1.1486974711   -0.0748555808
 N   -1.1901402607    1.8526909843   -0.0626477837
 C   -1.3295542551    3.3034471573   -0.0528339758
 C   -0.1825531983    3.9348324540    0.7382997061
 C    1.1590395062    3.5244509545    0.1298404207
 C    2.3456177547    3.4455396546    1.1317862384
 C    2.1226630361    1.9112680634    1.2481736608
 C    1.2511975618    1.9784016710   -0.0436242486
 H   -2.0191883605    1.2798060394   -0.1198318411
 H   -1.3469774284    3.7088942251   -1.0765121496
 H   -2.2936909891    3.5507349792    0.4030309217
 H   -0.2889852196    5.0248317978    0.7510571420
 H   -0.2490526389    3.5903638158    1.7777687625
 H    1.3418007219    4.1033216112   -0.7808350466
 H    3.3001798839    3.6868579433    0.6567835706
 H    2.2566772821    4.0364664999    2.0475665290
 H    3.0038037631    1.2693075848    1.2110058087
 H    1.5339276343    1.6332229898    2.1259737915
 H    1.8426864479    1.6982951629   -0.9192235472