15

 N   -0.0660303535   -1.1083061471    0.0970977764
 C   -0.0558894153    0.0472583911    0.0674137779
 C   -0.0200849376    1.4837699043   -0.0071424829
 O   -0.6363024111    2.2856286974    1.0452995069
 C   -0.0755792244    3.2731033453    0.1121148204
 C    1.2271893142    2.4378365780   -0.0688232137
 C    1.6747019439    2.5304417615   -1.5199311619
 N    0.3600227252    2.4300917721   -2.2173611759
 C   -0.5720140664    2.4326189764   -1.1205082668
 H   -0.1967985448    4.3267858655    0.3562323586
 H    1.9539390322    2.3923987615    0.7393184207
 H    2.1925290660    3.4738155781   -1.7282601325
 H    2.3372303848    1.7084065924   -1.8107622452
 H    0.2013358339    3.1979969664   -2.8588585380
 H   -1.6305115971    2.3977206672   -1.3698046440