20

 C    0.0110527274    1.6086648955    0.1006730517
 C    0.1126775130    0.0993429799    0.0653009287
 C    1.3071064418   -0.7197355942   -0.3437818333
 C    2.7058560344   -0.1207946169   -0.3739548764
 C    2.9497990705    0.5198779136    1.0170910753
 C    1.9201281145   -0.1138412031    1.9879224127
 C    0.8333990871   -0.7494179986    1.1137588884
 C    0.1373140585   -1.8849880312    1.6481541531
 N   -0.4240172864   -2.7976971790    2.0869189464
 H    0.9165398352    2.1014911582    0.4550779074
 H   -0.2026490154    1.9922667633   -0.9029160232
 H   -0.8120337742    1.9184563772    0.7529609387
 H   -0.8210257455   -0.3634923774   -0.2455665567
 H    1.1163128230   -1.5775285129   -0.9792236489
 H    3.4223406687   -0.9284573975   -0.5565474801
 H    2.8344110449    0.6036660203   -1.1852116040
 H    3.9728896680    0.3490711604    1.3617681745
 H    2.8223719591    1.6035617854    0.9717376628
 H    2.3831028280   -0.9045369574    2.5855430127
 H    1.5114452074    0.6170910043    2.6925201001