17

 O   -0.1186037267   -0.0031835685   -0.0759658072
 C   -0.0364610113    1.2042410740   -0.1175035580
 C    1.2301008433    1.9418588564   -0.0228199450
 C    1.3294659781    3.2792744848   -0.0717295006
 C    2.7532629796    3.7391895953    0.0858473624
 O    3.0400773367    4.2374377379    1.4167535444
 C    3.6932479273    2.9960640844    1.7749734873
 C    3.5454110132    2.4289234608    0.3440831281
 C    2.5715754054    1.2545251851    0.1375792665
 H   -0.9407570161    1.8416461002   -0.2334794569
 H    0.4930829754    3.9621942041   -0.1793306195
 H    3.0839065207    4.4478395848   -0.6815382114
 H    4.7173944643    3.1710865332    2.1222452775
 H    3.1403527916    2.4477864581    2.5488050503
 H    4.4883005865    2.3162991953   -0.1899671834
 H    2.5643918881    0.5507945456    0.9773684469
 H    2.8141140839    0.6618720584   -0.7517875815