17

 C    0.0277040748    1.5329318804   -0.1016324085
 C    0.0395089096    0.0796732705   -0.0185823758
 C    0.0447722975   -1.1228940584    0.0370993789
 C    0.0311916032   -2.5724355158    0.1244906941
 C    0.6023540434   -3.1626944155    1.4420903532
 C   -0.4334283801   -4.1647188492    1.8796865816
 C   -1.5266895165   -4.1732309439    1.1098040191
 C   -1.4044257801   -3.1845530650    0.0167273985
 O   -2.2250794844   -2.9037493922   -0.8191338490
 H    0.8394254240    1.9031896650   -0.7376389744
 H   -0.9158787167    1.8959815624   -0.5236327635
 H    0.1462523252    1.9906324687    0.8867746714
 H    0.5832383092   -2.9929205189   -0.7273255031
 H    1.5840616856   -3.6285380955    1.3020063858
 H    0.7343540271   -2.3840895157    2.2016774208
 H   -0.2800572995   -4.7943250631    2.7501451519
 H   -2.4103990023   -4.7857168536    1.2336535589