23

 C    0.3532871423    1.6258400704   -0.1471641102
 C    0.0132081049    0.1422975516    0.0523771699
 O   -1.3923467735   -0.0049853597    0.2305872205
 C    0.5728799686   -0.7351047036   -1.0900869174
 C    2.0608999555   -0.9560949913   -0.7373122235
 C    2.1631378405   -0.7530905163    0.8069321645
 C    0.7405283841   -0.4431994327    1.2674091453
 C    0.4126935807   -0.0208424135    2.6694507397
 C    0.0147444002   -1.3959127952    2.1848526154
 H    1.4288321998    1.7834667434   -0.2721921707
 H   -0.1395718225    2.0150472706   -1.0472784375
 H    0.0188501276    2.2136287474    0.7120084979
 H   -1.8328851218    0.4981570980   -0.4610939970
 H    0.0238269120   -1.6817274958   -1.0701527666
 H    0.4299849882   -0.2878546112   -2.0796359658
 H    2.4013901657   -1.9483595090   -1.0436419805
 H    2.6963028589   -0.2351875790   -1.2602722848
 H    2.5639293334   -1.6348976839    1.3146782462
 H    2.8413754359    0.0754466113    1.0402382330
 H    1.2241455133    0.0654661332    3.3853472846
 H   -0.3850865964    0.7026645780    2.8038251020
 H   -1.0371789527   -1.5753602254    2.0025981673
 H    0.5705403453   -2.2501306275    2.5587770776