23

 C   -0.0493542820    1.6327910339   -0.0309290618
 C    0.0123607972    0.1037826200    0.0108183717
 C    0.6845199764   -0.4923783758   -1.2293944991
 C    0.7266024389   -2.0276077907   -1.2101911091
 O   -0.6142173094   -2.4908356502   -1.2034505383
 C   -0.7579452076   -3.8779543679   -0.9443176103
 C   -2.2405076337   -4.2084792432   -0.9392806820
 C    1.4871902038   -2.5586925995   -2.3515061980
 C    2.1070324106   -2.9813856621   -3.2910616727
 H    0.9529268992    2.0714756560   -0.0946327780
 H   -0.6173971536    1.9820175764   -0.9003317625
 H   -0.5321779953    2.0354226095    0.8649164005
 H    0.5591218139   -0.2171858135    0.9078848239
 H   -0.9963931934   -0.3112445311    0.0991012082
 H    0.1534384521   -0.1819759237   -2.1367312602
 H    1.7128991118   -0.1244350798   -1.3208549798
 H    1.2283527603   -2.3568383918   -0.2823831124
 H   -0.2310119873   -4.4634607258   -1.7118629074
 H   -0.3004775219   -4.1258416393    0.0283633445
 H   -2.7629723715   -3.6312264116   -0.1709726811
 H   -2.6886698615   -3.9729058209   -1.9086499646
 H   -2.3910134723   -5.2730941173   -0.7366106389
 H    2.6561674050   -3.3575837417   -4.1186720924