21

 C    0.0804734375    1.3834603085    0.0366474564
 O    0.0099069238   -0.0227656641    0.0074502886
 C    0.7166393719   -0.5914573449   -1.0715352295
 C    0.5334332513   -2.1053048144   -1.0105697370
 C   -0.9433447582   -2.4616435008   -1.0908698207
 O   -1.4885436808   -3.2857415659   -0.4059876795
 C    1.2700496060   -2.7979757341   -2.1492700344
 C    2.7112716953   -3.2152497730   -1.9766437915
 C    1.6244800314   -4.2583418987   -2.0386450989
 H    1.1187045297    1.7366892105    0.1380495241
 H   -0.3471073593    1.8327402709   -0.8736306931
 H   -0.4944189315    1.7214756596    0.9017793699
 H    0.3326478950   -0.2021293208   -2.0323809463
 H    1.7875721012   -0.3359611899   -1.0256963008
 H    0.9043436758   -2.4810009921   -0.0512246915
 H   -1.5004705747   -1.9154406844   -1.8901020353
 H    0.9902370407   -2.4476580952   -3.1401893084
 H    3.3796818390   -3.1133186922   -2.8243699790
 H    3.1795810075   -3.0269004376   -1.0161713083
 H    1.3539774877   -4.7691728270   -1.1210016569
 H    1.5488297508   -4.8731350143   -2.9283125077