15

 N   -0.0799876072    1.4268626549   -0.1809463873
 C   -0.0197588643    0.0317441354   -0.0611210533
 C   -1.0847228543   -0.8522712945    0.0101415505
 C   -2.5658577740   -0.6198425189   -0.0448622476
 C   -2.9440408170    0.2491037322   -1.1644631151
 N   -3.1997496851    0.9651021239   -2.0349277027
 N   -0.5332487985   -2.0895059753    0.1936750013
 N    0.8020679758   -2.0701864862    0.2548657051
 C    1.1235133215   -0.7868287147    0.0994320155
 H    0.8086300612    1.8255575212   -0.4539895292
 H   -0.7953981009    1.7421952684   -0.8264269320
 H   -3.1017472675   -1.5704118236   -0.1472098069
 H   -2.9349724536   -0.1526172824    0.8786154504
 H   -1.0143081961   -2.9698107458    0.2686615912
 H    2.1608788400   -0.4845839647    0.1075956403