20

 C   -0.0305579600    1.4997621334   -0.0410273787
 C    0.0473680710    0.0000762689   -0.0222099356
 C    0.6191112224   -0.9520859330   -1.0955875083
 C   -0.0065496539   -1.8353881915   -0.0059616081
 C    0.6099008476   -0.9397128834    1.1047655281
 C   -0.3707471846   -0.8931455762    2.2618446034
 O   -0.1526032009    0.2968553305    3.0134256261
 C   -1.6807169447   -0.8977979746    1.4215265657
 N   -1.2088769244   -0.8929741981    0.0183150920
 H    0.9723141655    1.9294336237   -0.1350143137
 H   -0.6310334188    1.8406168445   -0.8905358400
 H   -0.4696757459    1.8782099848    0.8853090818
 H    0.1063626090   -0.9483523466   -2.0591552914
 H    1.7056480800   -0.9837188021   -1.1970179234
 H   -0.1434445735   -2.9190044088    0.0037475918
 H    1.6774078229   -0.9691580431    1.3326316998
 H   -0.2860240703   -1.7738322335    2.9151523136
 H   -0.7869703065    0.3139774420    3.7364972294
 H   -2.2987772249   -1.7856445389    1.5908004676
 H   -2.2859435401   -0.0085223080    1.6241091799