17

 C   -0.1276737427    1.4780263196   -0.0728527719
 N    0.0179007745    0.0290368574    0.0062712444
 C    1.3858690687   -0.5101555168   -0.1923299762
 C    0.7322913718   -0.5149752137    1.1212242216
 C    1.1302843417    0.0100783384    2.5172945526
 C   -0.2508688691   -0.4566950708    3.0483010248
 C    0.3418482994   -1.5793332723    2.1598695212
 O    1.6586852571   -1.3440358442    2.8059653731
 H    0.7394846581    2.0296893534    0.3260087175
 H   -0.2667472723    1.7687296329   -1.1184767135
 H   -1.0175259450    1.7860776595    0.4855777897
 H    1.4534124513   -1.4109180280   -0.7960121091
 H    2.1916395983    0.2066143757   -0.3479833622
 H    1.7406828346    0.8621347585    2.8150087716
 H   -0.2721472727   -0.6845200324    4.1147774556
 H   -1.1465211513    0.0599174684    2.6944957791
 H    0.0181841276   -2.6105095857    2.0255527918