20

 C    0.6906611508    1.4424375151    0.0092025003
 O    0.9226421513    0.0606574544    0.1434557780
 C   -0.0600413666   -0.5925675071    0.9166187199
 C    0.2843627569   -2.0780506173    0.9946586689
 C    0.2681910596   -2.7436716234   -0.3697856124
 C    1.4829882582   -2.4057942152    1.9203227004
 C    0.4167213465   -2.9907513507    2.8650863134
 O   -0.6406238990   -2.7179760891    1.9201294618
 H    0.6807961507    1.9514140384    0.9860594761
 H    1.5022526534    1.8544704716   -0.5955416361
 H   -0.2678131221    1.6484052727   -0.4927677700
 H   -0.1015816157   -0.1718890939    1.9348012678
 H   -1.0619055675   -0.4724950429    0.4702680404
 H    0.9772348366   -2.2469055784   -1.0378487632
 H    0.5327955262   -3.8014154675   -0.2869011146
 H   -0.7313960197   -2.6739305402   -0.8119858826
 H    2.1832731658   -3.1343756651    1.5086815291
 H    2.0390390159   -1.5421988128    2.2873700250
 H    0.4988753561   -4.0615406549    3.0857461655
 H    0.2715087528   -2.4491033539    3.8082835124