13

 O    0.0444184732   -0.0024552717   -0.1086320982
 C    0.0016223244    1.2001845248   -0.0392932902
 N   -1.0963215638    2.0202226884   -0.2515860369
 C   -0.8305980845    3.3844563120    0.1610196954
 C    0.7191213291    3.4379534309    0.0309077073
 N    1.0679887274    2.0505973124    0.2871248682
 C    1.1521813404    3.9093920799   -1.3002869530
 N    1.5200278433    4.2828405247   -2.3299802547
 H   -2.0098399528    1.6088102771   -0.1487724853
 H   -1.3192383624    4.1190704249   -0.4819226324
 H   -1.1116868244    3.5784988240    1.2049529305
 H    1.1499665975    4.1091211208    0.7795742321
 H    1.9948016727    1.7144003918    0.0731080972