16

 N   -0.1920232294   -1.1675128422   -0.1642959176
 C   -0.1021918060   -0.0171057176   -0.0937177209
 C    0.0141090406    1.4294985277    0.0110205901
 C   -0.5710995771    2.0141338901    1.3261939721
 O    0.1542359690    3.2095847474    1.5345523700
 C    1.5103216565    2.9111767016    1.2396467357
 C    1.4660464745    1.9614097755    0.0440419732
 C    2.6270578168    1.2722607819   -0.5177855725
 O    2.0207304267    2.3868103472   -1.1907112591
 H   -0.4797491269    1.8896102878   -0.8508390103
 H   -1.6312188171    2.2597543683    1.2511338728
 H   -0.4239212476    1.3032358437    2.1535435849
 H    2.0347764457    3.8385190599    1.0013590685
 H    1.9976314021    2.4257907837    2.1003766554
 H    3.6161629427    1.4611335595   -0.1021594819
 H    2.4984090296    0.3051348855   -0.9997201904