15

 C   -0.0590764310    1.5652138611    0.0052709053
 C    0.0342337113    0.0503707397    0.0464688359
 C   -1.1277774976   -0.6405684353   -0.4503067306
 N   -2.0592579098   -1.1986392249   -0.8508379457
 C    1.3283153995   -0.7099547021   -0.2290544509
 O    2.5223782140    0.0426835632   -0.1269786230
 C    2.6023072608    0.4051346759    1.1825521948
 N    1.6899982733    0.0170169992    1.9804306267
 C    0.7612941635   -0.7299340062    1.1718971236
 H    0.7810271162    2.0307827558    0.5211887365
 H   -0.0700559444    1.9196451326   -1.0290000585
 H   -0.9787096296    1.8963249606    0.4942292919
 H    1.3805313334   -1.5137145241   -0.9508473170
 H    3.4642221437    1.0091816224    1.4361406476
 H    0.2510971764   -1.5627452579    1.6375756432