19

 C    0.0339074611    1.4909499771    0.0064432544
 C   -0.0470510472   -0.0160180016    0.0313584367
 C   -0.9137202366   -0.7507209839    1.0231381012
 C    0.5906649443   -0.8696482880    1.1015475926
 C    1.3654726849   -1.9313850600    0.2513396012
 O    1.7805498261   -1.1240978777   -0.8694465967
 C    0.4424644372   -0.7645985048   -1.2648485952
 C   -0.2137671969   -2.1382997910   -1.3682905264
 C    0.3685800281   -2.8730124469   -0.4202523140
 H    1.0138708484    1.8207500520   -0.3561019898
 H   -0.7314156766    1.9246936727   -0.6485499062
 H   -0.1126060128    1.9117587400    1.0062735029
 H   -1.3862982832   -0.1411512812    1.7891511472
 H   -1.5024689393   -1.6038834034    0.7077633179
 H    1.1224750352   -0.4226766944    1.9334580532
 H    2.2274212186   -2.3753075791    0.7466904105
 H    0.4593614621   -0.1432110857   -2.1597054845
 H   -1.0403049235   -2.3950351620   -2.0164215543
 H    0.1335218703   -3.8779943919   -0.0980141807