20

 C   -0.1056027817    1.5701373682    0.0724681692
 C   -0.0055339586    0.0509367764    0.0105790619
 C    0.8290449967   -0.5120801035   -1.1310778463
 C    2.3379275043   -0.3167856703   -0.7605189940
 C    2.5926907951   -1.7457120655   -1.3266386528
 C    1.1546616871   -2.0006713189   -0.7875119822
 C    1.3104411703   -1.7856923498    0.7346059339
 C    2.1650922868   -0.5658653266    0.7523481481
 N    0.7418283816   -0.4912325895    1.1666288249
 H    0.8879880545    2.0300499364    0.0587172271
 H   -0.6716123000    1.9581754574   -0.7804408301
 H   -0.6088524340    1.8833831855    0.9912506355
 H   -1.0100379621   -0.3915657538    0.0210873342
 H    0.5465051819   -0.2982090936   -2.1605300101
 H    2.9194204498    0.5490584170   -1.0745642509
 H    2.6497117885   -1.7681576039   -2.4192293828
 H    3.4137411082   -2.3287414167   -0.8989627619
 H    0.5368548911   -2.8319597059   -1.1259559585
 H    1.3457677666   -2.5959280657    1.4517248107
 H    2.9242767339   -0.3341089972    1.4881077942