16

 C   -0.0326027483    1.5406028302    0.0787626011
 N    0.1026606132    0.1020987001    0.1276278602
 C   -1.1228874278   -0.7122000525    0.3053438971
 C   -0.4206327940   -1.5298772231    1.4003627864
 O    0.4774141267   -2.5652531437    0.8996842941
 C    1.5727183992   -1.7066449452    0.9364073282
 N    2.7849289831   -1.9220297159    0.7168274031
 C    0.7347327052   -0.5036279570    1.3293580023
 H    0.9586521529    2.0030733127    0.0463070851
 H   -0.5628556035    1.8248202819   -0.8360377918
 H   -0.5860243093    1.9650619203    0.9384263958
 H   -1.9651849172   -0.1397036670    0.7244435094
 H   -1.4569547059   -1.2519981838   -0.5861713163
 H   -0.9605710865   -1.8602599323    2.2851007922
 H    2.9517554483   -2.8932567768    0.4472310173
 H    1.0703876838    0.1675768521    2.1203719557