23

 C   -0.0785315833    1.5445809641   -0.0131413399
 C   -0.0166316077    0.0085992276   -0.0076944312
 C   -1.4553991664   -0.5266053506   -0.0893594270
 C    0.8943144085   -0.5565535222   -1.1052481886
 C    2.3075649265   -0.6031142354   -0.5560467001
 C    2.2510266276   -0.1038149822    0.8860368601
 C    0.8085689733   -0.5838118887    1.1864316706
 C    0.9363618094   -2.0824269421    0.8133412836
 C    1.4668709758   -1.8682559354   -0.6025467967
 H    0.9085805433    2.0093332478   -0.0462650731
 H   -0.6324807077    1.8984938122   -0.8898073553
 H   -0.6011573667    1.9183908284    0.8751290722
 H   -1.9666927585   -0.1074573202   -0.9631724649
 H   -1.4997700552   -1.6134356159   -0.1804546929
 H   -2.0322033565   -0.2353714544    0.7962898021
 H    0.6967152136   -0.3865865746   -2.1568432815
 H    3.1742385373   -0.4716530407   -1.1906989928
 H    2.9860013840   -0.5994837328    1.5299139010
 H    2.3916034220    0.9745244854    0.9871659924
 H    0.4222117119   -0.3636894673    2.1824289664
 H    1.6563433739   -2.6007353494    1.4563309236
 H   -0.0056676304   -2.6334783313    0.8546872537
 H    1.7034981254   -2.6849324521   -1.2720514016