17

 N    0.1300528847    1.4083166092   -0.1694049726
 C   -0.0111560288   -0.0536236081   -0.0300769823
 C    0.6175086334   -0.5821196137    1.1958294626
 C    1.1503671437   -0.9591445340    2.2049927913
 C   -1.4637729929   -0.3535525659    0.0306376287
 N   -2.5925835050   -0.5937382346    0.0698668698
 C    0.5590811709   -0.6978477551   -1.3011626044
 C    2.0235392381   -1.0409960214   -1.4091961020
 C    0.9872130015   -2.1358836547   -1.3480230570
 H   -0.1989513605    1.8663813113    0.6763197419
 H    1.1212171773    1.6178168533   -0.2547508760
 H    1.6105380976   -1.2968611459    3.1014001233
 H    0.0812045851   -0.2872793945   -2.1837592015
 H    2.5163205287   -0.8370120812   -2.3528450084
 H    2.6462914653   -0.9030552241   -0.5324180352
 H    0.9296383406   -2.7097733164   -0.4301548859
 H    0.7620972102   -2.6965055142   -2.2475724224