16

 O    0.0647143379    0.2187223127    0.8649846193
 C    0.0322298009    1.2051612875    0.1786267294
 C   -1.3254154942    1.8450744226   -0.1411442436
 C   -1.4838515933    2.9309711494   -1.2209338314
 C   -0.6435347070    4.1475399163   -0.9377354833
 C    0.6852448510    4.0657310403   -0.9114819307
 C    1.3715762596    2.7643237895   -1.2177731310
 O    1.2138711437    1.7365373833   -0.2144157251
 H   -1.9872768215    1.0001767507   -0.3525641000
 H   -1.6622773154    2.2500101319    0.8210919933
 H   -1.2265462481    2.5142649823   -2.2039031697
 H   -2.5431195404    3.1982171251   -1.2737502960
 H   -1.1454858403    5.0836707150   -0.7096853836
 H    1.3022800005    4.9249183558   -0.6689361891
 H    1.0357258107    2.3633765966   -2.1826075123
 H    2.4533537458    2.8928243911   -1.2760763461