21

 C    0.0571630292    1.0063198181   -1.2198897339
 O   -0.1640518438    0.3139870407   -0.0045314542
 C   -1.3075824049   -0.5213073725    0.0362655625
 C   -1.0211155647   -1.9129143139   -0.5321975647
 O   -0.8503562680   -1.8104795051   -1.9386528447
 C   -1.7632160163   -0.6076147735    1.4907809574
 C   -0.7010090861   -0.8900572096    2.5815795218
 O   -1.0684039998    0.3002824170    3.3061779436
 C   -1.9696183228    0.7150892679    2.2597338223
 H    0.8984568229    1.6821948983   -1.0451111841
 H    0.2940645241    0.3251451930   -2.0426778547
 H   -0.8220549144    1.6048522594   -1.5036224710
 H   -2.1168456203   -0.0743113430   -0.5660980133
 H   -0.1172819947   -2.3087490578   -0.0452057297
 H   -1.8616472418   -2.5820878602   -0.2867666978
 H   -0.5427966872   -2.6595492756   -2.2688015895
 H   -2.6277765915   -1.2724726640    1.5607210255
 H   -0.8435489577   -1.7965628069    3.1819603440
 H    0.3340180046   -0.8456606170    2.2235108174
 H   -1.5991572802    1.6005212309    1.7300074373
 H   -2.9798649467    0.9086505839    2.6396872658