19

 C   -0.1305255294    1.5558202355    0.0234754312
 C    0.0275446104    0.0423358340   -0.0397048265
 C    1.1997777959   -0.6067874026   -0.8105374658
 C    2.1396850490   -0.2481731504    0.4222098795
 C    0.8158504202   -0.6570896721    1.1175404235
 O    0.1872630123   -0.9223532869    2.3853903132
 C   -0.4160248779   -2.1247831911    1.7767777222
 C    0.7424013877   -2.1008095836    0.7238150952
 O    0.8463488710   -2.0238197787   -0.7014537382
 H    0.7956810033    2.0858082532    0.2579970321
 H   -0.5043538791    1.9441162338   -0.9298780174
 H   -0.8606565485    1.8182342281    0.7959998997
 H   -0.9296804745   -0.4186358547   -0.2973774694
 H    1.4758442448   -0.3656468669   -1.8345634019
 H    3.0136592975   -0.8755720504    0.6053779304
 H    2.4120382235    0.8058983094    0.4170825411
 H   -0.4224009548   -2.9608438643    2.4792205119
 H   -1.4240188171   -1.9213755987    1.4040264163
 H    1.5618353255   -2.7122631536    1.1158933128