20

 C   -0.1644462822    1.5046744697    0.0556029861
 C   -0.0096325744    0.0054775269   -0.0769852004
 C    0.6648484088   -0.7177547361   -1.2083112754
 N    1.2169059930   -0.7470823664    0.1674727392
 C    2.4717288554    0.0555966195    0.1653413345
 C    2.6975188503    0.6762362651   -1.2314356511
 C    4.0803607000    0.4141142833   -1.8382444215
 C    1.5898352453    0.0492688471   -2.0999328188
 O    1.5339536892    0.1016402058   -3.3037360745
 H    0.6287077969    2.0816491515   -0.4208283421
 H   -1.1132177998    1.8129212440   -0.3947422485
 H   -0.1970973614    1.7852594393    1.1143396446
 H   -0.8742409289   -0.5284581461    0.3168611550
 H    0.2212811654   -1.6211402029   -1.6154781164
 H    2.4308345529    0.8001991605    0.9655355615
 H    3.2844576218   -0.6367573171    0.4064891258
 H    2.5303611243    1.7606369393   -1.2267560476
 H    4.3135138151   -0.6559195043   -1.8341586408
 H    4.1032729761    0.7609977633   -2.8744679581
 H    4.8612112921    0.9331713976   -1.2746951214