18

 C   -0.0584738660    1.5343855683    0.0267633268
 C    0.0100728954    0.0361708279    0.0109602709
 C   -0.8883547797   -0.8822002997    0.7979027069
 C    0.5999608753   -0.9279004542    1.0326112403
 C    1.3605559433   -1.6681802735   -0.1132092061
 N    0.3559124551   -2.1574632898   -1.1125960057
 C    0.7604614758   -0.7411792583   -1.1158401907
 C    2.6668334475   -2.2093512724   -0.0287074532
 C    3.7766151732   -2.6670425343    0.0702974053
 H    0.9180180888    1.9834665445   -0.1908041038
 H   -0.7705952278    1.9107990601   -0.7181001413
 H   -0.3807411604    1.8992638192    1.0071499082
 H   -1.4418846523   -0.3855367468    1.5896943998
 H   -1.3997472919   -1.7112464792    0.3262152390
 H    1.0679559984   -0.7059080314    1.9825205672
 H    0.8858557259   -2.6284386675   -1.8459652732
 H    1.2273764479   -0.2844948468   -1.9797494889
 H    4.7557700816   -3.0690927061    0.1519847985