20

 C   -0.0247333483    1.4792039014    0.2390344358
 C   -0.0768063737   -0.0155685611   -0.0518003781
 C   -1.5034408288   -0.4802894310   -0.3518705997
 C    0.9420655028   -0.4706997612   -1.1207000891
 C    1.3820128254   -1.8484733012   -0.6177917754
 O    2.6804267040   -2.2167906889   -0.9991086779
 C    1.2499560667   -1.6792836346    0.8844116952
 N    1.9281396565   -2.3632059946    1.7022127222
 O    0.3674460529   -0.7001296244    1.1734692802
 H    0.9839248618    1.7778741846    0.5362986938
 H   -0.3047269344    2.0463545037   -0.6541539837
 H   -0.7166838730    1.7425923827    1.0442577661
 H   -1.9013092253    0.0521750412   -1.2212613380
 H   -1.5393824122   -1.5527230102   -0.5632857505
 H   -2.1543785520   -0.2790175229    0.5034204665
 H    0.5109171143   -0.4856327907   -2.1233303967
 H    1.8163437009    0.1873762779   -1.1272392064
 H    0.6556328054   -2.6148089729   -0.9377677915
 H    3.0618845933   -2.6496502944   -0.2204051250
 H    1.7482703538   -2.0989162934    2.6705011123