17

 C   -0.0186878596    1.4731743670   -0.1464975759
 C    1.2974661211    0.7508854007    0.0592610524
 O    2.1912969525    0.2929677003   -0.9366246138
 C    1.5584452641   -0.8225421451   -1.5227923220
 C    0.8766735387   -2.0319128133   -0.7753737371
 C    0.5683056500   -2.1382173575    0.6987887294
 C   -0.0562781504   -1.0414278944    1.1463468740
 C    0.0100610979   -0.0296155117    0.0301545759
 C    0.1013269168   -0.8327362490   -1.2774320453
 H   -0.3338808743    2.1190755723    0.6681841656
 H   -0.3074813878    1.8231971560   -1.1328858728
 H    1.7932231318    0.9056485665    1.0110916082
 H    2.0054258329   -1.0682562689   -2.4798614612
 H    0.9102642535   -2.9449228573   -1.3625665499
 H    0.8097024904   -3.0173701864    1.2826341289
 H   -0.3597891487   -0.8320247460    2.1640465414
 H   -0.6963707390   -0.8311178132   -2.0149768577