24

 C    0.0097711007    1.4794030981    0.3280545737
 C   -0.0681272549   -0.0109005013   -0.0222409310
 C   -1.5074854781   -0.5403324332    0.0474611535
 O   -2.0939857722   -0.4249335760    1.3342577605
 C    0.5256437233   -0.2965164894   -1.4106395131
 N    1.9429488754    0.0474596681   -1.4468141445
 C    2.9117061436   -1.0177154855   -1.2055545406
 C    2.7831614896   -0.4022294388   -2.5581291137
 C    2.2519599878   -1.1897162481   -3.7367294467
 H    1.0319439734    1.8435000439    0.2069107172
 H   -0.6377596692    2.0715088498   -0.3321260692
 H   -0.2961246175    1.6649313890    1.3631039399
 H    0.5192501325   -0.5737036850    0.7161646879
 H   -2.1240774914   -0.0351740249   -0.7161548796
 H   -1.5222631587   -1.6110575996   -0.1847250882
 H   -2.2051377970    0.5112374075    1.5243173486
 H    0.3353241202   -1.3518594022   -1.6698137485
 H    0.0101885430    0.3156200169   -2.1631853725
 H    3.7444892847   -0.7753391201   -0.5501307796
 H    2.5286278984   -2.0325066632   -1.0926950672
 H    3.5263104797    0.3443707784   -2.8376956516
 H    1.5759014845   -1.9927169407   -3.4341040481
 H    1.7163185020   -0.5400322145   -4.4380379240
 H    3.0845802102   -1.6463616593   -4.2822352135