23

 C    0.2503123738    1.5424652320   -0.3807169291
 C   -0.0017323125    0.1019123717    0.0618101059
 O    0.2535846130   -0.7706158666   -1.0489658259
 C    1.3165987379   -1.6697322661   -0.7519126277
 C    2.0491838323   -1.0782336663    0.4524586225
 C    0.8884116185   -0.4205446079    1.2202436429
 C    1.2757439039    0.6128177126    2.2791187015
 C    2.0306871782    0.0106332343    3.4589469650
 O    2.2669362877    1.0511277385    4.3954742139
 H    1.3072845786    1.7144452133   -0.6079601896
 H   -0.3239805506    1.7427888385   -1.2893669471
 H   -0.0619865680    2.2578152101    0.3865306287
 H   -1.0619834218   -0.0001135742    0.3312427407
 H    0.9143022481   -2.6665550702   -0.5101530321
 H    1.9464681005   -1.7705605668   -1.6423891144
 H    2.5822980130   -1.8356357514    1.0325599865
 H    2.7765795744   -0.3220369793    0.1342195346
 H    0.3257460087   -1.2241173221    1.7159035335
 H    1.8946717647    1.4028782537    1.8397562927
 H    0.3763948273    1.1015043330    2.6737515621
 H    1.4328383181   -0.8009420698    3.9068628715
 H    2.9773878827   -0.4350917692    3.1149159788
 H    2.7635367017    0.6855104722    5.1331735152