15

 O   -0.2507336739    0.1151306988    0.3876445891
 C   -0.1328512542    1.2702949293    0.1038800980
 N   -1.2256708807    2.1577260105   -0.2549091657
 C   -0.6378014084    3.3638555454    0.2686995921
 C   -0.6025762725    3.7575738480    1.5521035353
 C    0.8509258983    3.8165440761    2.0019734245
 C    1.5925070326    3.2115622695    0.8027771192
 C    0.7250896189    3.3609042065   -0.3665603112
 N    1.1171286985    1.9856376880   -0.0309922540
 H   -2.0933516478    1.8431651524    0.1636054256
 H   -1.4064140065    3.5873160948    2.2593055587
 H    1.2846561028    4.8060616554    2.2080603098
 H    0.9477099371    3.2340522714    2.9259812320
 H    2.6717570278    3.2939827003    0.7406474007
 H    0.9521015280    3.7671556837   -1.3466266342