18

 O    0.0791960732   -0.0307858312   -0.2857064481
 C   -0.0200080658    1.1559374925   -0.0995480372
 C   -1.3061992531    2.0071366568   -0.0328546997
 C   -0.7878254532    3.4511012919   -0.1138049219
 C   -1.3085644777    4.6160430439    0.7451763292
 C   -0.0239822846    5.4513365695    1.0356796624
 C    1.0864821798    4.4113094014    0.9993308746
 C    0.6336295438    3.3186328824    0.3863533589
 N    1.0482395855    2.0195258889    0.1459395280
 H   -2.0005153766    1.7093470513   -0.8195241725
 H   -1.7830009161    1.7949178773    0.9325275694
 H   -0.7573494504    3.7508941777   -1.1719055446
 H   -2.0979058727    5.1978445679    0.2622296556
 H   -1.7063992484    4.2269331423    1.6895030320
 H    0.1184746309    6.2328842454    0.2744922187
 H   -0.0821154666    5.9689449778    1.9993857445
 H    2.0688457368    4.5621003181    1.4272276770
 H    1.9722383651    1.6534651363    0.3152611338