16

 O   -0.0064470525    0.1343463082   -0.7729145022
 C   -0.0274390421    1.2089342724   -0.2374395764
 C   -1.2513380455    2.0127645899    0.1907967296
 C   -0.8026583950    3.4771189571    0.0547821679
 C    0.7054380929    3.4800232551    0.4118962071
 N    0.9336723277    3.6409005025    1.8628868589
 C    1.4985675535    2.5762867248    2.2509829406
 O    1.7702486874    1.5869101356    1.3624335591
 C    1.2276214309    2.0524448154    0.0997575537
 H   -2.1300998044    1.7373062582   -0.3940186670
 H   -1.4597759095    1.7701434192    1.2414662101
 H   -0.9339452286    3.8149199368   -0.9787815801
 H   -1.3513333575    4.1615993243    0.7038025517
 H    1.2336424579    4.2767202640   -0.1181519452
 H    1.8116408782    2.3583346237    3.2660116462
 H    1.9998721265    1.9496662427   -0.6633581640