17

 C    0.1949877572    1.4034161309   -0.2376157555
 C   -0.0633626137   -0.0700777206    0.0200089520
 C   -1.5317516812   -0.4450620471   -0.0546938687
 O    0.7244047294   -0.8986711117   -0.9308885286
 C    1.5404844772   -1.3776305288    0.0571641792
 O    2.5176233788   -2.0483340560   -0.0613082497
 C    0.7506483663   -0.6990248781    1.1935746848
 N    1.3926937609    0.1653746970    2.1549307300
 H    1.2659801837    1.6196704176   -0.2807769803
 H   -0.2478448738    1.7064145893   -1.1907541923
 H   -0.2432519351    2.0061648104    0.5625220591
 H   -1.9514601605   -0.1784553663   -1.0294119462
 H   -1.6687155772   -1.5199726603    0.0943225917
 H   -2.0959470426    0.0876144569    0.7175715540
 H    0.1491316735   -1.4386012999    1.7300598635
 H    1.7288100133   -0.3735989767    2.9450487255
 H    2.2022708839    0.6268895234    1.7534309817