19

 C    0.0707695860    1.3999514978    0.0441060645
 O   -0.0477578277   -0.0116234763    0.0825964951
 C    0.6430092138   -0.6066633455    1.1487681857
 C    0.2737372351   -2.0943886813    1.2480364873
 C    1.3361366223   -2.6509911435    2.2206417274
 C    2.1914676809   -2.3551469489    0.9724674200
 O    1.0304177485   -2.6830689490    0.1394126165
 C    2.1935402514   -0.8156816416    0.8616130210
 O    2.5765908632   -0.3680011117   -0.4119456917
 H    1.1098849505    1.7118584322   -0.1120593497
 H   -0.5400370554    1.7475922070   -0.7924825615
 H   -0.3080749685    1.8549431834    0.9722125783
 H    0.4528456322   -0.0647962820    2.0862969129
 H   -0.7814858704   -2.3631571582    1.2607321210
 H    1.5426408421   -2.1148381936    3.1512747707
 H    1.2142192008   -3.7202180344    2.3935581490
 H    3.1010496640   -2.8903174374    0.7014258288
 H    2.8456085933   -0.3271354978    1.5896330875
 H    1.9076823078   -0.7145237092   -1.0179789328