20

 C    0.4783143190    1.3108234845   -0.2454998973
 C    0.0170842869   -0.0868281637    0.0818687804
 N   -0.4726530639   -0.5210414722    1.1675437178
 O    0.1857602223   -0.8855729922   -1.0018501615
 C   -0.1048328358   -2.2895154106   -0.8572535523
 C   -0.3573348199   -2.8447753186   -2.2752797650
 C    0.8222165510   -3.8143353952   -2.5115940924
 C    1.8212978429   -3.3768713230   -1.4347755368
 O    1.0026079261   -2.9676208109   -0.3387064797
 H    1.5447331166    1.3045467995   -0.4916502331
 H   -0.0534416453    1.6872361070   -1.1246513312
 H    0.3094397831    1.9870248137    0.5941028391
 H   -0.5386403741    0.2270418192    1.8532491383
 H   -0.9221342639   -2.3956931256   -0.1459794648
 H   -1.3261445893   -3.3442733192   -2.3357396577
 H   -0.3594246808   -2.0181527616   -2.9884067706
 H    0.5139495189   -4.8489295942   -2.3360845311
 H    1.2317268507   -3.7502744313   -3.5223937605
 H    2.4767126310   -4.1744496707   -1.0779768000
 H    2.4433846944   -2.5397301749   -1.7834689116