14

 O   -0.0407969064   -0.0883364733   -0.1819415261
 C    0.0403662984    1.0518332873    0.1951764637
 C    1.2830829566    1.8977780659    0.0369260982
 C    1.1677592821    3.1733239998   -0.8897939101
 C    1.4978714146    4.0473297294    0.3237337813
 O    0.5132102997    3.7843563681    1.3211409693
 C    1.6045489516    2.8628020172    1.2069345644
 C    2.4174593944    2.6106399598    2.3549622733
 N    3.0927126785    2.3701758635    3.2621893808
 H   -0.8143871384    1.5727530738    0.6755298375
 H    2.1287456387    1.2670040899   -0.2389551105
 H    1.9387599951    3.1769377669   -1.6612991676
 H    0.1921301624    3.3691353284   -1.3394341740
 H    2.0151371926    4.9974149833    0.3759901997