16

 C   -0.2409297611    1.4658762370    0.1973594244
 N   -0.2388250775    0.0116936869    0.1824781367
 C    0.9346030081   -0.5674837403    0.7954609774
 C    0.7984601436   -2.0515115289    0.9891339259
 N   -0.4154008869   -2.5947961465    1.0352532887
 C   -0.3975137463   -3.9091738681    1.2273351338
 N    0.6945003228   -4.6601475653    1.3744540632
 N    1.8692307255   -4.0447690683    1.3374088839
 N    1.9406813681   -2.7467564790    1.1428046916
 H    0.5849848666    1.8430423137   -0.4167093944
 H   -1.1734889191    1.8321959367   -0.2399840279
 H   -0.1332238807    1.9082270756    1.2044650805
 H   -1.0709680280   -0.3627745365    0.6231787638
 H    1.8218268866   -0.3859321812    0.1767921540
 H    1.1811799789   -0.1421238572    1.7923356753
 H   -1.3495479606   -4.4320657485    1.2719079031