19

 C   -0.0892222922    1.5253173643    0.0801348384
 C    0.0680729116    0.0286170490   -0.0474171339
 C    0.7259507149   -0.6645847153   -1.2069539105
 C    1.6634201451    0.1193150909   -2.1264155784
 C    2.7932937140    0.5520546870   -1.2163124083
 C    2.6497772538    0.0824355585    0.0237335932
 C    1.3953071785   -0.7198505279    0.1836850815
 C    1.4012336373   -1.8897297183    1.0094532343
 C    1.4112732881   -2.8637748095    1.7167396969
 H    0.8092514424    2.0630780677   -0.2292382129
 H   -0.9231214369    1.8736410992   -0.5399812135
 H   -0.3069928398    1.8041244765    1.1164275376
 H   -0.7751019430   -0.5301164888    0.3510180797
 H    0.2469881544   -1.5549771314   -1.5961675047
 H    2.0281718621   -0.5064386124   -2.9509017023
 H    1.1629748841    0.9789256894   -2.5924830463
 H    3.5993256921    1.1947673190   -1.5521845674
 H    3.3283949964    0.2481776673    0.8517043456
 H    1.4218183471   -3.7264411253    2.3351034213