18

 C    0.0191777260    1.5746697573   -0.1411846643
 C    0.0065807303    0.0697410291    0.0019677136
 O   -1.1775285623   -0.5307637346   -0.4642467859
 C    1.2793343055   -0.7344861515   -0.1389739027
 C    0.5698366500   -0.6358458341    1.2027187617
 C    1.1992833631    0.0826306905    2.3818549143
 C    2.1311686547   -0.8339016622    3.1491537139
 O    3.2708013758   -0.5740232232    3.4352454315
 H    0.9404304968    2.0175150833    0.2450014039
 H   -0.0590213675    1.8551823477   -1.1987703559
 H   -0.8305067208    2.0183836779    0.3875330100
 H   -1.2139310836   -0.4057310564   -1.4195077203
 H    1.2205296655   -1.6776496640   -0.6703326483
 H    2.2161876126   -0.1984813473   -0.2574861230
 H   -0.0033357038   -1.5190166445    1.4727567094
 H    1.7679171470    0.9663617057    2.0820912885
 H    0.4121919917    0.4083761534    3.0787941217
 H    1.6742895689   -1.8082222571    3.4434218718