11

 O   -0.0187999364   -0.0593280376   -0.0009398659
 C   -0.0172742331    1.1302786680    0.0089286342
 N    1.1648001104    1.9231275996    0.0025011449
 C    1.2428683209    3.2814868653    0.0123999810
 C    2.5872241513    3.5425858771    0.0002048641
 N    3.2667422903    2.3349295504   -0.0168731920
 N    2.4224200487    1.3713242935   -0.0154834625
 C    3.2475473020    4.7970190345    0.0032069203
 N    3.7672649725    5.8302965424    0.0059230340
 H   -0.9144960823    1.7729093728    0.0232833176
 H    0.3787981856    3.9239566540    0.0267682744