17

 N   -0.2377147988   -1.1874513863   -0.3292270336
 C   -0.1197755524   -0.0484762326   -0.1676447601
 C    0.0105247824    1.3917853236    0.0438416123
 C   -0.2663222255    2.0054366446    1.4497785502
 C    0.0989264982    1.0195691570    2.5653144277
 C    1.5841211156    0.6691817680    2.2711494329
 C    2.0452479101    1.7828081696    1.3384138322
 C    1.0201809912    2.8304376142    1.1919988029
 N    1.3986780787    1.9787982457   -0.0007898229
 H   -0.5678425672    1.9004600101   -0.7324473042
 H   -1.2203370159    2.5173132178    1.5663422767
 H    0.0000717377    1.5137526550    3.5373409915
 H   -0.5505826669    0.1397229487    2.5678803433
 H    2.1921388217    0.6701758304    3.1803708472
 H    1.6947103004   -0.3166963291    1.8122156560
 H    3.0979792936    2.0376702442    1.2867943287
 H    1.1522956669    3.9049714690    1.2073067193