21

 C   -0.6130251122    1.2166479762    0.0274557254
 C    0.1439133729   -0.0924903650   -0.1383223935
 C    1.5575000678   -0.0406583759   -0.7954949418
 C    2.0863796454   -1.0322093909    0.2796916185
 C    0.8132950347   -0.7552298779    1.0884103388
 C    0.7659557257   -0.2800591670    2.4934706233
 C    0.2211124074   -1.6682658770    2.1531928603
 C   -1.2380302587   -1.8819830481    2.2038419588
 O   -1.7753566272   -2.9302051256    2.4693917703
 H   -0.0115246833    1.9542707227    0.5695787698
 H   -0.8616258668    1.6422271453   -0.9508225302
 H   -1.5528488920    1.0815185699    0.5741395021
 H   -0.4848027788   -0.8219390282   -0.6620118998
 H    1.6289081804   -0.3553330493   -1.8386138065
 H    2.0097292178    0.9505882826   -0.6973690991
 H    2.1324163369   -2.0622167833   -0.0861572316
 H    3.0377975678   -0.7885762573    0.7595122255
 H    1.6829232919   -0.2448031525    3.0723995574
 H    0.0365290223    0.4801922697    2.7589432146
 H    0.8122376903   -2.5320765114    2.4412070843
 H   -1.8422799322   -0.9725556669    1.9722357836