15

 C    0.0070964537    1.4926937902    0.0215092770
 C    0.0360433977   -0.0139453444    0.0223294381
 N    0.0812257705   -0.6078471520   -1.1789514766
 C    0.1075967617   -1.9426004444   -1.2025970688
 C    0.0916010402   -2.7542368417   -0.0764029184
 C    0.0446054911   -2.1300232952    1.1685666362
 O    0.0283926630   -2.9071617696    2.2784803793
 C    0.0164239861   -0.7359885508    1.2156364831
 H    0.8938034104    1.8874667513   -0.4844327000
 H   -0.8634342706    1.8536565066   -0.5352048827
 H   -0.0299961446    1.9022041848    1.0340298630
 H    0.1441021993   -2.3994430277   -2.1892954763
 H    0.1144262406   -3.8345270538   -0.1484627539
 H   -0.0044024339   -2.3443343736    3.0599751608
 H   -0.0203808954   -0.2179641597    2.1701840692