21

 C    0.0042458358    1.5141964985    0.0074054292
 C   -0.0050751307   -0.0097913249   -0.0263775627
 C    0.7489201758   -0.5990982525   -1.2249451471
 C    1.9726139985   -0.8914491651   -0.3622059716
 C    1.0887238296   -0.6650501011    0.8881879459
 O    0.6901834013   -1.9428360724    1.3594956162
 C    0.4995255132   -2.7602440106    0.2015148118
 C    1.1928770140   -2.0311477253   -0.9506810482
 C    1.7341504605   -2.8453981734   -2.1003539291
 H    1.0198576477    1.9047718713   -0.1244001875
 H   -0.6177441619    1.9339996948   -0.7906393356
 H   -0.3803496132    1.8868273873    0.9629711776
 H   -1.0184950045   -0.3880023685    0.1550019332
 H    0.7199597293   -0.2170722508   -2.2406021879
 H    3.0273284763   -0.6999601208   -0.5089272114
 H    1.4559862385   -0.0784115968    1.7304279055
 H    0.9569922245   -3.7403432836    0.3863019067
 H   -0.5727804375   -2.9164751841    0.0147042180
 H    0.9288885355   -3.3620313640   -2.6353960482
 H    2.2552900944   -2.2113811152   -2.8243435791
 H    2.4411703528   -3.6056161528   -1.7492647257