23

 C    0.0037193173    1.5442578023    0.2388170502
 C   -0.0447783563    0.0317498112    0.0012571342
 C   -1.4669292939   -0.5567977688   -0.0840114339
 C   -2.1844966976   -0.1145774683   -1.3690337554
 C   -1.4067097444   -2.1008080266    0.0403243725
 O   -0.6914889791   -2.5061563382    1.1965671495
 C   -2.7861940221   -2.7481237048    0.0606729691
 C   -3.0095469683   -4.0488971198    0.6976710896
 O   -3.3760561705   -2.8302820116    1.3680023793
 H    1.0386633000    1.8889986969    0.3292735982
 H   -0.4572299588    2.1120460352   -0.5758275001
 H   -0.5161842710    1.8140893615    1.1651443216
 H    0.4955697005   -0.2139521569   -0.9242061240
 H    0.4848069589   -0.4774117426    0.8108240700
 H   -2.0407891694   -0.1909815564    0.7811122227
 H   -1.7120820123   -0.5602655943   -2.2533410167
 H   -3.2423739035   -0.3909229382   -1.3781444252
 H   -2.1400452303    0.9711795067   -1.4878238926
 H   -0.8488755904   -2.4977875746   -0.8197620778
 H   -1.3205283743   -2.4244039132    1.9277585726
 H   -3.4798225641   -2.4420103262   -0.7195745413
 H   -3.8477611130   -4.6662328778    0.3803697080
 H   -2.1649254674   -4.5748649253    1.1344459394