16

 C   -0.0350136978    1.4450182248    0.2217177685
 C    0.0357760731   -0.0311195222   -0.0842799761
 O    1.0716529581   -0.5920896931   -0.3726520932
 C   -1.2509865296   -0.8651836613   -0.0305052515
 O   -0.9742585696   -2.1866329438   -0.4010167154
 C   -1.8878081673   -0.8228130104    1.3796462616
 C   -3.1527316086   -1.6586493036    1.4357282799
 O   -4.2165768487   -1.2377503959    1.8123333531
 H    0.8577703787    1.9417821429   -0.1600039726
 H   -0.9350459721    1.9001450982   -0.2019627684
 H   -0.0775927183    1.5920070191    1.3071520475
 H   -1.9600796484   -0.4123258223   -0.7445561624
 H   -0.0147527706   -2.2071713226   -0.5598602544
 H   -1.1646420650   -1.2488687686    2.0882388154
 H   -2.1366406028    0.1964996899    1.6862043712
 H   -3.0263541911   -2.7064941610    1.0956695869