13

 C    0.0217908449    1.4101583736   -0.0510341489
 N   -0.0419587961   -0.0287283124    0.1479658059
 C   -1.2524451017   -0.6490515368    0.0605043844
 N   -2.4351944126   -0.1092023324    0.0773283211
 C   -3.2934178498   -1.2080039301    0.0312296924
 C   -2.5785877234   -2.3487405534   -0.0214217638
 O   -1.2371676422   -2.0016358191   -0.0034428975
 H    1.0255221303    1.7563532894    0.2043325912
 H   -0.2136920782    1.7128861679   -1.0804463126
 H   -0.6983352451    1.8913174727    0.6132249211
 H    0.7298916303   -0.5724392169   -0.2057094951
 H   -4.3649689525   -1.0844354383    0.0348768405
 H   -2.7969459440   -3.4000723343   -0.0754643887