18

 C   -0.8819174188    1.3621454087    0.3060102969
 N   -1.0674249103   -0.0722800229    0.4142042865
 C   -0.6849061518   -0.9268104254   -0.5650550539
 O   -0.1157055585   -0.6039494537   -1.5906098379
 C   -0.9670918330   -2.4177882293   -0.2722338099
 C   -2.3181251806   -2.7408705636    0.3246369088
 O   -2.7699685409   -2.1672521940    1.3000899285
 C   -3.1369010097   -3.8363149869   -0.3307113253
 O   -4.3335624757   -4.0709818995    0.3428582675
 H   -0.2726834128    1.5527401033   -0.5778783420
 H   -1.8395354795    1.8842214795    0.1969276329
 H   -0.3695287847    1.7552795404    1.1900304475
 H   -1.6153534675   -0.4533441402    1.1733013853
 H   -0.8028594223   -2.9615831167   -1.2035811886
 H   -0.2114252623   -2.7567848704    0.4486224198
 H   -3.3084808014   -3.5332771721   -1.3790321907
 H   -2.5158237688   -4.7467494674   -0.3785327552
 H   -4.3568251814   -3.4208385199    1.0622544799