17

 N   -0.0319275621   -1.0930900234    0.3966539953
 C   -0.0132308884    0.0452702251    0.2012717510
 C    0.0300318127    1.4834868715   -0.0713349257
 C    1.4390097793    2.0123124998   -0.1845381001
 C    2.6236164035    1.3831316129   -0.8987379758
 C    3.4536986413    2.2877831281    0.0318789966
 C    3.1652621164    3.7382464831   -0.4022103516
 C    1.7678583560    3.4435821638    0.1098670253
 N    2.2482413382    2.3524402592    1.0323870078
 H   -0.5251479286    1.6771439066   -0.9976654605
 H   -0.4944748423    2.0106286322    0.7334919966
 H    2.7184674582    0.3290455676   -0.6267733990
 H    2.7314354238    1.5034799046   -1.9816984889
 H    4.4310381142    1.9823396058    0.3978179514
 H    3.6699589264    4.4586454730    0.2460530479
 H    3.3140865345    4.0109404485   -1.4520037920
 H    1.0079333670    4.1492205714    0.4287960018