15

 O    0.6766289771    0.9817533767    1.2441028287
 C    0.6280813057    1.7538274125    0.3254167728
 C    1.2447800691    1.4710660060   -1.0434443914
 N    1.3280006972    2.6643019110   -1.8594422794
 C    2.3063650024    3.5880609022   -1.5803837771
 N    2.9568141723    3.6093174471   -0.4227489953
 N    3.7625614975    4.7002560626   -0.5882036911
 C    3.5663100901    5.2456222314   -1.7983563342
 N    2.6481393798    4.5717563865   -2.4657136021
 H    0.0941895542    2.7279274531    0.3878413973
 H    2.2146455209    0.9796964114   -0.8846557959
 H    0.5858572954    0.7546616943   -1.5468406279
 H    1.1424841332    2.5653526987   -2.8444673794
 H    4.3908024619    4.9730275660    0.1483241088
 H    4.1009823534    6.1147914605   -2.1512608238