23

 C   -0.0304708430    1.5258526962    0.0507651002
 C    0.0290559804   -0.0023609237   -0.0571602252
 C    0.7332897343   -0.4923786757   -1.2973016878
 C    0.3493398347   -0.2313157058   -2.7949523454
 C    1.6145018216   -1.1378555386   -2.8491437002
 C    2.2187209525   -0.2386007231   -1.7303657522
 C    0.9697296728   -1.9610561014   -1.7225690396
 C    1.4163441949   -3.1627986790   -0.9676073591
 C    0.0853803625   -3.1575163608   -1.7255063393
 H    0.9744805507    1.9600266086    0.0718534922
 H   -0.5626498214    1.9617725749   -0.8010686698
 H   -0.5482660038    1.8365420917    0.9632191859
 H    0.5376889720   -0.4140374298    0.8250493848
 H   -0.9899004446   -0.4122612666   -0.0430435608
 H   -0.5878088356   -0.6740971427   -3.1420567982
 H    0.4736692210    0.7933535587   -3.1572329558
 H    2.1199108230   -1.5147667683   -3.7392491816
 H    2.4729588382    0.7855408306   -2.0187336442
 H    2.9927333864   -0.6880675553   -1.1029348035
 H    2.2228362629   -3.7684020970   -1.3702086088
 H    1.3739274985   -3.1503219537    0.1177357105
 H   -0.8262968331   -3.1415811051   -1.1351472982
 H    0.0164354851   -3.7596527842   -2.6265904939