19

 C   -0.0111133022    1.5645775116    0.0106265253
 C    1.4677457331    1.9321593733    0.0003526293
 C    2.2341555780    0.7635154562    0.5734690350
 C    1.2163498495   -0.3230667737    0.9090349536
 C    0.0290561333    0.0219015435   -0.0329278943
 C    0.4489857467   -0.4409618161   -1.4288844030
 O    0.4595174593    0.5223217466   -2.4858410615
 C    1.7136375879    0.1476966383   -1.8800756383
 C    2.3487059636    1.1005204196   -0.9118064587
 H   -0.4706518167    1.9041902189    0.9462063108
 H   -0.5703224807    1.9849151700   -0.8262848325
 H    1.7640782954    2.9558853326    0.1983779754
 H    3.1012723129    0.8991639406    1.2091076687
 H    1.5925886166   -1.3398828498    0.7472797749
 H    0.9161120607   -0.2427968171    1.9598874893
 H   -0.9112999339   -0.4393219827    0.2766669753
 H    0.1635196996   -1.4470784293   -1.7325917021
 H    2.3765839330   -0.4032087966   -2.5447508625
 H    3.2778885639    1.5625954842   -1.2280170047