16

 N   -0.0167431442    1.4349260596    0.1167729771
 C    0.0019062462    0.0291319303    0.0424444055
 C   -1.1855903123   -0.7103742629    0.0448660394
 C   -1.1667551177   -2.0999073639    0.0374881770
 C    0.0403486726   -2.8068875717    0.0273824059
 N    0.0598176358   -4.2133809900    0.0867741108
 C    1.2278309141   -2.0673715434    0.0228743964
 C    1.2089959608   -0.6778368396    0.0302561444
 H    0.8021289866    1.8688419207   -0.2876270924
 H   -0.8519682104    1.8463658873   -0.2775492804
 H   -2.1394471640   -0.1901298527    0.0537574724
 H   -2.1061591169   -2.6458794159    0.0407192754
 H   -0.7639869150   -4.6430970301   -0.3120544510
 H    0.8901100981   -4.6206205715   -0.3220587371
 H    2.1816921831   -2.5876173403    0.0145471083
 H    2.1484045332   -0.1318691060    0.0275940884