19

 O    0.0742799950    1.4050952212    0.0409151208
 C   -0.0440518244    0.0133878086    0.0308401637
 C   -0.5265959534   -0.7492202000    1.2492588874
 C   -1.1689234141    0.0960500826    2.3291663070
 O   -0.1665998639    0.9762852386    2.8679193797
 C   -2.3393359502    0.8624673747    1.6485192614
 C   -2.6348082240    0.1337474330    0.3198356359
 C   -1.3838434409   -0.6757698705    0.0024480283
 O   -1.5309965173   -1.8236883316   -0.7794180761
 H    0.3471288179    1.6484143925    0.9365483052
 H    0.7279156968   -0.4979569211   -0.5444449673
 H   -0.0065693718   -1.6583698059    1.5263592610
 H   -1.5439655381   -0.5519490611    3.1330904587
 H   -0.5872280683    1.5448071267    3.5217824310
 H   -3.2205033241    0.9131932939    2.2948756218
 H   -2.0071753571    1.8834908776    1.4514400481
 H   -3.4607649598   -0.5771473974    0.4276838809
 H   -2.9030971924    0.8327588477   -0.4796644802
 H   -1.5433171198   -1.5530265494   -1.7041202073