20

 C   -0.0302741480    1.5237945657    0.0414745911
 C    0.0362155689    0.0133479807    0.0586556191
 C    0.8953012686   -0.8156001669   -0.9711131619
 C    0.7243443632   -1.9310504484    0.1166589451
 C    0.8353296097   -0.7712144365    1.1404744029
 C   -0.7900644744   -2.1955007277   -0.0005578449
 C   -1.7360805373   -1.6947879498    1.0639210342
 C   -1.2974981262   -0.7662083831   -0.0431795957
 H    0.9700662013    1.9685661815    0.0688866242
 H   -0.5324266979    1.8875652882   -0.8628225832
 H   -0.5904141917    1.9032805309    0.9036828933
 H    0.4599008474   -1.0010178514   -1.9578951212
 H    1.9229013117   -0.4510837136   -1.0681666412
 H    1.3848925354   -2.7971031366    0.1649009630
 H    1.8609006199   -0.4016061891    1.2148030961
 H    0.4253281813   -0.8847675940    2.1453530796
 H   -1.1291497611   -2.9495810011   -0.7020323165
 H   -2.7560225709   -2.0596124181    0.9839677274
 H   -1.4166413478   -1.5520632688    2.0892761165
 H   -2.0237988921   -0.4304202419   -0.7760328580