15

 O   -0.0599781568    1.4294317721   -0.1325816673
 C    0.0466189395    0.0166439667   -0.1134180539
 C   -1.3599498985   -0.5363105969    0.1376087474
 C   -1.4081524761   -2.0201179739    0.1744471338
 C   -1.6739390485   -2.9525912150    1.1225359495
 N   -1.5615509190   -4.2271562391    0.5763013859
 C   -1.2370360363   -4.0087895722   -0.6538321127
 O   -1.1213396351   -2.7014312220   -0.9859248702
 H    0.8119576597    1.7963431542   -0.3045766189
 H    0.4286973402   -0.3754257787   -1.0677607252
 H    0.7234244993   -0.3303095755    0.6828053971
 H   -1.7280978762   -0.1503429832    1.0927767148
 H   -2.0247751702   -0.1492682313   -0.6438307471
 H   -1.9413991212   -2.8001741581    2.1562149900
 H   -1.0504077104   -4.7260683971   -1.4376016332