19

 C   -0.0260136284    1.5002246974    0.0888744216
 C   -0.0241290410    0.0079807207   -0.0080113231
 C    0.0084919296   -0.7418698322   -1.1165200515
 C   -0.0315624329   -2.2268451899   -0.8165501208
 O    0.9572424222   -3.0110406371   -1.4765365374
 C    0.0343475499   -2.2747038938    0.7142079561
 O   -0.6813522851   -3.2724221729    1.3716989776
 C    1.2584788162   -1.6921359575    1.3827973343
 C   -0.0151230014   -0.8635370422    1.2156170353
 H    0.8312243324    1.8576807291    0.6731373318
 H    0.0079844755    1.9690125727   -0.8979930331
 H   -0.9250957209    1.8590402453    0.6054727728
 H    0.0568952890   -0.3656748841   -2.1324894285
 H   -0.9826360319   -2.6733955322   -1.1347960599
 H    1.8159094510   -2.6369761306   -1.2483875615
 H   -0.2514958938   -4.1126656396    1.1736023132
 H    1.4602280759   -2.0769545550    2.3768613980
 H    2.1334095643   -1.4084487177    0.8047182094
 H   -0.5771480106   -0.5911887104    2.1017902856