21

 C   -0.0730196670    1.5672001673   -0.0368823872
 C   -0.0000915059    0.0383051286    0.0085419412
 C    0.6686499951   -0.5943583304   -1.2405552687
 C    1.2861626730   -1.9263316117   -0.7599554835
 C    1.5455636777   -1.7456769666    0.7316400826
 O    1.5719570407   -2.8888317200    1.5390185055
 C    2.2815278861   -0.5100895734    1.1987980423
 O    2.9706003770    0.3609978811    0.3427697916
 C    0.7706219424   -0.5331752999    1.1968619271
 H    0.9309721981    1.9974996071   -0.0876161894
 H   -0.6379861899    1.9061655860   -0.9124806738
 H   -0.5701498385    1.9682094723    0.8529677213
 H   -1.0231368727   -0.3548627022    0.0889956741
 H   -0.0474938610   -0.7426834537   -2.0541492815
 H    1.4525117616    0.0713496556   -1.6066953297
 H    0.5770912946   -2.7556241089   -0.8627537557
 H    2.1851810400   -2.1977859162   -1.3273070482
 H    2.3982802030   -3.3555498561    1.3722087593
 H    2.7234185300   -0.6126210252    2.1910569192
 H    3.7981224463   -0.0599097248    0.0872553751
 H    0.2903861694   -0.5330701990    2.1699068585