16

 O   -0.0831605664   -0.0727915371   -0.0796038228
 C   -0.0133107760    1.1304549242    0.0194720589
 N   -1.0943798922    1.9824275380    0.1998212596
 C   -0.8458746979    3.4126867407   -0.0002978670
 C    0.6702755920    3.4440388327   -0.0223029875
 C    1.4920967790    2.9683248762    1.1191239737
 C    1.1950122171    2.0276211886   -0.0413512080
 C    1.9541653756    2.4851592599   -1.2922876054
 O    1.4437258572    3.8508741928   -1.1552067757
 H   -2.0227170041    1.5960135735    0.2798004122
 H   -1.2366002942    3.7734057173   -0.9600074509
 H   -1.2908524603    4.0112442259    0.8023179915
 H    2.5044407368    3.3431352632    1.2277891342
 H    0.9725054915    2.7512143395    2.0457228219
 H    3.0478270795    2.4520744817   -1.2557846580
 H    1.5959362024    2.0247469127   -2.2180327069