16

 C    0.2856552748    1.7269064386   -0.0118632679
 C    0.0779608649    0.2242656342   -0.1096937166
 C    0.9890981719   -0.4823626553   -1.1724037107
 N    1.8904859103   -0.9050443574   -0.0754966985
 C    0.8459787566   -0.6523839390    0.9404161387
 C    1.3175651897   -0.0106048875    2.1667085518
 N    1.6669165360    0.5022603795    3.1414598593
 C    0.3275890919   -1.5777866084   -1.8853435288
 N   -0.1807021064   -2.4632182223   -2.4284652415
 H    1.3485139571    1.9774569452    0.0514567044
 H   -0.1366513116    2.2254625896   -0.8896545479
 H   -0.2086101959    2.1280708174    0.8773998346
 H   -0.9794954637   -0.0271355661   -0.1893169838
 H    1.4690555826    0.1802852113   -1.8998123583
 H    2.2499366394   -1.8521444286   -0.1229580665
 H    0.2601726624   -1.5380326712    1.2187786518