15

 C   -0.0753325083    1.5594110573    0.0673310638
 C    0.0239904015    0.0357818370    0.0039791596
 C    0.7528791607   -0.4902358698   -1.2690897121
 N    2.1210104519    0.0340186745   -1.3137569608
 C    0.7182402771   -1.9771510270   -1.2491560154
 N    0.7560327498   -3.1304958043   -1.1876664157
 C    0.0413845632   -0.0308652367   -2.4813195042
 N   -0.5210796372    0.3352933646   -3.4204695155
 H    0.9127641536    2.0218569825    0.0286487532
 H   -0.6678210449    1.9519203207   -0.7640092978
 H   -0.5636881471    1.8566368173    0.9992321218
 H    0.5803076246   -0.3564194473    0.8630931685
 H   -0.9684607585   -0.4230441053    0.0355569248
 H    2.6357025637   -0.3131717485   -0.5090993494
 H    2.6016712199   -0.2953389950   -2.1457140707