13

 N   -0.0262674329    1.4082808197    0.1493606404
 C   -0.0320808530    0.0227774922    0.0479101265
 C   -1.1261660996   -0.8370927202    0.0220494835
 N   -0.5852417744   -2.0925686132   -0.0108505868
 C    0.7759373586   -1.9641643085    0.0004866794
 C    1.6350785753   -3.1416891965   -0.0289216325
 O    2.8432317087   -3.1387865777   -0.0229521467
 N    1.1262689248   -0.6817370595    0.0325180002
 H    0.8763035451    1.7921551019   -0.0971021565
 H   -0.7716202128    1.8705950135   -0.3515675355
 H   -2.1889892637   -0.6639244030    0.0320395164
 H   -1.0987790089   -2.9586535796   -0.0386935357
 H    1.0564168727   -4.0971487689   -0.0595875328