13

 O   -0.8482659665    1.4916142344    0.1356881566
 C    0.2479643354    1.0881366799   -0.1374394144
 C    1.4679887393    1.9980255658   -0.3346308640
 O    2.4824995973    1.5171411788   -0.7741920313
 C    1.3044521338    3.4875199168   -0.0524947114
 C    2.2046098845    4.3948804143   -0.7894072291
 O    0.8675728329    4.1824033711   -1.2398967745
 C    0.7260647744    3.8670169663    1.2066811545
 C    0.2918896528    4.1573399059    2.2888445026
 H    0.4904015214    0.0196031504   -0.3147140694
 H    2.4006442427    5.3771003908   -0.3661486388
 H    2.9875645394    3.9587028839   -1.4044963602
 H   -0.1164177273    4.4146002815    3.2354545894