20

 C   -0.5143969603    1.4790513928    0.2404615270
 C    0.0250506381    0.0703508370    0.0359779825
 C   -1.0502335451   -0.8424548576   -0.5614127876
 N    1.3236614122    0.0167995462   -0.7008362043
 C    1.8462743873   -1.0330377871    0.1960276144
 C    0.7886606219   -0.5931484208    1.2640239336
 N    1.2259575258    0.3842950819    2.2539615821
 C    0.0971555673   -1.6809296963    1.9507638476
 N   -0.4344724219   -2.5591622601    2.4820152702
 H    0.2481983155    2.1560370175    0.6266007328
 H   -0.8638910433    1.8780437015   -0.7182651745
 H   -1.3580214741    1.4768027402    0.9369861371
 H   -1.3632300996   -0.4485879676   -1.5348031971
 H   -0.6881798243   -1.8643813549   -0.7062952127
 H   -1.9344328139   -0.8915029888    0.0811540968
 H    1.2464312295   -0.2499976280   -1.6772564338
 H    1.7011680027   -2.0645121486   -0.1490298872
 H    2.8909795924   -0.9014917582    0.4980052809
 H    1.7822149134   -0.0749823380    2.9695474058
 H    1.8286419963    1.0641180889    1.7994680265