20

 C    0.1228122138    1.5746415195    0.0392262115
 C   -0.0312971065    0.0592837546   -0.0041753804
 C    0.6971984102   -0.5452740774   -1.2250684895
 C    0.2594968029   -1.9382472725   -1.6066008356
 N   -0.2700186475   -2.1558270146   -2.7379941643
 O    0.4220952784   -2.9567963454   -0.7118378759
 C    1.0450578668   -2.7353591802    0.5551402322
 C    0.2717584725   -1.7960146764    1.4770476518
 O    0.4890858230   -0.4265408040    1.2279498954
 H    1.1817486453    1.8507897408    0.0653551452
 H   -0.3359756280    2.0347788151   -0.8400209011
 H   -0.3570604967    1.9732717935    0.9364076801
 H   -1.1019555949   -0.1975802267   -0.0702970997
 H    0.5074625348    0.0711859343   -2.1048751443
 H    1.7751883750   -0.5159967463   -1.0230683268
 H   -0.5060888760   -3.1472246617   -2.8249196838
 H    1.0879242720   -3.7294050662    1.0091963551
 H    2.0729582950   -2.3729844780    0.4297865853
 H   -0.8001804397   -2.0479540190    1.4207348632
 H    0.6079059297   -1.9672706593    2.5054878015