19

 C   -0.8004871208    0.9261978898    0.6347395462
 C    0.0391641948    0.0686789400   -0.2997423247
 O   -0.7545615989   -0.8427417362   -1.0856421143
 C   -1.2520779018   -1.9148617933   -0.4278872645
 C   -2.5116735651   -2.2214451593    0.0208846012
 C   -3.7468785175   -1.3853390328   -0.0471231147
 N   -2.5085772430   -3.4955823691    0.5600184439
 C   -1.2824538761   -3.9420763343    0.4386000864
 N   -0.4655422707   -3.0235321467   -0.1531681894
 H   -0.1542775971    1.6105265623    1.1942299381
 H   -1.5246983045    1.5190034357    0.0689915747
 H   -1.3433835391    0.3048081460    1.3522020710
 H    0.5607400529    0.6855103439   -1.0366455568
 H    0.7939358929   -0.4960362919    0.2642653237
 H   -3.5528823129   -0.4578910412   -0.5919105842
 H   -4.5528206178   -1.9226085713   -0.5580423446
 H   -4.1151813198   -1.1280231454    0.9524164227
 H   -0.9247066294   -4.9097056754    0.7583770372
 H    0.4965011137   -3.1408866009   -0.4235984119