20

 C    0.1094484771    1.2896422859    0.3075283254
 C   -0.0365704518   -0.2287403964    0.3958092342
 O    0.2820859129   -0.7134489426    1.7011134456
 C   -1.4194248011   -0.6799241442   -0.0304577351
 N   -1.6541180745   -0.7812891064   -1.4768508129
 C   -1.7057199044   -2.0016178421   -0.6560126640
 C   -0.6803907239   -3.0609463394   -0.9555001449
 C    0.2910782475   -3.5404036522    0.0406647282
 O   -0.8793395855   -4.2988874174   -0.2703733726
 H    1.1121841865    1.5947529039    0.6179627131
 H   -0.0647081971    1.6309772875   -0.7170401522
 H   -0.6179936784    1.7905791278    0.9594834149
 H    0.6962999953   -0.6991076236   -0.2663066010
 H   -0.3255097461   -0.3039100618    2.3269374723
 H   -2.2235065922   -0.2596991643    0.5783224316
 H   -2.5886455286   -0.4685194412   -1.7227002370
 H   -2.6878702764   -2.4237041579   -0.4469665280
 H   -0.4327279674   -3.1639983250   -2.0125461168
 H    1.2305078457   -3.9780579133   -0.2957587341
 H    0.3069834625   -3.0733613372    1.0221863931