19

 C   -0.1275777906    1.4171636495    0.0634098143
 C   -0.0160848187   -0.0753530101    0.0174372560
 O   -1.1519667410   -0.7407978697   -0.4685614790
 C   -0.7656255241   -2.0880080161   -0.3978211215
 C   -1.7979948764   -3.0682369466   -0.8620571457
 C    0.1686697635   -2.3258345530    0.7782322218
 C    0.6962277361   -0.9103530469    1.0700416126
 C    1.2543530857   -0.8249702071   -0.3522869179
 C    0.7272874373   -2.2406577529   -0.6439156467
 H    0.7964154386    1.8545797236    0.4513942211
 H   -0.3065792436    1.8249506541   -0.9363825992
 H   -0.9524059244    1.7260223867    0.7131712293
 H   -2.0620518223   -2.8887209781   -1.9089416849
 H   -1.4172367718   -4.0895538889   -0.7750906149
 H   -2.7083974296   -2.9892410536   -0.2596874325
 H    0.1048559545   -3.1612715981    1.4621073109
 H    1.0856685285   -0.5299040190    2.0045494958
 H    2.1582218361   -0.3657564494   -0.7289239989
 H    1.1784252820   -2.9975951045   -1.2709961405