16

 O   -0.0190925548   -0.0104460267    0.1904813312
 C    0.0129782736    1.1711092037    0.0223323900
 O   -1.1385570456    1.9255169026   -0.1018074956
 C   -0.8804530867    3.2478633662   -0.6390722081
 C    0.6130018727    3.4565709827   -0.5250636074
 C    1.2353362639    3.2953718921    0.8282667052
 C    1.1741122627    2.1084730779   -0.1015473871
 N    2.1584098814    2.0925417546   -1.1841283795
 C    1.6857256243    3.4429758273   -1.6325890007
 H   -1.2127481422    3.2700307810   -1.6828990910
 H   -1.4846440510    3.9526345142   -0.0615605070
 H    2.2090541691    3.7333419670    1.0256031449
 H    0.5575268782    3.2847059563    1.6750202885
 H    3.1239748565    2.0498566665   -0.8722002321
 H    1.2730782104    3.4032285666   -2.6457328913
 H    2.4254245777    4.2495487978   -1.5803888200