19

 C   -0.2695241943    1.4787437653   -0.0527001566
 C    0.0590848854    0.0068980389    0.0722986525
 O    1.1509250670   -0.4492355711   -0.7880340077
 C    1.7343964272   -1.1645270567    0.3012548880
 C    2.2865847840   -2.5239640304    0.0216325362
 C    2.2364999128   -0.2056647706    1.3612000364
 C    2.8141653358    1.0809518578    1.0972941403
 C    3.3607519960    2.1357778640    0.9061309211
 C    0.7522660036   -0.5890068082    1.2967804804
 H    0.5848584661    2.1045462126    0.2046908260
 H   -0.5751256148    1.7046422349   -1.0796096549
 H   -1.1060581132    1.7263916177    0.6099351000
 H   -0.8282434837   -0.5970778685   -0.1628386843
 H    3.1268088423   -2.4557585281   -0.6781341406
 H    2.6477007499   -2.9922507752    0.9415054971
 H    1.5237504621   -3.1686769266   -0.4259677302
 H    2.7199644579   -0.7375679606    2.1794396581
 H    3.8295329536    3.0707270618    0.7235353000
 H    0.2574450322   -1.0393213470    2.1476645482