20

 C    0.9882115437    1.6054480234    0.3722308639
 C    0.4939553220    0.1581884053    0.2897279160
 C    0.5182354332   -0.3855039088   -1.1346128297
 C    1.8942970677   -0.7663605662   -1.7287833207
 O    1.5032332992   -2.1524072706   -1.8826772392
 C    0.1814987778   -1.8884318947   -1.3579920748
 C   -0.1790501460   -2.7079466875   -0.1233680051
 N    0.8110380455   -3.5340736885    0.2966340130
 O   -1.2648793840   -2.5848864790    0.4131481100
 H    2.0171287648    1.7015804193    0.0066762811
 H    0.3606856154    2.2731712027   -0.2284697584
 H    0.9696827855    1.9695951493    1.4035983624
 H    1.1123557485   -0.4820499806    0.9318775392
 H   -0.5268306839    0.0819308221    0.6787914230
 H   -0.0633983445    0.2664126891   -1.7917690699
 H    2.1488273951   -0.3136742346   -2.6934227989
 H    2.7471407870   -0.6585018912   -1.0465092596
 H   -0.5961300018   -2.0698090232   -2.1088132151
 H    1.6485153316   -3.6102371213   -0.2574748126
 H    0.6376403431   -4.1624578749    1.0629883254