20

 C    0.0079038535    1.6332591424    0.2537226687
 C    0.0029982763    0.1228799401    0.0236819557
 C    1.0657163917   -0.4549958725   -0.9904600671
 C    1.6710940754   -1.2677435613    0.1557027414
 N    2.1002774166   -0.2925248660    1.1892388238
 C    0.6839394492   -0.7294148921    1.1227668483
 C   -1.4113459328   -0.3497219068   -0.2436661446
 C   -2.0140352574   -0.3982354105   -1.5798635989
 O   -1.6153471983   -1.5979769119   -0.9093732576
 H    1.0030488808    1.9575257980    0.5643216969
 H   -0.2680184815    2.1704714910   -0.6602225632
 H   -0.7063034227    1.9175917084    1.0359907018
 H    0.6027186462   -1.0901163655   -1.7467084726
 H    1.7328301216    0.2751351038   -1.4548915560
 H    2.1221760198   -2.2503893612    0.0995704163
 H    2.5375978907   -0.8251989529    1.9410564219
 H    0.2040883291   -1.2001245579    1.9734952302
 H   -2.0908930206   -0.1928557663    0.5982289642
 H   -3.0880781951   -0.2637575905   -1.6969717778
 H   -1.4151642524   -0.1313719283   -2.4494697913