19

 C   -0.0312927989    1.5502583031    0.5067350894
 C   -0.0332719001    0.1424745838   -0.1059346263
 O    0.9280997115   -0.7047284813    0.5189677674
 C   -1.3760416166   -0.4506707312   -0.0890293928
 C   -2.4748877768   -0.9454509954   -0.0523561558
 C   -3.8127859716   -1.5234427021    0.0180949231
 C   -3.7844891615   -2.9960055798    0.4946600479
 C   -4.6744079517   -0.7096904596    0.9886190162
 O   -5.7825180369   -0.3182771063    0.7434651681
 H    0.9829765472    1.9565891226    0.4785189671
 H   -0.7008368652    2.2167970604   -0.0444326132
 H   -0.3685822070    1.5153142493    1.5478759801
 H    0.3045626838    0.2124850296   -1.1470398419
 H    0.6132299348   -0.8892158210    1.4109614215
 H   -4.3032219557   -1.4693643731   -0.9602463539
 H   -3.3745883498   -3.0694632277    1.5064561821
 H   -4.7955250293   -3.4122658791    0.4936550368
 H   -3.1544186399   -3.5915138460   -0.1697470793
 H   -4.1872189264   -0.5240639760    1.9725282534