17

 N   -0.0255285281    1.3613952655    0.0491616945
 C    0.0353075410   -0.0265610154    0.0462961863
 O    1.0730742541   -0.6409470305    0.2049191015
 N   -1.1824349655   -0.6648470969   -0.1137595700
 C   -2.4766554441   -0.1359808610    0.0193135391
 C   -3.3991084704   -1.1000953126    0.1503765776
 C   -2.7487941573   -2.4361047485    0.0725716803
 C   -2.0241314027   -2.7576672968   -1.2274586684
 C   -1.2670193129   -2.1092612927   -0.1040997108
 H    0.8958310066    1.7688556568   -0.0123654068
 H   -0.7032425953    1.8041804920   -0.5525647613
 H   -2.6249629276    0.9332986813    0.0111069082
 H   -4.4566031556   -0.9336858418    0.2928376803
 H   -3.0976140245   -3.2526779029    0.6949573883
 H   -1.7907728423   -3.7997609340   -1.4152173203
 H   -2.2667361177   -2.1723020023   -2.1075266961
 H   -0.4465057276   -2.6097792702    0.3894564877