19

 C   -0.3716242004    1.5591703260    0.3169917675
 C    0.1974130624    0.2071491438   -0.1277952509
 C    0.9548899514   -0.4771553519    0.9883031875
 N    0.1724475293   -1.2299956082    1.9835983493
 C    1.1296830984   -1.9470970816    1.1334791969
 C    0.5372012791   -2.9461236192    0.1512533901
 O    1.2848137155   -3.0549993753   -1.0463369093
 C    0.3855130602   -4.2648614096    0.8047154027
 N    0.3188213666   -5.2979367254    1.3182641070
 H    0.4252946707    2.2403666401    0.6359238194
 H   -0.9172983644    2.0441469731   -0.4974952774
 H   -1.0598933322    1.4298771456    1.1579551988
 H   -0.6199150583   -0.4354215828   -0.4686184034
 H    0.8720305057    0.3411595577   -0.9820722684
 H    1.7896925421    0.1101968853    1.3732650768
 H    0.5382529100   -1.1123417972    2.9235891675
 H    2.0607191112   -2.2869606064    1.5868152951
 H   -0.4577256209   -2.6038751811   -0.1429010752
 H    2.1554188036   -3.4091807929   -0.8315276139