22

 C    0.2988313444    1.3097943742    0.5702314810
 C   -0.3120658996    0.4544862121   -0.5431911474
 C    0.6860098340    0.0141263146   -1.6157171821
 C    1.7767606126   -0.9209896489   -1.0929721669
 O   -0.1025500076   -0.6416825903   -2.6256640469
 C    0.4610938481   -0.7143718540   -3.9124391896
 C   -0.4265261053   -1.6254648487   -4.7609644032
 C    0.5740785672    0.6329557349   -4.5259581309
 N    0.6653786314    1.6853246467   -4.9949878144
 H    1.0322013569    0.7536612509    1.1621436297
 H    0.7996000783    2.1952812852    0.1630624003
 H   -0.4788422683    1.6573516365    1.2563998841
 H   -0.7841014013   -0.4408037215   -0.1197944612
 H   -1.1055135608    1.0150013165   -1.0485989168
 H    1.1479055540    0.9113046849   -2.0553572976
 H    2.4490447642   -1.2478428196   -1.8921603924
 H    2.3920708486   -0.4173550009   -0.3422944089
 H    1.3286047174   -1.8097879161   -0.6372429981
 H    1.4794215337   -1.1308957520   -3.8799126004
 H   -0.0344389069   -1.7082559230   -5.7774006382
 H   -0.4557752355   -2.6167389220   -4.3033602427
 H   -1.4418910855   -1.2252217796   -4.8019736574