20

 C   -0.0819384150    1.4854651429   -0.0158846496
 N   -0.0202002104    0.0312305180   -0.0045726579
 C   -1.3559504462   -0.5578026358   -0.0645515057
 C   -1.2676270919   -2.0781231131   -0.1085024682
 O   -0.5665587329   -2.5743327668    1.0194754775
 C    0.7374693651   -2.0419094915    1.0736414630
 C    0.7167539979   -0.4988505675    1.1528728527
 C    2.0903700989   -0.0036193144    1.2086142970
 C    3.2369222168    0.3497933389    1.2793206256
 H    0.9281830422    1.9003038523   -0.0152999757
 H   -0.5924231387    1.8169468951   -0.9253876565
 H   -0.6278150933    1.9009053841    0.8526586051
 H   -1.9744793618   -0.2582065276    0.8048725425
 H   -1.8570373750   -0.1907718835   -0.9673913019
 H   -2.2653637417   -2.5245602665   -0.0801199308
 H   -0.7647284823   -2.3926660065   -1.0369971184
 H    1.2161403431   -2.4507370273    1.9662726829
 H    1.3209674552   -2.3356993630    0.1875871203
 H    0.2063321905   -0.2240020140    2.0988794809
 H    4.2460694796    0.6751298261    1.3412493971