23

 C   -0.0857440726    1.5270357615    0.0166329488
 C    0.0201706160    0.0134054695    0.0200796963
 C   -1.2026213759   -0.6392275625   -0.6079723149
 C    1.3532641094   -0.7048452951   -0.2395396291
 C    2.6195187003    0.0639677844   -0.1090558684
 C    2.7913177254    0.5304971815    1.1306274013
 C    1.6638222716    0.1113805259    2.0480037595
 C    0.7209928366   -0.7207040881    1.1539799250
 C    0.1419469747   -1.9595153672    1.8036510104
 H    0.8361620000    2.0175352304    0.3315902024
 H   -0.3260915480    1.8905439235   -0.9893431202
 H   -0.8920533300    1.8567755155    0.6833644112
 H   -1.3807559437   -0.2181874628   -1.6042313812
 H   -1.0931998015   -1.7196287761   -0.7275848703
 H   -2.1045557866   -0.4591217501   -0.0103231585
 H    1.3189257316   -1.5746057197   -0.8897912582
 H    3.2930203890    0.2338543838   -0.9420638776
 H    3.6120969666    1.1576085602    1.4610462751
 H    2.0319912898   -0.4923526954    2.8892064577
 H    1.1587677474    0.9761887616    2.4995136481
 H   -0.5032976393   -1.6941368992    2.6504727420
 H   -0.4532267256   -2.5635024405    1.1161571754
 H    0.9434469448   -2.5982665011    2.1928462751