19

 C   -0.0095498434    1.4994771327    0.0790005417
 C    1.3341256424    0.7876088079   -0.0266453361
 C    1.9522832449    0.4557566109    1.2967122016
 C    1.1904598592   -0.3913000258    2.0212875420
 C    0.0435164019   -0.8026879851    1.2260185840
 C   -0.8738410995   -1.7769202454    1.1849459322
 C   -1.6155012836   -1.7522271038   -0.1399385307
 C   -0.7191058406   -0.8510657402   -1.0531964862
 C    0.0358051644   -0.0041467599   -0.0404179093
 H   -0.2716479125    1.9677890103    1.0229488668
 H   -0.3457008359    2.0312921842   -0.8067903786
 H    1.9559348464    0.9650514872   -0.8975376427
 H    2.8937938438    0.8820575681    1.6250091493
 H    1.4136068448   -0.7442912678    3.0201630174
 H   -1.0720275490   -2.5093926414    1.9587660575
 H   -1.7656066277   -2.7544765811   -0.5569681578
 H   -2.6176915159   -1.3126314464   -0.0283414754
 H   -0.0294061186   -1.4845856876   -1.6227547251
 H   -1.3014399411   -0.2641411266   -1.7682947804