13

 O    0.0762490814    1.4084064803    0.0446148343
 C    0.0635499289    0.0101181683    0.0371495730
 C   -1.4055356847   -0.5455875549    0.0216407875
 C   -2.0926520259   -0.0520519239   -1.1803283323
 N   -2.5786270330    0.3864728180   -2.1320025221
 C   -1.4296444815   -1.9998146153    0.1036505852
 C   -1.3953329473   -3.2022155225    0.1954911277
 C   -1.3635765587   -4.5641182468    0.2983493281
 N   -1.3334179819   -5.7213055307    0.3883851495
 H   -0.1747763501    1.7280639624   -0.8298930606
 H    0.6107281121   -0.4235174153   -0.8094088288
 H    0.5337132064   -0.3268578965    0.9640212799
 H   -1.9158603258   -0.1205571229    0.8959353686