19

 C   -0.0412873476    1.5568970647    0.1912930280
 C    0.0411550277    0.0336604492    0.0234921951
 O    0.9197072002   -0.5427379532    0.9760774506
 C   -1.3509828997   -0.6087856299    0.0386921165
 C   -1.5343655094   -2.1246730431    0.1792374277
 C   -1.6211566221   -2.3770904984    1.6903502288
 O   -1.4087568662   -1.1309909702    2.3669471236
 C   -2.2421956390   -0.5307464408    1.3150434297
 C   -2.8378382115   -1.9384582008    0.9572062609
 H    0.9634829763    1.9858864572    0.1631105363
 H   -0.6389309372    2.0189229859   -0.6027988315
 H   -0.4913007939    1.8204424590    1.1552227738
 H    0.4912348665   -0.1807746124   -0.9560871175
 H    0.4051317152   -0.6488518826    1.7897377494
 H   -1.9380519507   -0.2494026556   -0.8136557198
 H   -1.2770863251   -2.9075924100   -0.5222513337
 H   -1.3483844267   -3.2969074778    2.1890239430
 H   -2.7605114536    0.3663998256    1.6447115559
 H   -3.8373656133   -2.3316405070    0.8422388530