16

 N    0.0619928968    1.0449781286    0.7250561069
 C    0.0035681077    0.0138279628   -0.1618582904
 O    0.8769643078   -0.2572761238   -0.9621504604
 C   -1.2764586980   -0.7693489038   -0.0461368546
 C   -2.3864838541   -0.9949999949   -1.1355421138
 C   -2.9375523701   -1.7819903911    0.1078301097
 C   -1.4627542854   -2.2934077529    0.2878955094
 C   -2.4589321963   -0.5663355982    0.9053651505
 O   -2.7789579485    0.1755964262    1.7879806076
 H    0.8806136230    1.6314427034    0.7351172046
 H   -0.6903899156    1.2204323902    1.3747142715
 H   -2.9432700273   -0.1193144854   -1.4724380780
 H   -2.0670026500   -1.6270208518   -1.9656582184
 H   -3.8580297549   -2.3548434659    0.1825391564
 H   -1.1166027198   -2.9629542241   -0.5010627582
 H   -1.1573917353   -2.6299075295    1.2797904471