13

 O   -0.1080794544    1.3686300594    0.0546948971
 C    0.0163124440    0.0213814762    0.0396310550
 C    0.9280826326   -1.0126447953    0.7826466055
 C   -0.1856147345   -1.9963123156    0.7600290010
 C   -1.1064909810   -0.9905959261    0.0287164144
 C   -0.0729888100   -0.9944596115   -1.1055833019
 C   -0.2029478500   -0.8406362309   -2.5037112893
 N   -0.3070593883   -0.6800091921   -3.6466040724
 N    0.8196890214   -1.9873244361   -0.3615407333
 H    0.6377652813    1.7664887688   -0.4120046241
 H    1.8206954338   -0.9348907045    1.3908759022
 H   -0.3849147460   -2.8786056441    1.3551504983
 H   -2.1737948189   -0.8351627181   -0.0260020327