21

 C   -0.0065480921    1.4193844328   -0.0272356717
 C   -0.0198393209   -0.0913419145   -0.0664498849
 C   -0.8996923146   -0.8527318133    0.8829068901
 O   -1.8387429540   -1.8182852605    0.4943614895
 C    0.6024553535   -1.0151151301    1.0056368674
 C    1.4212176130   -1.9583901362    0.1042735762
 C    0.4833065492   -2.2920893505   -1.0902661604
 C    0.5790282359   -0.7609430912   -1.3265871839
 C    2.0748843319   -0.9160372097   -0.8685937887
 H    0.9665021250    1.8193852887   -0.3346275768
 H   -0.7625013500    1.8382437931   -0.7027270462
 H   -0.2172166700    1.7977305539    0.9781379906
 H   -1.2911454896   -0.1997552480    1.6680422785
 H   -1.9069044486   -2.4609055166    1.2091124738
 H    1.0851305887   -0.6208842153    1.8956242004
 H    2.0085095722   -2.7291582181    0.6054829997
 H    1.0249591451   -2.8386472704   -1.8663625743
 H   -0.4867468444   -2.7390647460   -0.9055962040
 H    0.3122319389   -0.3090180001   -2.2832380588
 H    2.5706843575   -0.0472227283   -0.4262038576
 H    2.7140224032   -1.3726270197   -1.6300033691