21

 O    0.0204856962    1.4527912277    0.2806611852
 C   -0.0178021323    0.0659058563    0.0981538379
 C   -0.5537890327   -0.8237307827    1.1903033042
 C   -1.3675798851   -0.5734670454   -0.0691018671
 C   -2.6339781240    0.2160806707   -0.0196282158
 C   -3.2293390073    1.1138802020   -1.1536688196
 C   -4.2603258621    1.1712544895    0.0073011385
 C   -4.0749824827   -0.3641371998    0.1581281688
 C   -3.0572677128    1.3419153094    0.9761278665
 H    0.7118663342    1.6475220395    0.9217387837
 H    0.7925232106   -0.3284695516   -0.5157245060
 H   -0.1049464981   -1.7981843822    1.3499614526
 H   -0.8991539806   -0.3251821862    2.0902346326
 H   -1.3978401102   -1.3920503949   -0.7847541575
 H   -2.6809939038    2.0324000118   -1.3776499746
 H   -3.5461289098    0.6005707410   -2.0669842454
 H   -5.2003666748    1.7231922685    0.0250707257
 H   -4.4532942906   -0.9891059595   -0.6569874107
 H   -4.3105872375   -0.7967232745    1.1352988508
 H   -3.2226207910    1.0372104862    2.0146316882
 H   -2.4942137957    2.2743518641    0.9138714818