16

 O    0.1369097427    1.2903264256   -0.1713096562
 C    0.1000767439   -0.1050103414   -0.0467064493
 C    0.8259977388   -0.8330481396   -1.2016862157
 C   -0.1338727078   -1.9207523549   -1.6138890950
 C   -1.2776698028   -1.9117001024   -0.9245206846
 C   -1.2759567461   -0.8279047420    0.1001008676
 O   -0.8554162467   -1.3027954128    1.4527383938
 C    0.3287049497   -0.6237584070    1.3623038991
 N    1.2417020633   -0.4117901445    2.1980067066
 H    0.5736006134    1.6386398272    0.6146782630
 H    1.0046283394   -0.1128221182   -2.0089871675
 H    1.8043861130   -1.2239316564   -0.9013262761
 H    0.1052008097   -2.6258053013   -2.4030339582
 H   -2.1053437039   -2.5968437092   -1.0612841416
 H   -2.1742142286   -0.2175380717    0.1976744707
 H    1.0444496221   -0.8490388614    3.0996684933