18

 C    0.3054262691    1.4407359062   -0.0607157762
 N    0.1259840358   -0.0077355692   -0.0090026190
 C    0.7456689353   -0.6240399770    1.1717289944
 C    1.1351058693   -2.0753789386    0.8818545816
 O    1.9692715511   -2.1568277945   -0.2508261353
 C   -1.2792955454   -0.3814873199   -0.1378904011
 C   -1.8109621011   -0.0739776964   -1.4709838718
 N   -2.2393588676    0.1738245043   -2.5145318587
 H    1.3725559501    1.6742509211   -0.0462291515
 H   -0.1165819728    1.8319133388   -0.9904319746
 H   -0.1781057313    1.9622881815    0.7845583140
 H    1.6608418912   -0.0640530021    1.3839959834
 H    0.1028706670   -0.5588639950    2.0682045775
 H    1.6903679861   -2.4783521162    1.7357344332
 H    0.2346234426   -2.7040657448    0.7658714201
 H    1.5803522236   -1.5518553143   -0.8975866193
 H   -1.3856575582   -1.4582543091    0.0241411229
 H   -1.9217089848    0.1187128551    0.6116989302