20

 C   -0.1702940332    1.5671209606   -0.0133374143
 C    0.0561779127    0.0520487106   -0.0144339452
 C    0.9423316205   -0.4434556763   -1.1945993736
 N    1.8356040617   -1.4471070099   -0.5955669589
 C    2.9597905030   -1.9649148513   -1.3361948313
 C    1.7886268074   -1.3252676937    0.7569376336
 C    0.8097126598   -0.4908952536    1.1951205213
 C    0.4814111992   -0.2709249624    2.5752285815
 O   -0.4331527388    0.4253113123    2.9883595461
 H    0.7846197761    2.1025343371    0.0285064999
 H   -0.6997839024    1.8853967110   -0.9183077773
 H   -0.7596505418    1.8523570956    0.8597862038
 H   -0.9255833075   -0.4379288946   -0.0657298048
 H    0.3707781269   -0.8802538491   -2.0196853286
 H    1.5447477935    0.3824966295   -1.6061993398
 H    3.6589256922   -1.1695619456   -1.6397363444
 H    3.5033713816   -2.6881424032   -0.7233784162
 H    2.6153527399   -2.4747301080   -2.2424242982
 H    2.4793697546   -1.8989742666    1.3652614811
 H    1.1519897544   -0.8036692722    3.2911069953