16

 C   -0.0612842525    1.4907736438    0.0129698059
 C    0.0915406772   -0.0170834295   -0.0012040634
 O    1.1557414715   -0.5776034077   -0.0166865077
 C   -1.2344078215   -0.7998983467    0.0057708234
 N   -1.0395940043   -2.2253342961   -0.0020100163
 N   -0.8945820106   -2.9084483297   -1.1326824733
 C   -0.6312212988   -4.1464667323   -0.7140181693
 C   -0.6206435401   -4.1522004360    0.6880808632
 N   -0.8774293704   -2.9176054424    1.1207385152
 H    0.9230334907    1.9592405949    0.0051308506
 H   -0.6358804404    1.8256097923   -0.8581261229
 H   -0.6146107131    1.8105000866    0.9033480244
 H   -1.8092855910   -0.5358035057    0.8978456861
 H   -1.8231002955   -0.5277722139   -0.8748378827
 H   -0.4739927991   -4.9488748108   -1.4166498441
 H   -0.4525908421   -4.9603029269    1.3816155010