17

 C   -0.1685579204    1.6579674117    0.0659551766
 C   -0.0363539749    0.1216736632    0.0314803828
 C    0.8067799940   -0.4114804148    1.2087641743
 C    2.2896651909   -0.1023039275    1.0851321250
 O    2.7911441064    0.4016944478    0.1029856130
 C    3.0921089177   -0.4803827438    2.2374664286
 C    3.7359451333   -0.7988045688    3.2033665738
 C   -1.3493108946   -0.5207753473    0.0263865769
 C   -2.4327185087   -1.0416814416    0.0451662977
 H    0.8194495474    2.1205323363    0.0188731763
 H   -0.7579300597    2.0096089019   -0.7843191412
 H   -0.6724863299    1.9809970925    0.9823325629
 H    0.4906707055   -0.1490066133   -0.8915680682
 H    0.4409236204   -0.0192799962    2.1657957148
 H    0.7128481193   -1.5023162836    1.2884785259
 H    4.3209255283   -1.0735985504    4.0475848913
 H   -3.3888996849   -1.5033599962    0.0441324095