19

 C    0.4491399230    1.4653856457    0.0857716069
 C   -0.0485286916    0.0394543506    0.0723607391
 O   -0.4700123467   -0.5195218454    1.0607725631
 C   -0.0368388107   -0.7078821882   -1.2631834413
 O    0.5992254572    0.0957217986   -2.2460132076
 C    0.6073219609   -2.1167719492   -1.1696894171
 C   -0.2669300930   -2.9754947762   -2.1219930793
 O   -1.2166232313   -2.0804936376   -2.7101901316
 C   -1.4598561009   -1.0839326388   -1.7300496525
 H    1.4889243889    1.5023036518   -0.2541815400
 H   -0.1194496446    2.0718319549   -0.6262760143
 H    0.3598371323    1.8713308411    1.0936830162
 H    0.3937534218   -0.3018790916   -3.1009655972
 H    1.6518388153   -2.0606252485   -1.4814708111
 H    0.5596765631   -2.4842215187   -0.1437262875
 H    0.2918988231   -3.4436550426   -2.9358399735
 H   -0.7921376868   -3.7632364141   -1.5644344262
 H   -2.0479441504   -1.4715821168   -0.8856517944
 H   -1.9858086497   -0.2519856950   -2.2038132917