18

 O   -0.1393369459    1.4446261356   -0.2690074576
 N    0.1161761855    0.0906522941   -0.0035547971
 C   -0.9445542124   -0.6186388662    0.0720326856
 C   -0.7379012665   -2.0972955914    0.2913570294
 C   -1.7027386964   -2.7323142580    1.3011857027
 O   -3.0394621494   -2.6601526172    0.8123233901
 C   -3.7649342227   -1.5427758938    1.2491465042
 O   -3.0434736158   -0.3416860876    1.2046128092
 C   -2.3605436919   -0.0833964906   -0.0228681328
 H    0.7457164461    1.8223796837   -0.2431259777
 H   -0.8928694040   -2.6186579099   -0.6637400510
 H    0.3004431127   -2.2685818130    0.5899073431
 H   -1.4678525046   -3.7959994333    1.4067533131
 H   -1.6169052267   -2.2605336158    2.2879638308
 H   -4.6514090783   -1.5114558873    0.5986102511
 H   -4.0722681546   -1.6395942560    2.3006560470
 H   -2.3453804494    0.9968084790   -0.1559749505
 H   -2.8882071456   -0.5416466521   -0.8704556795