20

 C   -0.0609126489    1.4965070173    0.0264839256
 C    0.0131816805   -0.0027723238    0.0194322902
 C    0.8940287152   -0.7746137514   -1.0496126382
 C    1.8276934459   -1.2557572754    0.1005267678
 C    0.7075163227   -0.8855205337    1.0908772547
 C   -0.5643801794   -1.7463426893    1.0128421692
 C   -0.9985645240   -2.0400508547   -0.3792668036
 C   -0.0146940201   -1.9132005481   -1.5230815831
 N   -1.3270321848   -0.7168239045    0.1923700171
 H    0.9405858298    1.9400521901    0.0163747857
 H   -0.6037643907    1.8593767181   -0.8541309118
 H   -0.5884207488    1.8557407629    0.9155652529
 H    1.3459825365   -0.1991044781   -1.8588493580
 H    2.1638280381   -2.2967674234    0.0621303252
 H    2.6979582407   -0.6049643574    0.2258865351
 H    0.9438484214   -0.5178844933    2.0901392194
 H   -1.0309357037   -2.2346127632    1.8634249292
 H   -1.8576819525   -2.6958700086   -0.4934811265
 H   -0.5577387945   -1.6434888492   -2.4366517531
 H    0.5387845765   -2.8368620642   -1.7228292077