21

 C   -0.8376499154    1.1315353967    0.0699737652
 C    0.2218892203    0.0428962736    0.0834944808
 O    0.8481111020   -0.2267621319    1.0856364994
 C    0.4138742570   -0.7163029499   -1.2149961213
 C    1.5867796308   -1.7376010497   -1.3138692994
 C    0.5740359165   -2.8723140971   -1.5575574737
 C    0.7797141998   -3.9946583045   -2.5329741765
 C   -0.3700807721   -2.9517522997   -0.3908744617
 C   -0.5864937427   -1.8802478679   -1.4313866441
 H   -0.5117163693    1.9566815099   -0.5745186002
 H   -1.7769046492    0.7538348427   -0.3484189297
 H   -1.0029556441    1.5062870098    1.0807744854
 H    0.3917279321   -0.0220900158   -2.0603489213
 H    2.2238403561   -1.5425854975   -2.1800797442
 H    2.2070504175   -1.8248659244   -0.4189005632
 H    1.5393647385   -4.6982905171   -2.1705792023
 H   -0.1448672978   -4.5606681014   -2.6882480738
 H    1.1139158276   -3.6225433148   -3.5085873726
 H   -1.0839651297   -3.7688387060   -0.4324370293
 H   -0.0444748204   -2.6895708341    0.6121372759
 H   -1.5019494474   -1.8118480910   -2.0079756433