23

 C   -0.0156220066    1.6325088472   -0.0882789673
 C    0.0398134367    0.1047983235    0.0210309513
 C   -1.3428347910   -0.5428717012    0.1286144182
 C   -1.3939520726   -2.1052080820    0.0793303142
 C   -0.1467824121   -2.8462968040    0.5959633312
 C   -2.6084304718   -2.4099008540    0.9274651008
 C   -3.0349155106   -1.3554474859    1.6223499865
 C   -2.1605704241   -0.1461772083    1.3973328596
 O   -1.3741750363    0.1598054533    2.5545372977
 H    0.9861077791    2.0533065825   -0.2206494217
 H   -0.6241194683    1.9489743364   -0.9434860227
 H   -0.4449062068    2.0714106741    0.8164826905
 H    0.5552266175   -0.3053126393   -0.8570482580
 H    0.6443476708   -0.1669940937    0.8923916984
 H   -1.9429234527   -0.1948382803   -0.7226572341
 H   -1.5579001718   -2.4321629110   -0.9560013447
 H    0.0951052250   -2.5586513398    1.6247482463
 H   -0.3132537599   -3.9288158427    0.5894292391
 H    0.7294638973   -2.6407650576   -0.0257759750
 H   -3.0416774162   -3.4047808894    0.9722967512
 H   -3.8596310166   -1.3477511550    2.3265505944
 H   -2.7339609655    0.7693992879    1.2212629691
 H   -1.0431040435   -0.6734832506    2.9064410351