17

 C   -0.3388343598    1.3736446528    0.1269459833
 C    0.1312832417   -0.0520438447   -0.0733878485
 O    1.3929876650   -0.1494037481   -0.7948522573
 C    2.0644843892   -0.7973947671    0.3056969632
 C    0.7802950573   -0.7495402541    1.1220363708
 O    0.6788552010   -0.3192994322    2.4567405116
 C    0.2144268164   -1.6544762179    2.1339785641
 C   -1.1998687447   -1.8965044978    2.2073477728
 C   -2.3804477595   -2.1187017276    2.2517353959
 H    0.4128514300    1.9634141093    0.6582325177
 H   -0.5334817994    1.8423353845   -0.8421307885
 H   -1.2641830403    1.3837113923    0.7111658113
 H   -0.6415370968   -0.6550318490   -0.5681836279
 H    2.4370053367   -1.7946326868    0.0412373633
 H    2.8858282481   -0.1954339745    0.7139657502
 H    0.8505718761   -2.4451333781    2.5302071110
 H   -3.4240285611   -2.3115119111    2.2991558369