16

 C   -0.0943882727    1.4562680973   -0.0234375380
 C   -0.0120121495    0.0043378921   -0.0133740629
 C    0.0680920429   -1.2017099253   -0.0052305241
 C    0.1454579732   -2.6053508823    0.0047071903
 C    1.2240823982   -3.4699688098   -0.0188436234
 C    0.7337772884   -4.8041551173    0.0068246561
 C   -0.6416071148   -4.7126244756    0.0456070647
 O   -1.6316702460   -5.6368451126    0.0820851229
 N   -0.9996420194   -3.4027891348    0.0445729268
 H    0.9061310101    1.9023283494    0.0055217504
 H   -0.5937737765    1.8295332764   -0.9255052179
 H   -0.6476075958    1.8368474940    0.8433748676
 H    2.2578495867   -3.1642624115   -0.0512371292
 H    1.3119194038   -5.7150759409   -0.0019233164
 H   -1.2300477966   -6.5109224671    0.0780766788
 H   -1.9455060119   -3.0629488322    0.0687493143