18

 N   -0.0693791835    1.2284269358    0.3740306558
 C   -0.0382798892    0.0137798447    0.0310960645
 O    1.1005129345   -0.6636374315   -0.3406092905
 C    0.7647009365   -1.8939193929   -0.9808292565
 C    1.4045921818   -2.1638166558   -2.3088020230
 C    1.8545709060   -2.9126798824   -1.0625396118
 C   -0.6786089826   -2.1773720029   -0.6826858939
 C   -1.0521300347   -2.1898365984    0.7703081248
 C   -1.1988933695   -0.9110791068   -0.0345465965
 H    0.8597061222    1.6450759257    0.2962708779
 H    0.8310161113   -2.6976471952   -3.0594230692
 H    2.0693999061   -1.4007221590   -2.6969342286
 H    2.8153039637   -2.6408553077   -0.6403457869
 H    1.5876315744   -3.9584816453   -0.9560555380
 H   -1.2596348191   -2.7349197531   -1.4064535875
 H   -1.9752727835   -2.6874337512    1.0439380236
 H   -0.2638639020   -2.2476806114    1.5134598211
 H   -2.1785367525   -0.4912461428   -0.2130727852