21

 C    0.0359683883    1.5018434881   -0.0380934651
 C    0.0471209957   -0.0136471898   -0.0218274782
 C    0.5277815167   -0.7094352860   -1.2955852380
 C    0.3718210337   -2.1405597955   -0.8316968990
 C   -0.7964379528   -2.1973343173    0.1318829809
 C    0.6294322881   -2.1811808707    0.6611277191
 C    0.6922302126   -0.7471621576    1.2182008162
 C   -0.6762014991   -0.5946100231    1.9446841480
 C   -1.2359908061   -0.7690081256    0.5025052814
 H    1.0421221989    1.8962305995   -0.2216587487
 H   -0.6148260908    1.8774425874   -0.8362013741
 H   -0.3182032030    1.9304616171    0.9037359486
 H   -0.1023750078   -0.4683365049   -2.1604620396
 H    1.5646313586   -0.4494422625   -1.5417209919
 H    0.6152888098   -2.9877661711   -1.4617818195
 H   -1.4518421706   -3.0540927383    0.2168338372
 H    1.0876241433   -3.0253225599    1.1594160377
 H    1.6308257435   -0.4100711911    1.6614232816
 H   -0.9430387804   -1.3522902421    2.6867264371
 H   -0.8419706516    0.4019266722    2.3608802176
 H   -2.2429597470   -0.4539536590    0.2235917787