18

 C   -0.6007088814    0.8993436006    0.0978165218
 O    0.5474434685    0.0240099919    0.1020831326
 C    0.9693886527   -0.4382564274   -1.1724448984
 C    2.1123792212   -1.4078725182   -1.0523315114
 C    0.7346390190   -1.9448307492   -1.3089794848
 N    0.0530311251   -2.4603727722   -0.0887399568
 H    0.0707878369   -1.5950200036    0.5250098411
 H   -0.9142052755   -2.7233000233   -0.2772692456
 H    0.5283961309   -3.2424353669    0.3630767576
 C    0.8752635551    0.3779743776   -2.5161292873
 O    0.5857790369    1.5763758968   -2.4192649953
 O    1.1358554271   -0.3600627646   -3.4822383069
 H   -0.4192338654    1.7134634068   -0.6038251395
 H   -1.5087671236    0.3559834362   -0.2029284320
 H   -0.7090493721    1.2463687008    1.1275177501
 H    2.7917319775   -1.4464335964   -1.8932725430
 H    2.5443206198   -1.5620716083   -0.0661642959
 H    0.4360389173   -2.3881933807   -2.2474315863