17

 O   -0.1289955000    1.3706706529   -0.1033827742
 C    0.0016334307   -0.0040339142   -0.0729817254
 C    0.7816569391   -0.8381514458   -1.0862824989
 C   -0.1826559469   -2.0421779407   -0.7245977325
 O   -0.7667315526   -2.7568534786   -1.7747678835
 C    0.4649111647   -2.8143061779    0.4122447506
 C    0.4405823001   -2.0580610101    1.5130949257
 C   -0.3050037083   -0.7977251987    1.2333242773
 C   -1.1155237550   -0.9993413099   -0.0294276463
 H    0.6413322857    1.7584845535    0.3268240501
 H    0.5461293379   -0.4830191803   -2.0926986850
 H    1.8606845500   -0.9830158240   -0.9638633507
 H   -0.0742844187   -3.2432234787   -2.2347096826
 H    0.9908332274   -3.7512998967    0.2711771163
 H    0.9215238137   -2.2756994665    2.4587159286
 H   -0.7191423921   -0.1830781435    2.0243545463
 H   -2.1879240459   -0.9005457608   -0.1383338056