23

 C    0.6042439311    1.7166686611    0.0315134475
 C    0.1411452288    0.2586944407   -0.0609970218
 C    0.6183426882   -0.4758669640   -1.3264016300
 C    2.1371513183   -0.8166034458   -1.3264884122
 C    1.8016699213   -2.2769218432   -0.9244403008
 C    0.3107375075   -2.0175033465   -1.2685529370
 C    0.1001190975    0.1825696893   -2.6003467392
 C   -1.4092152413    0.3362116790   -2.7321212060
 O    0.8418317804    0.5445773039   -3.4864371009
 H    1.6954868620    1.7917079806   -0.0044703747
 H    0.2097991043    2.3212898046   -0.7921823570
 H    0.2694326055    2.1728216517    0.9679859752
 H    0.5082814564   -0.2966700589    0.8112430147
 H   -0.9536234167    0.2120550497   -0.0057333461
 H    2.5580015345   -0.7256118587   -2.3289139005
 H    2.7619118312   -0.2468947020   -0.6344005261
 H    2.2987471074   -3.0680662928   -1.4898475943
 H    1.9562190486   -2.4717193381    0.1397951465
 H   -0.4364474774   -2.3273448168   -0.5322766082
 H    0.0276026686   -2.4271141151   -2.2425413543
 H   -1.9393077469   -0.5588721052   -2.3925176829
 H   -1.7536663712    1.1695299391   -2.1091576175
 H   -1.6610567481    0.5515636872   -3.7713461943