20

 C    0.0070242983    1.5119081445    0.0461308265
 C   -0.0020278536    0.0130467217   -0.0257329818
 C   -0.0251002488   -0.6887453805   -1.1630168772
 C   -0.0317054003   -2.2009161395   -1.0929809796
 C   -1.0840246569   -2.6372138166   -0.0265981786
 C    0.0041385789   -2.2798979177    1.0276908567
 C    1.0518870239   -2.6482371023   -0.0631107853
 C    0.0162955092   -0.7625644448    1.2808774984
 H    0.8970750982    1.8810952157    0.5729116801
 H   -0.0082228479    1.9629956698   -0.9500518621
 H   -0.8599627589    1.8902327294    0.6039664652
 H   -0.0391388659   -0.1965548144   -2.1317723883
 H   -0.0509533396   -2.6733459926   -2.0763111869
 H   -2.0318073297   -2.0928925679   -0.0009742542
 H   -1.2736178930   -3.7139852072   -0.0540697933
 H    0.0173054975   -2.8390618810    1.9667334728
 H    1.2293089255   -3.7269028314   -0.0968566378
 H    2.0055593029   -2.1137312153   -0.0699908982
 H    0.9039765602   -0.4828424436    1.8677910199
 H   -0.8478966699   -0.4737970962    1.8977032138