17

 O   -0.1828197556    1.3030699011    0.0799818889
 N   -0.0327685926   -0.1002216960   -0.0019540418
 C   -1.1578758964   -0.6795161208   -0.0218133441
 C   -1.4223606436   -2.1612033264   -0.0630816309
 C   -2.2250081845   -2.2737398805    1.2565083620
 N   -3.2996491761   -1.4579398707    0.5836534201
 C   -2.8576496801   -2.0626719300   -0.7474778384
 C   -3.0420068694   -0.6984019698   -1.4167196947
 C   -2.5976585224   -0.2092971746   -0.0116945945
 H    0.7327619180    1.6009486480    0.1012588233
 H   -0.6214764292   -2.8336820713   -0.3647952132
 H   -2.6245555801   -3.2722401652    1.4547254897
 H   -1.7901442409   -1.8527580046    2.1677460883
 H   -3.3322024156   -2.9866580235   -1.0793965758
 H   -2.4264008511   -0.4213603203   -2.2741790485
 H   -4.0987040718   -0.4984354568   -1.6056644103
 H   -2.8460642485    0.7640495813    0.3997662898