18

 C    0.0704117701    1.5156344706   -0.0397877405
 C    0.0168726983    0.0624365081    0.0097058820
 C   -0.0282601932   -1.1407591893    0.0537240183
 C   -0.0521380623   -2.5856897215    0.0638312021
 N   -0.1095506351   -3.3000223328    1.4518744271
 C   -1.5940117886   -2.8979793034    1.4731015125
 C   -1.3820806116   -3.3767362762    0.0149551657
 O   -2.2348879467   -3.3709856857   -1.0715123504
 C   -0.5681278485   -4.5284234804    0.6543517610
 H    0.8831804753    1.8611749615   -0.6879075154
 H   -0.8650584511    1.9356612078   -0.4254375239
 H    0.2385824208    1.9381682028    0.9569712735
 H    0.7550277568   -2.9959757620   -0.5507872633
 H   -2.1948341006   -3.5241166779    2.1379269092
 H   -1.7571336272   -1.8346259172    1.6498328049
 H   -3.0192729583   -3.8866540321   -0.8536746971
 H    0.2265379771   -4.9938774857    0.0656547875
 H   -1.1018678954   -5.2584275766    1.2674011868