22

 C    0.0399565498    1.4286556766   -0.2980817368
 C    0.0212317476   -0.0110752862    0.2302612017
 C   -1.3563448414   -0.6403019148    0.1444789329
 C   -1.9640331618   -1.2523515692   -1.0965067839
 C   -0.9230086505   -2.0373433758   -1.9034168914
 C   -0.6227520417   -2.9061496113   -0.6413200922
 C   -1.6788012481   -2.1128052333    0.1497873167
 C   -2.6235213960   -2.7382046865    1.1372160541
 H    1.0379433210    1.8710421849   -0.2170048723
 H   -0.2612267173    1.4643437234   -1.3503505767
 H   -0.6530360546    2.0651363206    0.2636296445
 H    0.7531063503   -0.6088772290   -0.3227844888
 H    0.3546921712   -0.0211558179    1.2764922455
 H   -2.1025846319   -0.0777004641    0.7068325056
 H   -2.9196205761   -0.9137906048   -1.4825434532
 H   -1.3697466526   -2.6249772599   -2.7084470061
 H   -0.0910863791   -1.4621019872   -2.3233767963
 H   -0.9174217946   -3.9492146463   -0.7844777926
 H    0.3996573097   -2.8920594089   -0.2495807890
 H   -2.1052319389   -3.0219629465    2.0621364387
 H   -3.4272233219   -2.0464268687    1.4112579887
 H   -3.0868886531   -3.6448573053    0.7298089912