21

 C    0.0188498835    1.4838300828   -0.2102020340
 C    0.0672146560   -0.0236223611    0.0208995818
 O    0.7979424861   -0.2745299892    1.2482025662
 C    2.0603316165   -0.7193193200    1.1608413208
 O    2.7475247817   -0.9252203169    2.1170207529
 C   -1.3019380865   -0.6375404968    0.1680918503
 C   -2.0624187781   -1.0992776272   -1.0548190247
 C   -1.5719449624   -2.1096044601   -0.0473787133
 C   -0.4928305934   -3.1117498950   -0.3972068353
 H    1.0266209382    1.8957687366   -0.3163395948
 H   -0.5474552126    1.7090606097   -1.1183757213
 H   -0.4668329966    1.9812170842    0.6344745887
 H    0.6070612079   -0.5042290303   -0.8048976273
 H    2.3900772076   -0.8785326689    0.1140981538
 H   -1.8905946596   -0.1623906181    0.9485305332
 H   -3.1221152727   -0.8799613662   -1.1216877908
 H   -1.5435959299   -1.0597448938   -2.0087084219
 H   -2.3373003416   -2.5132699895    0.6102520802
 H    0.2430908115   -2.7016203226   -1.0955319688
 H    0.0435017511   -3.4497330434    0.4957707174
 H   -0.9308406367   -3.9939115940   -0.8763915830