18

 N   -0.0670028390    1.2706941995   -0.1147435767
 C   -0.0420237290    0.0136899093    0.0150468748
 O    1.1233567617   -0.7143911753    0.0686037290
 C    0.9368512051   -2.0188473221    0.6389257856
 C    0.1747440472   -1.8747635693    1.9810519299
 C   -1.1071312875   -1.9957670656    1.1418764435
 C   -0.3188043587   -2.7610153895    0.0312298895
 C   -1.0315741213   -1.9560622568   -1.0580898473
 C   -1.2606117261   -0.8628419615    0.0385689000
 H    0.8869028790    1.6391961083   -0.1339892685
 H    1.9091621404   -2.5085327899    0.6047830115
 H    0.3071874877   -2.7560600061    2.6155641774
 H    0.3694926270   -0.9679101199    2.5607945547
 H   -2.0457554608   -2.3432841836    1.5734005065
 H   -0.2284410400   -3.8470535662   -0.0131116146
 H   -0.4854426670   -1.6633535134   -1.9584768081
 H   -1.9727317391   -2.4362532465   -1.3385055476
 H   -2.1689795696   -0.2655055512    0.0186868903