16

 C    0.0355238597    1.4030992420   -0.0186279340
 N   -0.1258424005   -0.0372734943    0.1009041814
 C    0.5745786163   -0.7118664748    1.0601027126
 N    1.2028987089   -0.1690540813    2.0691377178
 O    1.7065670582   -1.2324476506    2.8084009576
 N    1.3918505101   -2.4390703705    2.2276874237
 C    0.7060802836   -2.1388788288    1.1662591189
 O    0.1932567922   -2.9925850724    0.2782718271
 C    0.4400185143   -4.3781404528    0.5441400789
 H    1.0663380317    1.6987628580   -0.2580699893
 H   -0.6343011236    1.7696913242   -0.7987525699
 H   -0.2370534448    1.8766969127    0.9279580290
 H   -0.2439220098   -0.5519864315   -0.7580074781
 H    0.0082100441   -4.6647464800    1.5076980235
 H   -0.0371743387   -4.9285068910   -0.2664741258
 H    1.5155948683   -4.5785351689    0.5628833163