13

 O    0.0235761722    1.4239289321    0.0081736890
 C    0.0067145598    0.0061630908    0.0027821668
 C   -1.3735933489   -0.4607281631    0.0127665045
 C   -2.5061056195   -0.8730990472    0.0208156941
 C   -3.8317209777   -1.3340947535    0.0302783721
 C   -5.0374976822   -0.6884444445    0.0422163187
 N   -6.0069054782   -1.6553297516    0.0470252742
 N   -5.4933473461   -2.8043613926    0.0396287995
 O   -4.0745570979   -2.6543950722    0.0287508379
 H    0.9451034084    1.7024565813    0.0016816080
 H    0.5089142334   -0.4056125077   -0.8880716611
 H    0.5240534324   -0.4125315459    0.8816630824
 H   -5.2631823658    0.3632210141    0.0472059640