20

 C   -0.0969386610    1.5608913682   -0.0371759281
 C   -0.0060968611    0.0337695785    0.0144861683
 C    0.6456960815   -0.6107564009   -1.2367884245
 C    1.2752548088   -1.9404376950   -0.7552143321
 C    1.5364654295   -1.7495017206    0.7334424461
 C    2.3072592197   -0.5127855000    1.1858823764
 C    3.1097745663    0.2816337585    0.2991384819
 N    3.7844292528    0.9183739763   -0.3938734985
 C    0.7791583725   -0.5355514798    1.1929339189
 H    0.8957015512    2.0125554569   -0.1255457658
 H   -0.6901386959    1.8849799113   -0.8985340919
 H   -0.5738828151    1.9616608542    0.8635304183
 H   -1.0234847379   -0.3682839615    0.1199040475
 H   -0.0838660793   -0.7678037039   -2.0355890410
 H    1.4159981303    0.0518194906   -1.6381685014
 H    0.5694836051   -2.7706035323   -0.8718877822
 H    2.1766396581   -2.2023234731   -1.3179652420
 H    1.6447610853   -2.6276202906    1.3604138533
 H    2.7551936573   -0.5978535205    2.1714470565
 H    0.3258577218   -0.4903126164    2.1776317304