18

 C   -0.1161467758    1.6612374980    0.0783650783
 N   -0.0473072772    0.2132916527    0.0187960788
 C   -1.2334486852   -0.5782039190    0.5796967926
 C   -0.1588698551   -1.6471935143    0.9049001406
 O    0.6061126040   -2.3101404513    2.0200478399
 C    1.7630667119   -1.7510075800    1.2369519867
 C    1.6573984059   -2.5106414788   -0.0731572336
 C    0.3469620846   -2.4309351599   -0.3083972669
 C    0.7807765509   -0.4967813539    1.0322158322
 H    0.8240271039    2.0840814327   -0.2892104940
 H   -0.9222739192    2.0205640017   -0.5694615058
 H   -0.2958037860    2.0463263460    1.0989130608
 H   -1.6739110900   -0.0965115396    1.4625106871
 H   -2.0035970893   -0.8216390766   -0.1584710053
 H    2.6872228144   -1.7187071374    1.8138414842
 H    2.4629256457   -2.9623618347   -0.6318075823
 H   -0.2585266095   -2.7973771371   -1.1241174016
 H    0.7031450959    0.0091133612    2.0055800282