16

 O    0.1880123034    0.1321057047   -0.5602916071
 C    0.0987560359    1.2416355210   -0.0984287523
 N    1.1069880005    1.8958772744    0.5945411335
 C    2.5243691857    1.8074089841    0.2260677714
 C    1.7914983148    3.0910920384    0.1970672125
 C    1.5397901207    4.1638297733   -0.8769248296
 C    0.6550317847    4.9319228838    0.1408816787
 C    1.9439793425    4.4676052979    0.8648128868
 O    2.7193384398    4.8766955400   -0.3336991181
 H   -0.8341711339    1.8371233195   -0.1244796172
 H    3.2086894693    1.5877599720    1.0405078644
 H    2.7489626556    1.3145123338   -0.7164537224
 H    1.4511791227    4.0727381481   -1.9588963942
 H    0.5978492154    6.0065785708   -0.0337762261
 H   -0.2969308561    4.4896888820    0.4449513094
 H    2.3371907289    4.7361019364    1.8438615903