19

 C    0.1262051931    1.4361627473   -0.2509253583
 C   -0.0634868590   -0.0647155912   -0.0042248117
 O    0.6707870260   -0.4896835229    1.1336140611
 C   -1.5334910837   -0.4742969159    0.1691025035
 O   -2.0694385445    0.1234105909    1.3432556165
 C   -2.4212128928   -0.3802294518   -1.1162304484
 C   -2.4258876279   -1.9188792011   -1.1542439912
 O   -2.7835029372   -2.7206280257   -1.9663363010
 C   -1.7383005419   -2.0156203652    0.2116253953
 H    1.1919500055    1.6577898733   -0.3424300166
 H   -0.3755296313    1.7706962109   -1.1646521983
 H   -0.2565195954    2.0255016287    0.5907593341
 H    0.3520335180   -0.6194311239   -0.8550576397
 H    0.1402051808   -0.2328696570    1.8993457879
 H   -2.1716644413    1.0682001262    1.1837825939
 H   -3.4167326031    0.0238414266   -0.9047940424
 H   -2.0096807575    0.1210198398   -1.9962625455
 H   -0.8395600658   -2.6324591238    0.2744661617
 H   -2.4342416318   -2.3120541052    1.0025849890