18

 N    0.0270855573   -1.0963242016   -0.0119630980
 C    0.0168688522    0.0598225170   -0.0008003707
 C    0.0035836231    1.5074111702    0.0133646288
 C   -0.6866538167    2.1844425441    1.2342432664
 C   -0.4466916393    3.6234383678    0.7974702035
 C    0.8592129009    3.6435899474    0.0248784802
 C    1.3903036530    2.2163132765    0.0054049256
 C   -0.4629683552    3.6381354721   -0.7196953948
 C   -0.7123367938    2.2078745949   -1.1792480516
 H   -1.7453832634    1.9185883522    1.3039541600
 H   -0.1955466141    1.9251945653    2.1765340251
 H   -0.7803122635    4.4685717473    1.3840731254
 H    1.5146922315    4.5038198430    0.0261771980
 H    1.9856296735    1.9584695847    0.8860055421
 H    1.9666779626    1.9756597416   -0.8925072054
 H   -0.8090043000    4.4943950590   -1.2824814883
 H   -0.2412965698    1.9670744780   -2.1365728014
 H   -1.7723095284    1.9430706806   -1.2316309250