18

 N    0.1016328693    1.2210677698    0.3605632357
 C    0.0301501682    0.0145755116    0.0354325375
 O    1.0402142883   -0.8778086038   -0.3786214585
 C   -0.0026126097   -1.7807248126   -0.9184536403
 C   -0.3312749206   -3.2636394257   -0.6383707351
 C   -1.6587738619   -2.9945698710    0.1497843593
 C   -1.1046201754   -2.0095213192    1.2040685797
 C   -1.0163782356   -1.0733467073   -0.0377532314
 C   -2.3478724655   -1.7140296386   -0.5023468962
 H    1.0624865568    1.5636929751    0.3038233261
 H   -0.0914811923   -1.5459815666   -1.9828602251
 H   -0.4553667870   -3.8238115530   -1.5685298197
 H    0.3916039703   -3.7922200722   -0.0122455487
 H   -2.2619412152   -3.8593966799    0.4270060508
 H   -1.8537488945   -1.6494933425    1.9119016312
 H   -0.1771022828   -2.2683103040    1.7196575496
 H   -2.5573175661   -1.7082914438   -1.5747049810
 H   -3.2335516163   -1.4222367862    0.0641592861