14

 O    0.1385471240    1.4356525348   -0.0477914361
 C    0.0778420328    0.0368985185    0.0785928007
 C    0.6571816313   -0.4934745756    1.3651928507
 C   -0.2414924364   -1.3196681764    1.9221862781
 N   -1.4307186795   -1.4049984152    1.1582116074
 C   -1.3703165359   -0.4735323940    0.1276624730
 N   -2.2611504649   -0.0185365970   -0.6510524384
 C   -0.1110534713   -2.0963192053    3.1054326400
 N   -0.0332019005   -2.7286670145    4.0717251868
 H   -0.6231687616    1.6786616308   -0.5941265753
 H    0.5863447167   -0.4544767298   -0.7717074383
 H    1.6555225980   -0.3026200909    1.7250052227
 H   -2.3027047189   -1.6975707595    1.5726447231
 H   -3.1884902137   -0.4073432360   -0.4804734344