19

 C   -0.2573381762    1.5176756750    0.0379744704
 C    0.0857153729    0.0289734433   -0.0351526854
 C    0.9782894344   -0.4074073777   -1.2118049478
 C    2.0067813815   -1.3480599313   -0.6113872875
 N    2.8123237493   -2.0554521487   -1.2906621478
 N    1.8970283438   -1.2512101532    0.7789084964
 C    2.7742782909   -1.9321847310    1.7072553506
 C    0.8470432572   -0.4450092450    1.2035040098
 O    0.5942271926   -0.1950725269    2.3590146797
 H    0.6503514660    2.1303111529    0.0222925661
 H   -0.8814802694    1.8147733520   -0.8096294688
 H   -0.7955685551    1.7350747470    0.9636398573
 H   -0.8491073265   -0.5463054455   -0.0421596527
 H    0.4401244726   -0.9007043333   -2.0225770267
 H    1.5035253680    0.4490615742   -1.6483961610
 H    3.4348651520   -2.6050352481   -0.6971520635
 H    2.6907501582   -3.0192005360    1.5995267687
 H    3.8165793589   -1.6405020862    1.5411916366
 H    2.4696294188   -1.6427068215    2.7135828954