19

 C    0.4552005970    1.1083771112    0.4283039288
 O   -0.3351000256    0.3345271200   -0.4483860921
 C    0.4093262382   -0.3776990785   -1.3872537186
 C    1.2705977624   -1.5590586958   -0.8972084936
 O    0.3931943918   -2.4690330998   -0.2366009566
 C    0.4542662035   -2.5275840229   -1.6604965839
 C   -0.4419033832   -1.4276481671   -2.2225878892
 O   -1.7934140810   -1.5877144280   -1.9498018293
 C   -2.6016592693   -0.5455537628   -2.4641742769
 H    1.1243083282    0.4805805924    1.0339744181
 H    1.0667889671    1.8444937524   -0.1173485579
 H   -0.2278153922    1.6392519788    1.0949312755
 H    0.9835079190    0.2952743262   -2.0444916027
 H    2.3240558411   -1.5980970769   -0.6452539896
 H    0.7310094535   -3.4733358854   -2.1109948648
 H   -0.2603296189   -1.2719870243   -3.2984947395
 H   -3.6366733247   -0.7978085120   -2.2229198707
 H   -2.3489512654    0.4189882580   -2.0090320528
 H   -2.5025849617   -0.4638414856   -3.5585497142