19

 C   -0.2902546985    1.4016382680    0.1456832154
 N    0.0425318538   -0.0181634092    0.2278491426
 C    1.3544427906   -0.4813416204   -0.2568107266
 C    2.3393288029    0.4632370851   -0.7221253057
 N    3.1219885754    1.2213401988   -1.1117728040
 C    1.0006298528   -0.5222904913    1.2106105786
 C    1.6875378496    0.3845231354    2.2104893436
 C    0.5568062514   -1.8649541943    1.7768924625
 O   -0.5164063715   -1.6959714128    2.6841467064
 H    0.5643438876    2.0842951405    0.2258839819
 H   -0.7800353586    1.5841746289   -0.8150485964
 H   -1.0020437905    1.6355115839    0.9423361704
 H    1.3286822653   -1.3983706861   -0.8411747459
 H    1.9505477962    1.3589866014    1.7980529876
 H    1.0335136343    0.5261127755    3.0756349407
 H    2.6109120153   -0.0857983756    2.5627528735
 H    0.2831233089   -2.5393388035    0.9530708117
 H    1.3713247096   -2.3291478463    2.3425485944
 H   -1.2498673745   -1.3363361480    2.1714766493