19

 O   -0.1034121261    1.4039075473    0.0131841229
 C   -0.0469342651   -0.0158149129    0.0053697779
 C   -1.4551894058   -0.5321258060    0.0116294754
 C   -2.5577806324   -0.2668938872   -1.0563084723
 C   -3.2308117356   -1.1825452928    0.0197330026
 C   -1.9077369424   -2.0211266351    0.0085624355
 C   -2.5448693035   -0.2752882895    1.0947554982
 C   -4.5761779590   -1.6797877617    0.0258516354
 C   -5.7051180892   -2.0961954741    0.0312121977
 H    0.7973520957    1.7404555876    0.0087369555
 H    0.4778710095   -0.3929816152   -0.8880387104
 H    0.4891729684   -0.4023362232    0.8880084521
 H   -2.9360356069    0.7547637108   -1.1268745377
 H   -2.4076056164   -0.7155019740   -2.0421583522
 H   -1.7116203804   -2.5971542509   -0.8999431134
 H   -1.7007574522   -2.6041327731    0.9101831249
 H   -2.3829132626   -0.7315774063    2.0751980779
 H   -2.9221226046    0.7457904393    1.1778239728
 H   -6.7014695517   -2.4626134831    0.0358372772