15

 C   -0.0860007229    1.0891682922   -0.1590801992
 C    1.3948790917    1.5128393940   -0.0960655974
 C    1.5709234590    0.2545658824    0.7807662083
 O    0.1611581436   -0.0636311647    0.6806691565
 C    2.4196370326   -0.8548162841    0.2412592976
 N    2.9367201117   -0.8411140511   -0.9590056994
 O    3.6009507347   -2.0685027531   -1.0467451143
 C    3.4031690992   -2.6771321543    0.1246852510
 N    2.6955651626   -1.9983584384    0.9670905425
 H   -0.8023605838    1.7772287712    0.3037828525
 H   -0.4556248956    0.7985833544   -1.1489623862
 H    1.9333038663    1.4909686746   -1.0423252375
 H    1.5930245349    2.4524028497    0.4200724005
 H    1.8564552362    0.4313388391    1.8242104693
 H    3.8481627098   -3.6531070418    0.2524730458