17

 C   -0.1255224426    1.4924851002    0.0659625844
 O    1.1385577030    0.8339817683   -0.0037090724
 C   -0.0512473681    0.0240896127    0.0291977487
 C   -0.2573348603   -0.8581903149    1.2108763600
 C   -0.5866637580   -2.1014428350    0.8522049214
 C   -0.6733788931   -2.2467387099   -0.6445978977
 O   -2.0345352079   -2.2236949935   -1.1569302341
 C   -1.8719109249   -0.8727020892   -1.6354135658
 C   -0.3921887781   -0.8219195130   -1.1875585385
 H   -0.3400521048    2.0030218916    1.0046927830
 H   -0.4233550061    2.0358481549   -0.8308857424
 H   -0.1316344247   -0.4947659183    2.2244239992
 H   -0.7961542750   -2.9193946366    1.5316367099
 H   -0.1222500732   -3.1038518784   -1.0456834356
 H   -2.0368690896   -0.8071369199   -2.7169565796
 H   -2.5405786309   -0.1662033312   -1.1269887704
 H    0.3413708944   -0.7078750577   -1.9845299199