20

 C   -0.0869370068    1.4949601727    0.1715177300
 C    0.0772210936   -0.0068351715    0.2765201869
 C    1.3014315314   -0.7984798426   -0.1502888885
 C    2.6009099519   -0.0550694430    0.1890870404
 C    2.1803945513   -0.0290488324    1.6963476711
 C    0.8812247483   -0.7425957185    1.3121823998
 O    0.3522859852   -1.7861977384    2.0732395085
 C   -0.6552121676   -1.4745549266    2.9212433209
 N   -1.1291070090   -2.3606011590    3.6834305875
 H    0.8234314469    2.0334586236    0.4471634285
 H   -0.3450373535    1.7860351341   -0.8524190534
 H   -0.8893338176    1.8490285085    0.8282381393
 H   -0.8279245049   -0.5623332062    0.0355519953
 H    1.2125940250   -1.6203684476   -0.8499171814
 H    3.4923694188   -0.6614107651    0.0194609566
 H    2.7428266642    0.9144221584   -0.2964862184
 H    2.8167067174   -0.6735004757    2.3059152881
 H    2.0893901886    0.9450291563    2.1872799752
 H   -0.9757390949   -0.4278388152    2.8453540717
 H   -1.8814456684   -1.9667397017    4.2448431720