19

 C    0.0447971128    1.5202152663    0.0871525517
 C   -0.0180969001    0.0243613943   -0.0348658352
 C   -0.0715232823   -0.6256923214   -1.1978175298
 C   -0.0792006340   -2.1282193351   -1.2863635894
 C    0.3822757555   -2.7293670534    0.0534125556
 O   -0.3257610653   -2.1182626157    1.1280601841
 C   -0.0096302681   -0.7462408526    1.2643757920
 C    0.1747907106   -4.1722316546    0.1191366476
 C    0.0149977262   -5.3625178784    0.1317552246
 H    0.9390455117    1.8381710630    0.6390692174
 H    0.0670857716    1.9999167345   -0.8947482190
 H   -0.8182796174    1.9127616545    0.6401645416
 H   -0.1004845786   -0.0682667942   -2.1313642620
 H   -1.0802502103   -2.5079191893   -1.5272095951
 H    0.5860958586   -2.4742772874   -2.0863362239
 H    1.4607553900   -2.5227680000    0.1693232985
 H    0.9716318027   -0.6219913102    1.7609707667
 H   -0.7609890116   -0.3369365222    1.9507837526
 H   -0.1264963121   -6.4147375582    0.1570065519