15

 C   -0.1362497689    1.5432679187    0.1999632809
 C    0.0087104685    0.0689879871    0.0310023045
 C    0.0974764718   -0.6831237478   -1.0964302491
 C    0.0731489380   -0.3914734756   -2.5600631393
 C    1.3576602540   -0.6418814289   -3.2266417580
 N    2.3672352880   -0.8395065153   -3.7513425176
 O    0.2250153889   -1.9984205565   -0.7237655755
 C    0.2061609925   -1.9628232159    0.6257519303
 N    0.0788600079   -0.7839304126    1.1342623697
 H    0.7139904340    1.9524646619    0.7550413810
 H   -0.1926735281    2.0581602073   -0.7624574851
 H   -1.0399895458    1.7797220176    0.7705851099
 H   -0.6960816851   -0.9925769688   -3.0605510818
 H   -0.1983743643    0.6579501094   -2.7093522799
 H    0.2967316286   -2.9086689206    1.1365961800