23

 C   -0.0427715188    1.5231505733   -0.0521622331
 C    0.0168225394   -0.0085369674    0.0172341259
 C    0.8216593549   -0.4772477597    1.2370505767
 C   -1.3919302272   -0.6102971861    0.0319454870
 O   -2.0905805534   -0.1695638624   -1.1384850045
 C   -3.1455589095   -1.0832242548   -1.4153133871
 C   -2.6458605526   -2.4370655286   -0.9438106251
 C   -1.2352374276   -2.7881458151   -1.3402778920
 C   -1.5018597363   -2.1298601138   -0.0080354306
 H    0.9641687675    1.9493256732   -0.1106057518
 H   -0.6114998520    1.8530237896   -0.9239204378
 H   -0.5258850079    1.9353609105    0.8423606337
 H    0.5127705236   -0.3773840083   -0.8899424301
 H    0.9376025317   -1.5651501757    1.2564150875
 H    1.8229860243   -0.0352965863    1.2310215906
 H    0.3346775093   -0.1731382139    2.1717767433
 H   -1.9173837850   -0.2493654394    0.9362584343
 H   -4.0637463260   -0.8089560936   -0.8699271187
 H   -3.3532203703   -1.0236973180   -2.4893365746
 H   -3.3646502870   -3.2202717560   -0.7342807485
 H   -0.9597402902   -3.8366781065   -1.3296593153
 H   -0.7623871306   -2.2023124664   -2.1221318836
 H   -1.3554017364   -2.6889438447    0.9078920137