17

 C   -0.1410755248    1.5871468114   -0.4485441804
 C   -0.5624190533    0.1439747551   -0.7139298451
 C   -1.1765025620   -0.5339269443    0.4927924126
 O   -1.3599110558    0.0197326337    1.5492113847
 C   -1.5480433365   -2.0369796165    0.3469974734
 C   -2.2997292039   -2.4875578330    1.6133883787
 O   -1.8650999458   -3.2981580849    2.3811798492
 C   -2.3514544382   -2.3151339142   -0.8336821160
 C   -3.0692405889   -2.5441103929   -1.7708899730
 H    0.2919328729    2.0300173392   -1.3492969032
 H   -0.9970949861    2.1930183255   -0.1416639724
 H    0.5996340232    1.6394224624    0.3534967469
 H   -1.2908620725    0.0781458069   -1.5318738206
 H    0.2860307122   -0.4708996434   -1.0454570018
 H   -0.6075901427   -2.6032351851    0.3118051635
 H   -3.2895494271   -2.0072031998    1.7436512466
 H   -3.6867042406   -2.7543902901   -2.6094531230