16

 C   -0.0552171735    1.5293574618   -0.0429314707
 C    1.2349052564    1.8866707740   -0.0085916135
 C    1.9372414729    0.5604819882    0.1144368063
 C    3.3476525309    0.0336110631    0.0960834087
 C    3.1620181413   -1.2924327446    0.1164628828
 C    1.6483693549   -1.4546079144    0.1391764775
 C    1.0833669448   -0.3588444971    1.0741135096
 C   -0.0220398061    0.0104834663    0.0564177595
 N    1.1532610511   -0.3891699816   -0.8734861197
 H   -0.9333470032    2.1505537419   -0.1486086738
 H    1.6871416052    2.8651312494   -0.0744018918
 H    4.2618298064    0.6069096409    0.0531609776
 H    3.8961025397   -2.0852877482    0.0906623316
 H    1.2061689526   -2.4476481889    0.0620410418
 H    1.0533255037   -0.3310332289    2.1728429722
 H   -0.9439502570   -0.5618102919   -0.0444841281