16

 C   -1.3443735084    0.5058525476    0.3824497987
 N   -0.0673601607   -0.0988079233    0.0396234263
 C    0.9978642630    0.0177568339    0.9180474893
 O    0.9326648188    0.6036951480    1.9751269999
 C    0.0811218816   -0.7887056603   -1.1618445667
 N    1.1761315243   -1.3728935673   -1.5870498604
 C    0.8417531954   -1.9173271237   -2.8101680805
 C   -0.4607808904   -1.6581233706   -3.1203338235
 N   -0.9489219236   -0.9252634389   -2.0464314524
 H   -1.6347528467    1.2621836877   -0.3561483615
 H   -2.1339409663   -0.2513252780    0.4548399366
 H   -1.2180101572    0.9840906503    1.3531318281
 H    1.8964483529   -0.4841047417    0.5340963719
 H    1.5681064991   -2.4643506023   -3.3908299891
 H   -1.0814939828   -1.9060444149   -3.9639540612
 H   -1.8829290090   -0.5681195565   -1.9478126254