18

 C    0.0101621230    1.7171953550    0.0061176460
 C    0.0082978039    0.2021645080   -0.0102835378
 C    0.4488344211   -0.6688999615   -1.1394650728
 C    1.1395577084   -0.1628458431   -2.3849028846
 O    2.0825408233    0.8965458190   -2.1724122300
 C    2.8646040089    0.9087674526   -1.0633422669
 O    3.7667220338    1.6954507889   -0.9859398719
 C    2.5343196764   -0.0862167301    0.0460830551
 N    1.1974485105   -0.6650320364    0.1158524630
 H    0.6977434838    2.1746417588   -0.7031051261
 H   -0.9967199533    2.0722178451   -0.2381744242
 H    0.2467160974    2.0873283009    1.0097370560
 H   -0.8100138055   -0.2071735617    0.5817731896
 H   -0.1108179944   -1.5842980538   -1.3364704825
 H    1.6639712819   -0.9991461299   -2.8667965109
 H    0.4179029026    0.2304301219   -3.1073790364
 H    3.2463357762   -0.9158444649   -0.0567222797
 H    2.7772544020    0.4090357511    0.9897868544