16

 O   -0.1657818047    1.3140219827    0.0066684451
 N   -0.0281021606   -0.0955662711    0.0026725961
 C   -1.1485348927   -0.6709117677    0.0090698430
 C   -2.6204513230   -0.2279042373    0.0200730031
 C   -3.0459145245   -1.0278201714   -1.2263216712
 C   -2.3575646056   -2.1724386959   -1.2325979820
 C   -1.4431693012   -2.1738368256    0.0078218732
 C   -2.3405602184   -2.1778458118    1.2605933932
 C   -3.0288872196   -1.0332248679    1.2686806636
 H    0.7536850454    1.5993971216    0.0010148548
 H   -2.8346430730    0.8364986342    0.0238410113
 H   -3.7875425143   -0.6880706797   -1.9359759030
 H   -2.4112402937   -2.9830082270   -1.9460738083
 H   -0.5988926355   -2.8590408205    0.0005771979
 H   -2.3845241139   -2.9915051350    1.9712110646
 H   -3.7607494446   -0.6965746276    1.9898569385