13

 O    0.1452024299    1.3793249190   -0.1261804185
 C    0.0958181351    0.0068531693   -0.0678354397
 C    0.0093664616   -0.6751427407    1.3432601657
 N   -1.4147091659   -0.1101163134    1.3972840679
 C   -1.3316424075   -0.6831227199   -0.0220198422
 C   -2.4097222555   -0.6099332215   -0.9597309555
 N   -3.2695777725   -0.5735177762   -1.7322582524
 C   -0.6091640752   -1.8965784266    0.6492191324
 O   -0.6729677206   -3.0785184762    0.7120789593
 H   -0.4993786401    1.7117221483    0.5162558350
 H    0.8072887602   -0.4085642596   -0.7803838519
 H    0.6908924041   -0.5948171416    2.1854813550
 H   -2.0288902836   -0.6719835509    1.9917938150