17

 C   -0.1814942873    1.7361401622    0.3599996953
 C   -0.6022243696    0.3041314075   -0.0030854530
 C    0.4801439451   -0.6600915389    0.1844932379
 C    1.3687660690   -1.4480841125    0.3719746347
 C   -1.8344509970   -0.1473751730    0.8140009478
 O   -2.2963872938    0.5269171632    1.6956714859
 C   -2.4423178691   -1.5171612918    0.4546990543
 C   -2.8216683392   -1.6203547467   -0.9472878124
 C   -3.1365936129   -1.6767310167   -2.1058450732
 H    0.6734596068    2.0411556637   -0.2474465015
 H   -1.0094077678    2.4269046928    0.1849984111
 H    0.0943104564    1.7988685600    1.4143183172
 H   -0.9106135434    0.2638606055   -1.0571125013
 H    2.1600648703   -2.1406154309    0.5211575546
 H   -1.6957690501   -2.2846920508    0.6953910502
 H   -3.3051055753   -1.6661043671    1.1100557336
 H   -3.4187961520   -1.7417120266   -3.1275990613