23

 C   -0.0226593883    1.5101830684    0.0794818944
 C    1.3164658587    0.8154519351    0.0141434784
 C    2.2616355414    0.8974122296    1.1995805392
 C    3.1524799138   -0.3407085874    1.4074030230
 C    2.3951532612   -1.6739472355    1.4938903458
 C    1.2721040764   -1.7237062939    2.5350218543
 O    0.2194225936   -0.7872129669    2.3491622034
 C   -0.4700450955   -0.9024854734    1.1179800932
 C    0.0318729618    0.0047139761   -0.0023906527
 H   -0.2893575647    1.9422195299    1.0398811865
 H   -0.3848873304    2.0687821088   -0.7770478848
 H    1.8221846177    0.8565548231   -0.9490106386
 H    2.9086316932    1.7732869111    1.0583972234
 H    1.6833303928    1.0797858218    2.1071463089
 H    3.8825058830   -0.4114140975    0.5903325133
 H    3.7387001139   -0.1953796383    2.3245306269
 H    1.9868591150   -1.9343719829    0.5107563782
 H    3.1018621217   -2.4759022001    1.7441787860
 H    0.8534805481   -2.7438891645    2.5611930824
 H    1.6708393337   -1.5069463223    3.5329031270
 H   -0.4460221122   -1.9477120697    0.7724230902
 H   -1.5198297467   -0.6637872291    1.3317922546
 H   -0.2241739782   -0.3999528125   -0.9798294131