19

 C   -0.3962568557    1.5864709516    0.2305361741
 C    0.0061563211    0.1372805991   -0.0113225794
 C   -1.2144988675   -0.7796070087   -0.1065304099
 C    0.9838047164   -0.0369570149   -1.1994429819
 C    1.9100861817   -1.1525922051   -0.7235584980
 O    3.2153597042   -1.0808483802   -1.2332977812
 C    1.8941454064   -0.9539163335    0.7916277389
 O    2.7540557687   -1.3139637348    1.5490265310
 O    0.7892749265   -0.2839800248    1.1602750312
 H    0.4878533230    2.2093378615    0.3893579894
 H   -0.9416625552    1.9729876963   -0.6360727272
 H   -1.0417527261    1.6695890118    1.1093983341
 H   -1.8615361210   -0.4629920769   -0.9301725791
 H   -0.9233856515   -1.8192110470   -0.2825033476
 H   -1.7912373998   -0.7394522614    0.8213828480
 H    0.4615592308   -0.2605489522   -2.1312881499
 H    1.5812235835    0.8683588042   -1.3432663909
 H    1.4625984570   -2.1402404729   -0.9288044623
 H    3.7946986175   -1.3819468522   -0.5185496691