17

 O   -0.0644815874    1.4324496017   -0.1297648059
 C   -0.0138438522    0.0156976371   -0.1609346891
 C   -1.4240223065   -0.4956648203    0.1322824532
 C   -1.4819999139   -1.9854015871    0.2004710911
 O   -1.3750928427   -2.7631823658   -0.9961101508
 C   -2.4978900299   -2.9826259652   -0.1420810852
 C   -2.0257778397   -3.8941501695    1.0614086731
 O   -0.6429394765   -4.1893736087    0.8804461878
 C   -0.9992350650   -2.9127156984    1.4045242107
 H    0.8036610382    1.7701324343   -0.3681087101
 H    0.3115184284   -0.3598429389   -1.1421116911
 H    0.6894855637   -0.3777764771    0.5910714120
 H   -1.7611301569   -0.0692970255    1.0850382446
 H   -2.1053458073   -0.1365575941   -0.6455243851
 H   -3.4940681291   -2.8854557953   -0.5565916509
 H   -2.6255038562   -4.5557942659    1.6733824788
 H   -0.5859936471   -2.6058034113    2.3577816170