12

 O   -0.0406627297   -0.0683028574   -0.0001464341
 C   -0.0158539078    1.1402558163    0.0097681899
 C    1.2310471339    1.9166269880    0.0019675294
 C    1.3541081407    3.2885154262    0.0118707952
 O    2.6630157716    3.6437946056    0.0006467382
 C    3.3833517843    2.4895727899   -0.0175473387
 C    2.5669970865    1.4058277504   -0.0181169337
 C    0.3848849732    4.3142521383    0.0316239342
 N   -0.4339085023    5.1335885828    0.0482224523
 H   -0.9463274647    1.7436093261    0.0257286036
 H    4.4530826131    2.6174178153   -0.0284104251
 H    2.8474749812    0.3654808287   -0.0304974312