21

 C   -0.4429013387    1.4799886607    0.1166544683
 C    0.0631967866    0.0526901653   -0.0297215813
 C   -1.0308573296   -1.0416505809    0.2102861140
 C   -0.3211365377   -1.4692206965    1.5231489540
 C    0.8791128812   -0.5339005394    1.1712978390
 C    2.0588833210   -1.2794703581    0.5566212752
 O    2.9988044502   -1.7299710049    1.1611322929
 C    1.8521634223   -1.3517462129   -0.9621705178
 C    0.9313642412   -0.1653979023   -1.2897113872
 H    0.3878546235    2.1937873361    0.1540072812
 H   -1.0835808044    1.7560621156   -0.7294866488
 H   -1.0327040544    1.6049377123    1.0313794361
 H   -2.0481727342   -0.6595331328    0.3258649287
 H   -1.0505708677   -1.8208993938   -0.5570146681
 H   -0.8436777668   -1.1410310289    2.4240443579
 H   -0.0847930634   -2.5302318514    1.6361624478
 H    1.2172339822    0.1333051395    1.9668105371
 H    2.8095984277   -1.3538753817   -1.4868189727
 H    1.3645258664   -2.3108387731   -1.1831941103
 H    0.3210162543   -0.3262601623   -2.1843495728
 H    1.5380734204    0.7306403495   -1.4703851634