17

 C   -0.2746126262    1.4374047405   -0.1275413861
 C    0.0763460780   -0.0540549519    0.0267517593
 C    0.9352533488   -0.3312945791    1.2847855836
 C    0.2173320090   -0.1381455226    2.5992713994
 O   -0.9738263538    0.0068535420    2.7114227885
 C   -1.2180287756   -0.9068827603    0.0700662213
 O   -2.2791652340   -0.5370165692   -0.3446321447
 C    0.8099634679   -0.5452982775   -1.1432149413
 C    1.3966829011   -0.9774186776   -2.0998002294
 H    0.6342695521    2.0300453398   -0.2597252808
 H   -0.9179932555    1.5773302806   -0.9968425929
 H   -0.8137777855    1.7880568200    0.7547008265
 H    1.3032076446   -1.3681645243    1.2787814596
 H    1.8395587707    0.2890047746    1.2738164977
 H    0.8769311939   -0.1664002676    3.4950474391
 H   -1.0642503664   -1.9350058030    0.4654346985
 H    1.9129707010   -1.3440921341   -2.9526695383