20

 C   -0.0495473198    1.5326376338    0.0191583776
 N   -0.0141360198    0.0909306895    0.0863297668
 C   -1.2470649755   -0.6380995160    0.4402125111
 C   -0.3923404608   -1.6413145922    1.2376567511
 O   -0.0929374400   -2.7787396146    0.4482466203
 C    1.2547308815   -3.1667080716    0.5351533620
 O    2.1302112238   -2.1829239404    0.0643652150
 C    2.1277468874   -1.0465732230    0.9152979137
 C    0.7165128256   -0.5493721080    1.1947504202
 H    0.9572739423    1.9233881887   -0.1637596246
 H   -0.6841936860    1.8505613443   -0.8146866393
 H   -0.4374949208    2.0044728769    0.9437357344
 H   -1.9236210452   -0.0652877790    1.0960381838
 H   -1.8088316973   -1.0469001096   -0.4049212957
 H   -0.7536213707   -1.9452005119    2.2263860102
 H    1.5114223290   -3.4330149059    1.5795799800
 H    1.3684209972   -4.0381853184   -0.1121431811
 H    2.6188298208   -1.2962193397    1.8717960477
 H    2.7235187735   -0.2767657802    0.4157122142
 H    0.7081882748    0.0575351872    2.1173103627