16

 C   -0.0489673633    1.4825687152   -0.1196966286
 C    0.0156856900   -0.0324255322   -0.0272519969
 O    0.9795055393   -0.6830817040   -0.3777987990
 N   -1.0860728846   -0.6268691225    0.5670664027
 C   -2.5192966024   -0.3957877874    0.2313348807
 C   -2.5539956366   -1.5217021514   -0.8659398816
 O   -3.6863615426   -2.2121590356   -0.2753918681
 C   -2.9329318725   -1.7534499977    0.8800786962
 C   -1.5349503754   -2.0017786617    0.2305315390
 H    0.9616347594    1.8714103012   -0.2451667622
 H   -0.6428575068    1.7778316165   -0.9926038198
 H   -0.5136036036    1.9232639982    0.7660899938
 H   -3.0150777171    0.5727052995    0.2661905582
 H   -2.4672292887   -1.4703199377   -1.9510145261
 H   -3.2965456066   -1.9731465231    1.8821282889
 H   -0.8891401785   -2.8748253872    0.2546767728