21

 C   -0.2762702242    1.4747357166    0.3944019499
 C   -0.0469372304    0.0223805163   -0.0087593326
 C    0.8920334136   -0.7025409117    0.9608677017
 O   -1.3333811277   -0.5857013632   -0.0623704186
 C   -1.3947831363   -1.8190052995   -0.7463055676
 C   -2.8404942475   -2.1749307624   -0.9651996447
 C   -3.2435760455   -3.6026399528   -0.9978698193
 N   -3.6396108855   -2.7435594597    0.1290859807
 H    0.6689873204    2.0252359939    0.4132599325
 H   -0.9534465032    1.9634083181   -0.3107556128
 H   -0.7264788704    1.5249474709    1.3908880113
 H    0.3975521483   -0.0048292731   -1.0191520115
 H    1.0762306995   -1.7365830667    0.6551353818
 H    1.8606569930   -0.1945510492    1.0052547701
 H    0.4609165899   -0.7123841148    1.9673597100
 H   -0.8741972032   -1.7439672184   -1.7171905097
 H   -0.9020788093   -2.6245436073   -0.1751255404
 H   -3.3884260705   -1.4599971619   -1.5750067110
 H   -4.0583668218   -3.9232572168   -1.6404351374
 H   -2.4721967182   -4.3533029961   -0.8411298529
 H   -3.0406985310   -2.9210590422    0.9325314503