21

 C   -0.1078949741    1.5408480654    0.0363504792
 C    0.0516114814    0.0213542491    0.0275734697
 C    0.7586892493   -0.5112428835   -1.2451117010
 C    0.9518261432   -2.0327883225   -1.2112499221
 C    1.7325492172   -2.4683786129    0.0342410075
 C    1.0341986595   -1.9963911486    1.3253046485
 O    1.7764907950   -2.3227633601    2.4665430402
 C    0.7976692792   -0.4890901570    1.2492942479
 O    1.2294653821    0.2283367316    2.1284133153
 H    0.8677024012    2.0347492026    0.0070991971
 H   -0.6870393515    1.8695272910   -0.8316816258
 H   -0.6167342604    1.8786775987    0.9423384193
 H   -0.9424789643   -0.4508397528    0.0614272262
 H    0.1767571933   -0.2129728370   -2.1238921151
 H    1.7361866176   -0.0184818622   -1.3360625972
 H   -0.0293082807   -2.5267678504   -1.2245923771
 H    1.4754065638   -2.3619957747   -2.1149674476
 H    1.8499501020   -3.5555085361    0.0750996154
 H    2.7424316809   -2.0393007218    0.0201148437
 H    0.0392803780   -2.4755169834    1.3705094451
 H    1.9211688674   -1.4780173254    2.9234506308