15

 O   -0.2292107093    0.0142185608   -0.1686109225
 C   -0.0472379523    1.1770974527    0.0700036427
 C    1.2724606223    1.9071446158   -0.0519750723
 O    2.3824655513    1.0512762207   -0.2423917963
 C    3.0208249931    1.5613104699   -1.4480980391
 O    2.8087432033    2.9522629611   -1.3553936860
 C    1.3789266181    2.8586308357   -1.3250112909
 C    1.0817120032    1.9790952655   -2.5291251179
 C    2.1273721668    1.1548771541   -2.6123551558
 H   -0.8755566924    1.8410007715    0.4168015233
 H    1.4150431079    2.5240070726    0.8471307996
 H    4.0747438925    1.2964460321   -1.4364647709
 H    0.9093068055    3.8351592394   -1.2382807267
 H    0.1519087298    1.9607023739   -3.0792518727
 H    2.2753240601    0.2946848843   -3.2485140747