23

 C    0.2281963273    1.3021055390    0.3787529015
 C    0.3394608104   -0.1777243499   -0.0067942050
 C    0.6888785022   -0.4481308298   -1.4860390372
 O   -0.2965158951    0.1712277333   -2.3230226444
 C    2.1323466097    0.0108693661   -1.8815888051
 C    2.9759153641   -1.2409313603   -2.0568783843
 C    3.0565492473   -2.2180362788   -0.9092564939
 C    2.0632994187   -2.4459677381   -2.0227612110
 C    0.6360184360   -1.9671884941   -1.8240799786
 H    1.1533075529    1.8545035870    0.1826320822
 H   -0.5854368733    1.7980423129   -0.1618607129
 H    0.0068590912    1.4052777707    1.4451863289
 H    1.0850895836   -0.6627870253    0.6334677301
 H   -0.6171702295   -0.6708272119    0.2021533180
 H   -0.2615310348    1.1210583052   -2.1708119456
 H    2.0622326336    0.5388857300   -2.8383465647
 H    2.5609030432    0.7086594256   -1.1535966399
 H    3.8171148979   -1.1936037652   -2.7398719254
 H    3.9226341293   -2.8707873003   -0.8797912983
 H    2.7019266652   -1.9230131553    0.0731715919
 H    2.2278671254   -3.2913654975   -2.6816785260
 H    0.0988053991   -2.5312864290   -1.0536637440
 H    0.0730017357   -2.0740661343   -2.7559367363