17

 N   -0.0302866292    1.3897719228   -0.1698331995
 C   -0.0024950183   -0.0047091732   -0.0675249746
 C   -1.1982556263   -0.7338235346   -0.1000135642
 C   -1.1505046149   -2.1260610294   -0.0626541417
 O   -2.2854677777   -2.8844399320   -0.0952964229
 C    0.0604526064   -2.8076689463    0.0091422640
 C    1.2533534979   -2.0782641787    0.0459414458
 N    2.4747502099   -2.7424213551    0.1825603982
 C    1.2183323817   -0.6795197392    0.0064456477
 H    0.7781949675    1.8504980785    0.2226831168
 H   -0.8844573456    1.8147426877    0.1612536460
 H   -2.1521404154   -0.2170276328   -0.1646442508
 H   -3.0468622989   -2.2987323519   -0.1535769313
 H    0.0600083239   -3.8909242059    0.0423343546
 H    2.4702300953   -3.6962496122   -0.1485496970
 H    3.2704829544   -2.2346696695   -0.1759923442
 H    2.1458582093   -0.1149582182    0.0347932730