19

 C   -0.3349941281    1.4968440396   -0.0503909251
 C    0.1300237080    0.0409424892    0.0804346230
 C    0.8348457634   -0.4845043802   -1.1543577887
 C    0.0410468186   -1.0026404236   -2.3386537565
 C    0.9114274253   -1.9467179497   -1.5175151661
 C    2.3066556011   -2.1978196300   -2.0486174545
 O    2.7809233151   -3.2660622985   -2.3587543603
 C    2.9798576620   -0.8664812178   -2.0801205774
 C    2.1712603929    0.0676087754   -1.5614466750
 H    0.5071439396    2.1776516653   -0.2127854668
 H   -1.0250922661    1.6158576840   -0.8918942221
 H   -0.8497544185    1.8236369192    0.8579541862
 H    0.7960973201   -0.0585316324    0.9467118304
 H   -0.7356094177   -0.5998013097    0.2856941707
 H   -1.0323056950   -1.1153072280   -2.2156158557
 H    0.3604064826   -0.7363515446   -3.3403650677
 H    0.4263394950   -2.7230194652   -0.9393196259
 H    3.9719385464   -0.7240928618   -2.4879822318
 H    2.4072366352    1.1223501890   -1.4682664168