17

 C    0.0200697636    1.5855134113    0.1085300823
 C    0.3015488554    0.0815540895    0.1937783390
 C    0.6857727121   -0.5369245786   -1.1392482216
 C    0.5198271901   -2.0749978310   -1.2847287038
 C   -0.5573144249   -1.7026636352   -2.3007779574
 O   -1.3316401430   -2.2563688559   -3.0080416687
 O   -0.3569260953   -0.3486414350   -2.1703396636
 C    2.0170532141   -0.0547439327   -1.6948263680
 O    2.9075636310    0.3881905371   -1.0198203286
 H    0.9146329481    2.1386449296   -0.1890244353
 H   -0.7722364975    1.7911806357   -0.6165136068
 H   -0.3016113480    1.9665625404    1.0813946100
 H    1.1250861289   -0.1119990535    0.8895919126
 H   -0.5804799474   -0.4446243311    0.5757637926
 H    1.3613640647   -2.6218561566   -1.7162906553
 H    0.1654504891   -2.5928530133   -0.3925445142
 H    2.1087922690   -0.1757727206   -2.7971590032