14

 O   -0.4700036421    0.1073724358    0.0007316243
 C   -0.1225440619    1.2572798685    0.0067994939
 N    1.1725912636    1.7472863713   -0.0005227435
 C    2.3961923906    1.0838306428   -0.0158220988
 N    2.4243808517   -0.2470302056   -0.0277535533
 C    3.6393572339   -0.7952365261   -0.0419661339
 C    4.8087810762   -0.0441026185   -0.0444855938
 C    4.6457407734    1.3373342631   -0.0311531206
 N    3.4486307643    1.9173986553   -0.0167384147
 H   -0.8345256983    2.1079437343    0.0196081161
 H    1.2775487869    2.7518973368    0.0071291726
 H    3.6693904135   -1.8825620300   -0.0517524794
 H    5.7876777694   -0.5057427440   -0.0561543339
 H    5.5033841887    2.0062927164   -0.0320446250