21

 C   -0.2156318785    1.5253432626    0.0303941475
 C    0.0615893839    0.0242727797    0.0325485037
 C    0.7708208273   -0.4463359278   -1.2628044431
 C    1.2093278052   -1.9092438797   -1.2333841689
 C    2.5741744406   -2.2774060266   -0.6987818539
 C    1.3434425668   -2.6433161249    0.0876712962
 C    1.0317534755   -1.9233943562    1.3917346940
 C    0.8895431332   -0.4137750704    1.2360825945
 O    1.3857935486    0.3669572714    2.0157148843
 H    0.7202733362    2.0907053099    0.0095800848
 H   -0.8107094918    1.8071253259   -0.8440458116
 H   -0.7573605068    1.8285968341    0.9299771696
 H   -0.8859833432   -0.5314625979    0.0951950631
 H    0.0888052941   -0.2821360304   -2.1034426663
 H    1.6348571927    0.2053961837   -1.4423472848
 H    0.8549733369   -2.5070279416   -2.0670526581
 H    3.1326316186   -3.0677223478   -1.1880835529
 H    3.1921319117   -1.4685465996   -0.3175357216
 H    1.0722044376   -3.6947905929    0.0832105867
 H    0.0647108784   -2.2810951534    1.7742155393
 H    1.7797188332   -2.1255875080    2.1642021675