20

 C   -0.1331399135    1.3485800195    0.2388081883
 O   -0.1702917421   -0.0699254976    0.2004890509
 C   -1.4086100726   -0.6634743592   -0.1044883589
 C   -1.9545053867   -0.2630960778   -1.4677009463
 C   -1.2139405901   -2.1708390342    0.1238304755
 C   -1.4361101783   -2.2998974331    1.6352421919
 C   -2.3959472024   -1.1692547414    1.9332210398
 N   -3.1118150139   -1.0494456905    2.9645446681
 O   -2.3906606529   -0.2817719129    0.8845758335
 H    0.8202626594    1.6180060997    0.6982362523
 H   -0.1733986042    1.7897835680   -0.7656377579
 H   -0.9507445081    1.7549510274    0.8437876048
 H   -1.2225038974   -0.5024812112   -2.2438726060
 H   -2.8811196844   -0.8033999597   -1.6729124778
 H   -2.1727139297    0.8064312210   -1.5075065277
 H   -1.9726273759   -2.7273581536   -0.4332413829
 H   -0.2262251642   -2.4878713262   -0.2111567541
 H   -1.8473991378   -3.2562362536    1.9585123990
 H   -0.5052875963   -2.1285517663    2.1840419041
 H   -3.6599358189   -0.1883016583    2.9211466335