21

 C   -0.5632856578    1.1632510493    0.3312064095
 C   -0.0291146962   -0.2569508138    0.1195989988
 C    0.9543584756   -0.7007513821    1.1989287178
 C    0.3869039461   -0.9200092879    2.6488786121
 C    0.8137750128   -2.3870465713    2.5529196670
 O    0.1433872277   -2.9524118370    1.4148940047
 C    1.3472203972   -2.2091909020    1.1975481747
 O    2.0898445459    0.1394664960    1.3283593976
 C    2.8998006699    0.2665496523    0.1763610575
 H    0.2492689960    1.8952982566    0.3538208860
 H   -1.2527520707    1.4437519081   -0.4705668910
 H   -1.1047831331    1.2470745756    1.2793700676
 H   -0.8506355413   -0.9796308591    0.1152839803
 H    0.4485768280   -0.3330730689   -0.8655929725
 H    0.9725754015   -0.3409161398    3.3645384176
 H   -0.6813923955   -0.7511653660    2.8010868130
 H    1.1053375386   -3.0712947223    3.3408260377
 H    2.1584627482   -2.7086534626    0.6803263860
 H    3.8044483930    0.7940670681    0.4886380741
 H    3.1908272419   -0.7073485502   -0.2414440529
 H    2.4132737522    0.8497547969   -0.6170326456