21

 C    0.9874676681    1.1365463851    0.1094517854
 O    1.6811445495   -0.0785101605   -0.1729292126
 C    0.2572312056   -0.1335998902   -0.0027172102
 C   -0.2263318710   -0.8667404383    1.2155617244
 C   -1.7687474108   -0.8600955848    1.4878498101
 C   -1.8707906949   -2.0383731844    0.4762073734
 C   -0.4803931642   -2.4053665939    1.0711037767
 C   -0.8523863672   -2.7830334686    2.5187202405
 C   -1.8366246986   -1.6039580261    2.8369899980
 H    1.1726467107    1.5616247962    1.0957202712
 H    0.9526170501    1.8588621418   -0.7054679824
 H   -0.2788510517   -0.3108314181   -0.9346944969
 H    0.4076544960   -0.5768799119    2.0616428915
 H   -2.3651232353    0.0474964361    1.3833498967
 H   -2.6868207599   -2.7546625806    0.6131531131
 H   -1.8337776243   -1.7272221754   -0.5682499937
 H    0.2243432419   -3.0502603874    0.5456786568
 H   -1.3355445427   -3.7623889594    2.5787957206
 H    0.0176123963   -2.7960378679    3.1812608370
 H   -1.4971479485   -0.9845638081    3.6720714371
 H   -2.8488386692   -1.9500483834    3.0650123634