16

 N   -0.2654678210    1.1349366094   -0.6742291017
 C   -0.1706014733   -0.1662631512   -0.1483181459
 C   -1.1467496596   -1.0486675651    0.2799438111
 C   -2.6042791386   -0.7230715173    0.3804418156
 O   -3.1032578796   -0.0448099952   -0.7831202058
 C   -0.4830457264   -2.2720568017    0.6066493758
 C    0.8590600235   -2.0961413719    0.3852382098
 N    1.0367898047   -0.8096404187   -0.0817319843
 H   -1.2412784265    1.3338751220   -0.8725355422
 H    0.0876060227    1.8433894514   -0.0374761758
 H   -3.1812405960   -1.6384465166    0.5782048423
 H   -2.8157677459   -0.0298403281    1.2041119090
 H   -2.8651993968   -0.5910307475   -1.5408751427
 H   -0.9507539574   -3.1698328709    0.9834896021
 H    1.6978876280   -2.7589714784    0.5191071722
 H    1.8954690421   -0.4232302201   -0.4343632994