16

 N   -0.1765493643    1.2794379440   -0.1002421678
 C   -0.0636340523    0.0314290939    0.1158920654
 O   -1.1307394964   -0.5738871654    0.7066422638
 C   -1.2175736044   -1.9805419541    0.7443162159
 C   -1.6327702407   -2.7516968887   -0.5266152995
 O   -0.5571086677   -3.6984932755   -0.3202575943
 C    0.0621182043   -2.8375303399    0.6768357452
 C    1.2209974275   -2.0892465971    0.1059776138
 C    1.1282794097   -0.7869467284   -0.1707405972
 H    0.6859056180    1.6402525514   -0.5050750306
 H   -1.8479615460   -2.2126899372    1.6030110657
 H   -2.6120863697   -3.2389079817   -0.5258441742
 H   -1.5083560372   -2.1701647459   -1.4487736969
 H    0.3349547661   -3.4102059174    1.5699475938
 H    2.1248058781   -2.6493807451   -0.1165862134
 H    1.9579835452   -0.2495452128   -0.6195729898