15

 N    0.0686656894   -1.1038504453   -0.0530421095
 C    0.0365946733    0.0506916777   -0.0082507926
 C   -0.0742408162    1.4867785630    0.0132941703
 C   -0.6808175378    2.4230802178    1.0989657082
 C    0.0167954956    3.2935186558    0.0233051408
 O    1.1459402405    2.3184615655    0.0202059873
 C   -0.6457945864    2.4368692183   -1.0675922513
 C   -0.6711212560    2.3902848951   -2.5268960621
 N   -1.9202520613    2.5458651198   -1.7148499624
 H   -1.7683575451    2.4735588396    1.1759021314
 H   -0.1690166966    2.3805164065    2.0600743975
 H    0.2659210771    4.3513087889    0.0370825636
 H   -0.4038752906    3.2632035507   -3.1144806446
 H   -0.4844230128    1.4349443466   -3.0100828071
 H   -2.4388802130    1.6709656399   -1.6805898796