20

 C    0.0561384537    0.8669607233    0.4991366303
 O   -0.0785944013   -0.3999758681   -0.1011959340
 C    0.6581109919   -0.5582860526   -1.3034317939
 C    2.1500494604   -0.8246179757   -1.0637775153
 O    2.2555888893   -2.1978133464   -0.7345925113
 C    1.1399916824   -2.9298019005   -1.2712232164
 C    0.4712634366   -3.7013254884   -0.1387040679
 C    0.2284723882   -1.8794224307   -1.9475645641
 H    1.0845106963    1.0727142269    0.8308637213
 H   -0.2506915766    1.6728838849   -0.1865508818
 H   -0.5981260445    0.8799950929    1.3741448765
 H    0.4944944579    0.3106639920   -1.9582832054
 H    2.7214787535   -0.5851529113   -1.9767115238
 H    2.5690795895   -0.2377604977   -0.2403688920
 H    1.5263714862   -3.6371127922   -2.0181062329
 H    0.0357356603   -3.0032357385    0.5808282455
 H   -0.3204448549   -4.3507654755   -0.5276658857
 H    1.2062735833   -4.3260335197    0.3768873389
 H   -0.8342871122   -2.0684570976   -1.7859332322
 H    0.4130972799   -1.8380304651   -3.0247376158