21

 C   -0.0478203877    1.5029311670    0.3620340769
 C    1.3561674313    2.0882706474    0.1324752345
 C    2.2710169328    0.8752839463    0.3608487893
 C    1.4883108609   -0.3506746303   -0.1816949214
 C    0.0257366647    0.1396327919   -0.3461453675
 C    2.0819690687   -0.9815353246   -1.4560608308
 O    2.9617683850   -1.9761406569   -0.9606325826
 C    2.2713417907   -2.5071695623    0.1411832899
 O    1.5871324918   -1.4376485620    0.7615706512
 H   -0.2171378327    1.3623290977    1.4362742746
 H   -0.8532141547    2.1382110334   -0.0165415374
 H    1.4443200734    2.4502575140   -0.9002357260
 H    1.5912822550    2.9287919238    0.7912642783
 H    3.2629087575    0.9717804404   -0.0898403601
 H    2.4143797757    0.7131522683    1.4337512396
 H   -0.6707560028   -0.6051649179    0.0449680921
 H   -0.1956580179    0.2673878941   -1.4134790721
 H    1.2876632584   -1.4341605729   -2.0722484241
 H    2.6528194498   -0.2803826840   -2.0684810819
 H    1.5481829415   -3.2776608177   -0.1855462298
 H    2.9955640987   -2.9453071657    0.8358545674