14

 N    0.0975800345    1.3690341049    0.1601281875
 C   -0.0136179003   -0.0124979297    0.0562649416
 C   -1.1965078137   -0.7033933716    0.0229751077
 C   -1.2158217353   -2.1409226939   -0.0019032840
 O   -2.2085496241   -2.8545459007   -0.0283026327
 C    0.1662113116   -2.7183415250   -0.0134468126
 O    0.2339750404   -4.0563868451   -0.0510233943
 N    1.2703882650   -2.0463013265    0.0122188818
 N    1.1626247727   -0.6896176873    0.0355994730
 H    0.8173073628    1.7827921598   -0.4183692307
 H   -0.7833851880    1.8467791574    0.0355686876
 H   -2.1403627651   -0.1728259513    0.0026106191
 H    1.1715853305   -4.2954341589   -0.0522986712
 H    2.0331775493   -0.2148055120    0.2079357172