17

 O   -0.2114238822    1.4880556259    0.2857436236
 C   -0.0174085185    0.1287152739    0.0994323259
 C   -1.1298445441   -0.9242673361   -0.0585380953
 C   -0.8661080050   -0.9845168998   -1.6166991882
 C    0.5038541178   -0.4365774589   -1.2281057016
 C    1.6578639340   -1.0953368757   -1.0660431235
 C    2.0562356230   -1.1240810463    0.4117322466
 C    0.6959832272   -0.8185415800    1.0708927517
 O   -0.3275512441   -1.8322025698    0.7478152668
 H    0.3573069950    1.9607389699   -0.3308014137
 H   -2.1609829774   -0.8474868957    0.2957312266
 H   -0.8911621854   -1.9484514975   -2.1281922701
 H   -1.5466053169   -0.2776830229   -2.1040784987
 H    2.0709149451   -1.8021402069   -1.7786329249
 H    2.4236913925   -2.1210953484    0.6775874739
 H    2.8252536858   -0.4040903569    0.7239971824
 H    0.7104650930   -0.6043770447    2.1438081385