14

 C   -0.0707539478    1.5431274906   -0.0032226861
 C   -0.0487785146    0.0159787212   -0.0086517836
 C   -1.3427561840   -0.5623731304   -0.3572239043
 N   -2.3702186141   -1.0136711426   -0.6339407845
 C    1.2181869469   -0.6670954766   -0.6400753032
 O    1.9963863269   -0.2081558569    0.5338716648
 C    0.7393836125   -0.6803875503    1.1594117750
 C    0.9416874062   -1.9219632213    0.2405784566
 O    1.0369977818   -3.0988936490    0.2572446711
 H    0.9158336415    1.9239009195    0.2621669492
 H   -0.3499370255    1.9222006502   -0.9898330464
 H   -0.8048043788    1.9095803743    0.7192177762
 H    1.6482133666   -0.5262589741   -1.6289419653
 H    0.6206146823   -0.5547887746    2.2330661405