18

 O   -0.0814898979    1.4536964938   -0.0598522907
 C   -0.0727533119    0.0586306695    0.0566133734
 C    0.1458681952   -0.6424854367    1.3894008890
 C   -1.1855068356   -0.8246928140    2.0500776847
 N   -0.7421540169   -1.7923306914    0.9853721397
 C   -1.3906642759   -0.7548673020    0.0069051863
 C   -2.2397517897   -0.2309431807    1.1569383753
 C   -3.7150673154   -0.3922129901    1.3168400546
 C   -3.1025160896    0.9966702704    1.2768003812
 H   -0.7102608938    1.7940344116    0.5861349915
 H    0.6366892713   -0.3155617753   -0.6855889161
 H    1.0794800424   -0.8134935762    1.9139224842
 H   -1.2804330324   -1.1308631550    3.0862526624
 H   -1.8326770835   -1.0874468746   -0.9307147547
 H   -4.2939252411   -0.7185632130    0.4589254310
 H   -4.0897347182   -0.7511076994    2.2699903162
 H   -3.0731997664    1.5636119378    2.2021667825
 H   -3.2718599607    1.5974015552    0.3888169996