21

 C   -0.0551440416    1.5937278204   -0.0642689224
 C    1.4801494101    1.3827764648   -0.0260870236
 C    1.1790683127    0.1804691815    0.9422663822
 C   -0.0650471342    0.0394622037    0.0268464004
 C   -1.3467191120   -0.7659708259    0.0088433011
 C   -1.6419685544   -0.8119292827   -1.5318453681
 O   -0.4830255433   -0.3159964687   -2.2289873588
 C    0.5872928528   -0.3570149025   -1.3020476413
 C    1.7048199563    0.7081698433   -1.4053028598
 H   -0.4472591333    2.0552296067    0.8458417520
 H   -0.4903853339    2.0599800462   -0.9516661570
 H    2.1640544179    2.1812580852    0.2634827563
 H    1.8873000607   -0.6539190062    0.9758638406
 H    0.9501663587    0.5205014404    1.9549593232
 H   -1.1913894160   -1.7769461795    0.3996600553
 H   -2.1665175348   -0.3117616655    0.5709572972
 H   -1.8625501032   -1.8369641408   -1.8578807832
 H   -2.4894792387   -0.1786799116   -1.8123800778
 H    1.0046986820   -1.3764937460   -1.2572477044
 H    1.5382229573    1.4007734736   -2.2347157395
 H    2.6964863169    0.2622490234   -1.5196947525