20

 C   -0.1695960005    1.3087062311    0.0371435481
 O   -0.0378423008   -0.0918383243    0.0501985132
 C    0.5612889951   -0.5960737248   -1.1199289204
 C    0.6213929670   -2.1044275384   -1.0374759101
 O   -0.7139312022   -2.6092753683   -1.1595288187
 C   -0.8570832760   -3.9440975666   -1.1012816352
 N    0.1158157684   -4.7390725453   -0.9387064338
 C   -2.3233753216   -4.3176197920   -1.2617037771
 O   -2.5626804039   -5.6854011639   -1.0091361455
 H    0.8075393293    1.8121413110   -0.0428356616
 H   -0.8000691973    1.6528642370   -0.7981434732
 H   -0.6404083331    1.6018270999    0.9785314272
 H   -0.0076630014   -0.2932013282   -2.0147651524
 H    1.5885692147   -0.2082681435   -1.2338474597
 H    1.2438818648   -2.5131752750   -1.8404445303
 H    1.0490222697   -2.4252444301   -0.0828594081
 H   -0.2415139229   -5.6949692676   -0.9552618776
 H   -2.9294072018   -3.6554877083   -0.6283060262
 H   -2.6253183189   -4.1305106999   -2.2979495525
 H   -2.4751721185   -5.8306709228   -0.0612560959