14

 C    0.0015646116    1.4767329412    0.0687299391
 C   -0.0025192956   -0.0116081821   -0.0280109474
 N   -0.0600615324   -0.7135848042   -1.1451423364
 C   -0.0405065592   -2.0275606186   -0.7667649679
 C    0.0301393029   -2.1445895345    0.6065327926
 N    0.0533542852   -0.8314856007    1.0588041102
 C    0.0746786308   -3.2543854289    1.4681593046
 C    0.1130873305   -4.2018048420    2.2125380181
 H    0.9072098492    1.8502746480    0.5600989139
 H   -0.0407382068    1.8902359322   -0.9393442804
 H   -0.8601704767    1.8502351206    0.6337242034
 H   -0.0773610217   -2.8305440309   -1.4864726058
 H    0.1030418173   -0.5554870061    2.0256246099
 H    0.1464645148   -5.0432041140    2.8590279661