19

 C    0.0297366714    1.5762873508    0.0063062833
 O    1.3816843771    1.9945067615   -0.2187882916
 C    2.0108599298    0.9904279634   -0.9804744392
 C    2.5896044346   -0.2124635118   -0.2759135580
 C    2.7266141259   -0.3808632148    1.2266335684
 C    1.4612731931    0.0050382496    2.0054854235
 O    0.2733185926   -0.4674176430    1.3814211133
 C    0.0697440375    0.0381213070    0.0688619476
 C    1.2111059810   -0.2815783940   -0.9080652136
 H   -0.3294373265    2.0340783894    0.9319034116
 H   -0.6108377396    1.9045451367   -0.8260281321
 H    2.4681244548    1.3521588106   -1.8968257421
 H    3.3725531141   -0.7091478940   -0.8447702525
 H    2.9483974642   -1.4376724778    1.4176699078
 H    3.5754274732    0.1979501729    1.6095055736
 H    1.4731620627   -0.4569083016    2.9966598619
 H    1.4196610110    1.0922881780    2.1444587347
 H   -0.8747721279   -0.4030021778   -0.2574011229
 H    1.0155825711   -0.9156010849   -1.7638186935