20

 C    0.4376675758    1.4775251494    0.1820961302
 C   -0.1588804360    0.1031688119   -0.1409325988
 C    0.4972062145   -0.5475760360   -1.3419862866
 C    1.8082008278   -1.3059137066   -1.1948554331
 C    0.5267995981   -2.0400784257   -1.5038475080
 O   -0.0828002801   -2.7820635270   -0.4886412020
 C    0.3149351376   -2.6359712411   -2.8941181709
 C    0.8988263652   -3.9758418764   -2.9855562386
 N    1.3653209979   -5.0332221184   -3.0015224981
 H    1.5070357450    1.4014129515    0.4051731188
 H    0.3242442635    2.1694244081   -0.6599179168
 H   -0.0564287060    1.9258248210    1.0494336382
 H   -0.0650347489   -0.5641665652    0.7206114940
 H   -1.2349907704    0.2042376446   -0.3306984986
 H    0.3889601398    0.0140102310   -2.2682848122
 H    2.5679395454   -1.2135547995   -1.9637951048
 H    2.1937434274   -1.4246702664   -0.1875008906
 H    0.4240555358   -3.5936517596   -0.3639417489
 H   -0.7584487129   -2.7075140007   -3.1033043613
 H    0.7619503006   -1.9972255949   -3.6624154221