23

 C   -0.1469675766    1.6004571855   -0.2934214264
 C    0.0194621953    0.0817634778   -0.1785788678
 C   -1.2656874798   -0.5900007876    0.2831323752
 O   -2.3378454682   -0.4377863735   -0.6812195762
 C   -2.3729904431   -1.8570080733   -0.9395975334
 C   -1.3909884398   -2.1435007870    0.2201651015
 C   -0.1570689958   -2.9794488933   -0.0993621968
 C   -2.1138623248   -2.6743835632    1.4550837620
 O   -2.5195933412   -4.0107139842    1.1956268001
 H    0.7668970057    2.0727891905   -0.6656611505
 H   -0.9625820056    1.8405104435   -0.9811826014
 H   -0.3839846045    2.0479418066    0.6784259134
 H    0.3184734126   -0.3297621861   -1.1491601920
 H    0.8205950244   -0.1614311013    0.5318490632
 H   -1.5637002373   -0.1637802143    1.2542012600
 H   -3.3793626944   -2.2769046514   -0.8355446986
 H   -1.9867197759   -2.1002528380   -1.9383834122
 H    0.3381991084   -2.6436483323   -1.0140150676
 H    0.5733977764   -2.9346342347    0.7167401416
 H   -0.4433974046   -4.0264248148   -0.2286805629
 H   -1.4375188885   -2.6232948145    2.3251687395
 H   -2.9820788547   -2.0324723340    1.6702786203
 H   -3.0126429378   -4.3317096503    1.9558538290