23

 C   -0.4762785760    1.5140193586    0.0185689196
 C   -0.0472212536    0.0395215211    0.0121815012
 C    0.5970998091   -0.3836874618   -1.3308350418
 C    1.7847816007    0.4690980600   -1.8083558485
 C    3.0146001542    0.4775874850   -0.8982794481
 O    2.7587004175    1.0281932597    0.3913255107
 C    2.2737545039    0.0838069190    1.2977392216
 C    1.2736253598    0.5575109793    2.3039150757
 C    0.8412705881   -0.3791509520    1.1892656474
 H    0.3819725894    2.1900993770    0.0089727288
 H   -1.0909722047    1.7348309246   -0.8611549386
 H   -1.0743056467    1.7411046411    0.9061783375
 H   -0.9684688211   -0.5505744421    0.1062780442
 H    0.9139124763   -1.4324269229   -1.2506507800
 H   -0.1742765251   -0.3575604544   -2.1114624508
 H    2.1067745993    0.1041681568   -2.7931180332
 H    1.4613858691    1.5053497804   -1.9600870977
 H    3.4262960352   -0.5387024691   -0.7964170870
 H    3.7945318287    1.1051179832   -1.3437384126
 H    3.0243594277   -0.6434532661    1.6127213199
 H    1.3318854784    0.1743962072    3.3167747191
 H    0.9810708818    1.5981758724    2.2323542711
 H    0.6854711481   -1.4119702770    1.4923840214