21

 C   -0.1973727779    1.4132285365    0.4399024856
 C   -0.1403460487   -0.0637952381    0.0390687100
 C    0.5896301823   -0.3824928355   -1.2673439359
 C    0.7260164681   -1.8929778921   -1.4696946087
 C    1.5803681420   -2.3425025500   -2.6586110347
 C    0.2057754136    0.4598243244   -2.5087722736
 C    1.6181714742    1.0205230853   -2.3776472072
 O    2.3106028420    1.8096724151   -2.9366889299
 O    1.9320965146    0.2640085980   -1.2803953119
 H    0.8073127455    1.8343457270    0.5262712796
 H   -0.7601671859    2.0203098436   -0.2758933654
 H   -0.6915081920    1.5179201947    1.4099442946
 H    0.3515782162   -0.6304471883    0.8390620649
 H   -1.1557914306   -0.4720792351   -0.0437848226
 H    1.1493848084   -2.3125897734   -0.5489563204
 H   -0.2872834406   -2.3060051870   -1.5552421835
 H    1.6530925915   -3.4336343949   -2.6745942957
 H    1.1572680915   -2.0333955653   -3.6193834537
 H    2.5931794670   -1.9382791845   -2.5877614749
 H    0.0266109591   -0.0895573414   -3.4333972172
 H   -0.5836766302    1.1990563513   -2.3703541795