25

 C   -1.6177405509   -0.3602941918   -0.2666244825
 C   -0.1184281176   -0.1175945787   -0.0644364131
 C    0.7871608882   -0.6011600874   -1.2168124940
 C    2.2624891040   -0.2198365203   -0.9820470841
 C    2.5559294461    1.2765116099   -0.9912960032
 O    3.9673429851    1.4345299782   -0.9252949200
 C    0.6736655089   -2.1029085932   -1.4351033772
 C   -0.3496204504   -2.6973154891   -2.3710621632
 C    1.1129234347   -2.7236189516   -2.7374451231
 H   -1.9767959613    0.1193056958   -1.1845015351
 H   -1.8509269802   -1.4257517148   -0.3374931962
 H   -2.1928998697    0.0537059160    0.5678745352
 H    0.0420444996    0.9555054303    0.0912712257
 H    0.2089053430   -0.6067463856    0.8638896433
 H    0.4526669213   -0.1066617076   -2.1428277856
 H    2.6088667318   -0.6409799949   -0.0291477799
 H    2.8797562793   -0.6767711972   -1.7633431291
 H    2.1487709700    1.7271681756   -1.9125533595
 H    2.0690593635    1.7782039835   -0.1417105625
 H    4.1614488831    2.3750715599   -0.8779926448
 H    0.8906361343   -2.6895140168   -0.5438938321
 H   -0.8308427324   -3.6287075879   -2.0922912273
 H   -0.9924335475   -2.0149689985   -2.9172188458
 H    1.4461485120   -2.0578337457   -3.5277291495
 H    1.6369986052   -3.6725750583   -2.7111223264