18

 C   -0.0205392977    1.3900060003   -0.0944268080
 N    0.0261966442   -0.0545703585   -0.0565947829
 C    0.5154144405   -0.6713731550    0.9472042659
 C    1.1133118191   -0.0211803290    2.1108106556
 N    1.5973287627    0.5122264945    3.0156024789
 N    0.4949618033   -2.0355310995    1.0377482353
 C    0.2540430999   -2.9482660190   -0.0857373504
 C    1.0621789125   -4.0334273033    0.6788260281
 C    1.4467350445   -2.9368219685    1.7121010426
 H    0.4844034503    1.7416263335   -1.0016519799
 H   -1.0646079852    1.7174119710   -0.1697662855
 H    0.4357970889    1.8877251132    0.7726059763
 H   -0.8036812484   -3.1534849667   -0.2727514305
 H    0.7118278868   -2.5970313911   -1.0177161548
 H    0.4452220968   -4.8297250766    1.0963033777
 H    1.8953800907   -4.4739924102    0.1321403047
 H    2.4891089202   -2.6033195692    1.6481645599
 H    1.2040507908   -3.1400579460    2.7590515071