16

 C   -0.0135990511    1.5630256182   -0.0670473888
 C    0.0643752863    0.0553915815    0.0724891684
 O    0.8499224395   -0.5072724963   -0.9861617230
 C    1.4438271636   -1.6673827574   -0.4666498686
 O    1.6464369704   -1.4228359578    0.9352133203
 C    0.7916654808   -0.4250342821    1.3153062740
 N    0.6420545937    0.0217464069    2.4821113629
 C    0.6198154767   -2.8689588504   -0.6563983253
 C   -0.0480507782   -3.8508452569   -0.8346406759
 H    0.9899888964    1.9939463102   -0.1039685315
 H   -0.5515849815    1.8360252481   -0.9781463418
 H   -0.5390433417    1.9734009000    0.7983654955
 H   -0.9438492670   -0.3858248713    0.0621263393
 H    2.4256883692   -1.7923208074   -0.9322965560
 H    1.2324266358   -0.4763989557    3.1493804007
 H   -0.6379751231   -4.7209329595   -0.9903123602