23

 C   -0.0333995194    1.6336107496   -0.0181505666
 C    1.4984618931    1.3900319411    0.0116736261
 C    1.1686766421    0.1605565982    0.9255236007
 C   -0.0734707585    0.0727420910   -0.0000971247
 C   -1.3574778770   -0.7311803823    0.0528173071
 C   -1.8074632568   -0.8143869178   -1.4476612464
 C   -0.6194985038   -0.2838885863   -2.3181038036
 C    0.5742502106   -0.2868217147   -1.3549953539
 C    1.7268823094    0.7588417623   -1.3855729245
 H   -0.4147305393    2.0606760536    0.9133194629
 H   -0.4555222754    2.1693208447   -0.8736091325
 H    2.1949980485    2.1649261307    0.3348280298
 H    1.8616512720   -0.6875388240    0.9297954889
 H    0.9383780519    0.4645636728    1.9500267078
 H   -1.1599237202   -1.7357580289    0.4444588303
 H   -2.1231681156   -0.2840173785    0.6935844118
 H   -2.0559931571   -1.8458928462   -1.7132702780
 H   -2.7116580090   -0.2254384986   -1.6248073147
 H   -0.4572073077   -0.8977413347   -3.2086085267
 H   -0.8286807763    0.7318443935   -2.6699777595
 H    0.9816392997   -1.3045861396   -1.3016254597
 H    1.6180800067    1.4991036352   -2.1854492931
 H    2.7135364921    0.2979279289   -1.4897953316