18

 C   -0.2049801689    1.5775080359   -0.0912668536
 C   -0.0833857878    0.0517333701   -0.0513381389
 C    0.9029261191   -0.4786768638   -1.1602640571
 N    1.9590386571   -0.5030499593   -0.0871089132
 C    0.9735882932   -0.4802593660    0.8769330251
 C    0.5376591946   -0.9773988553    2.0490903466
 C   -0.9419605402   -0.9895122269    1.9684570529
 O   -1.7291947030   -1.3345552514    2.8193390752
 C   -1.3447936369   -0.6294018762    0.4932045946
 H    0.7673772849    2.0500508949   -0.2583365438
 H   -0.8793590727    1.8826935498   -0.8987733360
 H   -0.6128026736    1.9556925304    0.8510895807
 H    0.6588502951   -1.4805965747   -1.5277716894
 H    1.1282747594    0.1911335925   -1.9939324681
 H    2.7104867410   -1.1812581554   -0.0711535924
 H    1.0873759994   -1.4615811857    2.8431131416
 H   -2.2485403141   -0.0162704855    0.4645444624
 H   -1.5645393268   -1.5753423536   -0.0136370566