19

 C   -0.2020196974    1.4719640798    0.0335795352
 C    0.0456934939   -0.0382038860    0.0007508000
 C    0.7195467656   -0.4361340331   -1.3270395664
 N    0.6199916006   -1.8545024866   -1.6002525834
 C    0.9466541131   -2.8383768000   -0.7153213465
 C    1.2262524801   -2.7736601838    0.6058502831
 C    1.3015747792   -1.6432564403    1.5396785084
 O    1.7484484948   -1.7893865454    2.6709730752
 N    0.8720840766   -0.3904293451    1.1404937387
 H    0.7385725088    2.0224327967   -0.0769449543
 H   -0.8763695707    1.7730428336   -0.7724736063
 H   -0.6603894886    1.7678765740    0.9822342510
 H   -0.9242231344   -0.5565788773    0.0421806932
 H    0.2248057089    0.0853421032   -2.1521966689
 H    1.7662510291   -0.0987939229   -1.2909587924
 H    0.5799809132   -2.1218254559   -2.5681292185
 H    0.9560326518   -3.8222058247   -1.1781793559
 H    1.4702567106   -3.7099380554    1.0917015634
 H    0.9169390147    0.2745298493    1.8988456444