16

 C   -0.1490656110    1.6025721690    0.0111765681
 C   -0.0453063758    0.0862628931    0.0066838558
 C    1.1597759451   -0.5905627516   -0.6877752012
 C    2.1120233163   -0.3615809922    0.5309688199
 O    2.5309245673   -1.7479182824    0.6199420623
 C    1.1237728352   -1.8208555497    0.2697746875
 C    0.6948324652   -0.6109259791    1.1797938900
 C    0.3623113553   -0.6366135773    2.5757951708
 N    0.0808320353   -0.6443109692    3.6979203670
 H    0.8125231358    2.0754310121    0.2363067428
 H   -0.4819076376    1.9697407127   -0.9650149857
 H   -0.8725574783    1.9424123950    0.7589869541
 H   -1.0096872967   -0.3768704323   -0.2274973137
 H    1.4489656324   -0.6001939509   -1.7369568816
 H    2.8378593746    0.4208725722    0.7429886834
 H    0.6481376468   -2.7944016494    0.1631531205