19

 C    0.3746623886    1.1018683046    0.3007124191
 O   -0.3009706893   -0.0336295201    0.8358223441
 C   -1.4477035275   -0.4829257137    0.2218579425
 C   -1.3933459458   -1.9800349369    0.0736026504
 C   -2.6867941045   -2.6052873819   -0.4256970557
 O   -2.4684173173   -4.0093489018   -0.4924467078
 N   -2.4553875926    0.1833957282   -0.1486858819
 C   -2.5973421910    1.6026418380    0.1230870455
 H    1.4319539640    0.9742210249    0.5456990106
 H    0.2641240231    1.1495740277   -0.7878615154
 H    0.0209862013    2.0412916700    0.7358359463
 H   -0.5694367588   -2.2432125436   -0.6017844404
 H   -1.1216657840   -2.4114885556    1.0447021713
 H   -3.5083020565   -2.3530941454    0.2596386857
 H   -2.9470775176   -2.1859685796   -1.4069853732
 H   -3.2751306704   -4.4183038613   -0.8178244026
 H   -2.1657619148    1.9055855362    1.0854579984
 H   -2.1417259524    2.2155987391   -0.6645055755
 H   -3.6639752445    1.8454104215    0.1385359184