20

 O    0.0337239539    1.3098560105   -0.4631187845
 C    0.0116570775    0.1345535859    0.3282431123
 C   -1.3532154766   -0.5107516889    0.3057287543
 N   -1.7063031348   -1.1195280121   -1.0003700035
 C   -1.5677959243   -1.9716912972    0.1729922518
 C   -0.5837151409   -3.1305952716    0.3756527484
 C   -1.5362211725   -3.6661639411    1.4857788834
 C   -2.6623409968   -2.7552282736    0.9150574652
 O   -3.5542340887   -2.0861140737    1.7675386136
 H   -0.2695338964    1.0404036479   -1.3385553046
 H    0.7665415896   -0.5896326910   -0.0124681508
 H    0.2766123661    0.4414968786    1.3460659448
 H   -2.1402545703    0.0517790908    0.8063834808
 H   -2.6925575661   -0.9689137343   -1.2038054535
 H   -0.5470868375   -3.7854510929   -0.4992209449
 H    0.4373237634   -2.8842933589    0.6715547391
 H   -1.7291368745   -4.7394604042    1.5237538227
 H   -1.2283753170   -3.3265044137    2.4800638786
 H   -3.2910283395   -3.3075315954    0.2072962923
 H   -3.0343214046   -1.6205564452    2.4320255645