13

 O    0.0602161696   -0.0452115870   -0.1876807506
 C    0.0596635515    1.1423008994   -0.2132538862
 O    1.1338705649    1.8697931653    0.2264408985
 C    1.0145874484    3.2424185379    0.1549021734
 C    1.1594002362    4.0542570821   -1.1437175068
 C    2.0701811350    4.3000361066    0.0066798474
 O    1.3898374902    5.1535765348    0.9699157804
 C    0.4596475666    4.1532316534    1.2345195028
 O   -0.3847224289    4.1322673737    2.0634695276
 H   -0.7629720348    1.7819117523   -0.5772941954
 H    1.5777820809    3.4678098792   -1.9572179754
 H    0.4230206300    4.8004312390   -1.4232392223
 H    3.1477258404    4.2483595533    0.0501843366