18

 C    2.0263374644    0.2892193165   -1.9759684772
 N    2.3997017319   -0.8369974018   -1.1396090577
 C    3.7709870205   -0.9961733496   -0.6038561004
 C    3.2069726032   -1.2734969816    0.7953150935
 C    2.3887788267   -0.1320924073    1.2977473273
 N    2.7975351138    1.2360984408    1.2109078642
 C    1.8075204390   -1.0195213482    0.1786847099
 C    0.5773992913   -1.7300885832    0.3417831209
 N   -0.4356613771   -2.2724925066    0.4862898143
 H    2.2743380168    1.2783798993   -1.5588016549
 H    2.5212534673    0.1940977525   -2.9478500569
 H    0.9464861730    0.2546623368   -2.1492755240
 H    4.2897514425   -1.8510306369   -1.0487664482
 H    4.4223126922   -0.1150676701   -0.6926544230
 H    3.5059573604   -2.1019661239    1.4230120954
 H    1.9119657716   -0.3631494167    2.2490390482
 H    3.4399238259    1.4027086578    0.4473695284
 H    2.0049478565    1.8581256921    1.0964867902