23

 C   -0.0078213367    1.6101236487    0.0117237405
 C    0.0525163173    0.0872928075   -0.0517815505
 C    1.2352444770   -0.5367398246   -0.8583402462
 C    1.3976649666   -1.6058258320    0.2648044189
 C    0.6324531182   -0.6248031322    1.2094518729
 C    0.6427159485   -2.8858377380    0.0281862115
 C   -0.5589523025   -2.9893629697   -0.5423432619
 C   -1.3801637175   -1.8659883003   -1.1335514364
 C   -1.3299095748   -0.4827541434   -0.4475187264
 H    0.9424966975    2.0313612520    0.3568072780
 H   -0.2287827387    2.0396400179   -0.9728484055
 H   -0.7915411928    1.9468954582    0.7013142361
 H    1.0450656620   -0.8937292758   -1.8730937046
 H    2.0941457059    0.1408349577   -0.8837860600
 H    2.4271381771   -1.8283554729    0.5545588104
 H    1.3190363109    0.0294563837    1.7565237466
 H   -0.0776789264   -1.0690838883    1.9118803392
 H    1.1190740229   -3.7951964427    0.3881129631
 H   -0.9932966045   -3.9820951421   -0.6414831052
 H   -1.0930617024   -1.7481861210   -2.1888204275
 H   -2.4301827923   -2.1794603095   -1.1672664655
 H   -1.9518695387   -0.5071688156    0.4568597722
 H   -1.8195195466    0.2252234827   -1.1283266198