16

 O   -0.3217443255    1.4453135177    0.4167374323
 C   -0.0802114847    0.0734447868    0.1834818567
 C   -1.3653129575   -0.6868662764   -0.1373126906
 O   -2.2715972268   -0.7257612752    0.9442696360
 C   -3.2734566163    0.2460443787    0.7116182323
 C   -3.3641807954    0.2481963055   -0.8251192041
 O   -2.0233994334   -0.0022277902   -1.2145186914
 C   -4.2788453638   -0.7881270760   -1.3436901648
 N   -5.0060993483   -1.5879525041   -1.7507326743
 H   -0.6607560078    1.8037966461   -0.4111685612
 H    0.6389765523   -0.0888545292   -0.6341935492
 H    0.3475616997   -0.3422878818    1.1002119293
 H   -1.1469633316   -1.7239866957   -0.4255828085
 H   -4.1928031554   -0.0686490295    1.2078607705
 H   -2.9648012375    1.2359162129    1.0665541429
 H   -3.6675109681    1.2173481806   -1.2311220759