17

 O    0.0257276405    0.0374302554   -0.3244983276
 C   -0.0138925465    1.1873168194    0.0075203593
 C   -1.3169205979    1.9984845534    0.3066963587
 C   -0.8423747837    3.2577450634    0.9739820288
 C   -0.0342700051    3.1897529337    2.2576071252
 C    0.6839742657    3.2879795677    0.9539148487
 C    1.2340440020    2.1054245403    0.2224071519
 O    0.7407911979    4.6339593520    0.4656527367
 C   -0.7147662673    4.6559705436    0.3655744364
 H   -1.8070488651    2.2057689140   -0.6526113116
 H   -2.0036514050    1.3731088530    0.8847352784
 H   -0.0213134660    4.0458144313    2.9247279643
 H   -0.0203242314    2.2245904619    2.7550866997
 H    2.0260212612    1.5401575031    0.7201134293
 H    1.6075527400    2.4085566324   -0.7626681159
 H   -1.0295599292    4.7010914452   -0.6840441868
 H   -1.1522880101    5.4971613303    0.9158958045