13

 O   -0.0226162953    1.3407144973    0.0096132991
 C    1.1534976836    2.0258095152    0.0019887725
 N    2.3320502096    1.5233412834   -0.0121648074
 C    2.4017953232    0.1591809494   -0.0203090080
 N    3.4893238594   -0.5699626249   -0.0348353998
 C    3.0246855073   -1.8827723393   -0.0375170983
 C    1.6554264284   -2.0117070039   -0.0249749142
 C    1.1781005484   -0.6671059514   -0.0129974483
 C   -0.0015997721   -0.0105190668    0.0020094446
 H    0.9698133329    3.0930343747    0.0096079641
 H    3.7462721373   -2.6902175784   -0.0489205284
 H    1.0747155469   -2.9209138338   -0.0243322477
 H   -1.0006071996   -0.4288026016    0.0093827518