21

 C   -0.2323059075    1.3590370171   -0.0946821635
 O   -0.1568338400   -0.0457602746   -0.0802524617
 C    0.7299448716   -0.5569087962   -1.0530053950
 C    0.7532123970   -2.0535140385   -0.9448791924
 C    1.0698577992   -2.7321734653    0.3778305788
 C    1.2704660941   -4.2196825019   -0.0007131067
 C    1.7656175644   -4.2099701482   -1.4680660906
 C    1.1582497955   -2.9443985558   -2.0416711798
 O   -0.2288035700   -2.7724286592   -1.7160651366
 H    0.7470544555    1.8234789602    0.1052739338
 H   -0.5995032988    1.7391121021   -1.0611567202
 H   -0.9313780521    1.6571585948    0.6902582285
 H    0.4132978998   -0.2660728153   -2.0670651500
 H    1.7466039176   -0.1560824965   -0.8891754888
 H    1.9892496435   -2.2937416479    0.7863964152
 H    0.2804323230   -2.5821702418    1.1180582487
 H    1.9621303195   -4.7335674248    0.6709457650
 H    0.3117796160   -4.7392792337    0.0532812455
 H    2.8588848071   -4.1337424620   -1.5260892119
 H    1.4703415162   -5.1080081047   -2.0194529088
 H    1.4542290983   -2.5759771379   -3.0219994993