22

 C   -0.0540099351    1.5195431813   -0.2714325731
 C   -0.0113663883    0.0410561748    0.1150814053
 O    0.6129615364   -0.1202009389    1.3915472443
 C   -1.3892108653   -0.6556956106    0.0827780239
 C   -2.1007073662   -0.5034797277   -1.2674086756
 C   -1.2187296724   -2.1408526993    0.4629590873
 N   -2.4752826534   -2.8298342963    0.7187399975
 C   -3.0187667425   -3.7432260284   -0.1284458427
 O   -2.5586804427   -4.0669023862   -1.2035058193
 H    0.9373561182    1.9603593564   -0.1365628576
 H   -0.3556540138    1.6633297779   -1.3118183922
 H   -0.7631249641    2.0690412299    0.3617346515
 H    0.6563351800   -0.4871996763   -0.5787588192
 H    0.1481984600    0.4493046505    2.0149673951
 H   -2.0076966801   -0.1777838341    0.8607526796
 H   -2.3707261212    0.5359981912   -1.4711142689
 H   -1.4651301534   -0.8586862784   -2.0864572611
 H   -3.0183099186   -1.0964120692   -1.2902320688
 H   -0.7331429991   -2.6815784910   -0.3543409288
 H   -0.5803946658   -2.2120515152    1.3469522383
 H   -2.9499092806   -2.6615790892    1.5915453881
 H   -3.9553882820   -4.1732002311    0.2810294865