18

 C   -0.3103744403    1.3346183960   -0.0741085875
 N    0.2725368070    0.0229641993    0.1188554961
 C    0.5373397558   -0.6489957221   -0.9065475178
 O    1.0729700165   -1.8948186371   -0.7857989053
 C    1.4090857505   -2.5372871675   -1.9653764806
 C    0.4177722251   -2.9389680577   -3.0364483836
 C    1.2610571009   -3.9819117309   -2.3500325336
 O    2.5689221431   -4.0330302091   -2.9234783485
 C    2.8369782373   -2.6702269926   -2.4886281512
 H    0.3306254294    2.0917108875    0.3911745723
 H   -0.4604721793    1.6089384077   -1.1310097006
 H   -1.2794053216    1.3824255547    0.4351839285
 H    0.3689360312   -0.3345827470   -1.9461622575
 H   -0.6162633360   -2.9137745113   -2.7054363476
 H    0.5849885569   -2.7019918701   -4.0837518251
 H    0.8850655647   -4.8547545833   -1.8312959988
 H    3.1530731801   -2.0195423386   -3.3116593659
 H    3.5802418488   -2.6586389078   -1.6843392930