19

 C    0.0184902455    1.5260092602   -0.0480441826
 C   -0.0446179447   -0.0064555543   -0.0139790715
 C   -1.4501634496   -0.5377656091    0.0201858146
 C   -2.6408107199   -0.2777604388   -0.9893971866
 C   -3.2869804620   -1.2490493724    0.0606953018
 C   -1.9325264739   -2.0476694737    0.0228620317
 O   -1.6215679077   -2.8855470638   -1.0502906824
 C   -2.5510862860   -0.3624679600    1.0733413299
 O   -2.7396348988    0.1988240688    2.1100433380
 H    1.0552840466    1.8743726484   -0.0491372711
 H   -0.4678201592    1.9233484704   -0.9452175830
 H   -0.4835623063    1.9548661938    0.8244411063
 H    0.4786397717   -0.4288080180   -0.8814380050
 H    0.4851745046   -0.3780349031    0.8722395316
 H   -3.0414411062    0.7352883834   -1.0454893926
 H   -2.5036000680   -0.6804034099   -1.9958214037
 H   -4.3021201979   -1.6373160741    0.0794171865
 H   -1.6885570069   -2.6187495039    0.9208097810
 H   -1.8813217813   -2.4725907640   -1.8799376028