14

 O    0.0561250698    1.4311775409    0.1555178729
 C   -0.0249134877    0.0343754186    0.0435349597
 C   -1.4802348290   -0.4652121691   -0.0998518954
 C   -1.4260289602   -1.3974707436   -1.2845231740
 C   -0.2515086270   -1.3919187743   -1.9303816809
 C    0.6575450774   -0.4323157380   -1.2904903434
 O    1.6979942420    0.0403026839   -1.6746232380
 C    0.6524033691   -0.6375300907    1.1724864370
 N    1.1912784627   -1.1654787753    2.0482865614
 H    0.9272080821    1.6782962106   -0.1915456230
 H   -1.8604892060   -0.9566160252    0.7995403656
 H   -2.1267306340    0.3963328201   -0.3009040986
 H   -2.2883883082   -1.9876121324   -1.5745454250
 H    0.0055982390   -1.9400709255   -2.8266005783