23

 C    0.1071473385    1.5298869857    0.1415994215
 C    0.0081322155    0.0033933911    0.1479589099
 O    0.4776010576   -0.5375005546    1.3799087755
 C   -1.4093006873   -0.4845104278   -0.1943262964
 C   -1.5180778622   -1.9910220784   -0.2883607297
 C   -1.8658277738   -2.8541344838    0.9109040372
 C   -2.8200962094   -2.7413641823   -0.2551480084
 C   -4.1561599459   -2.0496109782   -0.1027376374
 O   -2.8497522416   -3.8207596936   -1.1602785958
 H    1.1200105782    1.8437473041    0.4076710447
 H   -0.1387818860    1.9419796384   -0.8425368195
 H   -0.5882092539    1.9679256643    0.8691638322
 H    0.7030852605   -0.3989834342   -0.6003517339
 H   -0.1013224067   -0.2146678380    2.0794017075
 H   -2.1029942558   -0.0935888026    0.5634562615
 H   -1.7101847384   -0.0265468383   -1.1465680230
 H   -0.7974977470   -2.4441757468   -0.9647488000
 H   -1.3268273267   -3.7865585418    1.0347683211
 H   -2.1272397423   -2.3535686804    1.8384682487
 H   -4.1031001413   -1.2001108701    0.5829354128
 H   -4.5171071431   -1.6912947914   -1.0724540697
 H   -4.9038857599   -2.7461887659    0.2970205840
 H   -3.3869465292   -4.5175541557   -0.7662231329