20

 C   -0.0308450403    1.5146426561   -0.0683991740
 C    0.0408113407   -0.0083870970    0.1002184987
 C    0.7233545191   -0.3853997514    1.4230660303
 C   -1.3606777454   -0.6232941797   -0.0047404485
 C   -1.3865621546   -2.1196134902   -0.1889188060
 O   -0.4115111792   -2.8098701018   -0.3927522368
 C   -2.7913724161   -2.7748242489   -0.1289498176
 N   -2.7397190819   -4.1065743262   -0.3486972030
 O   -3.7940510879   -2.1228754656    0.0921218944
 H    0.9674484945    1.9609920814   -0.0171174276
 H   -0.4741683166    1.7923618910   -1.0306230168
 H   -0.6387226765    1.9705159112    0.7222058844
 H    0.6429134781   -0.4218863722   -0.7183048824
 H    0.8127137779   -1.4691047102    1.5315795601
 H    1.7305832073    0.0403891033    1.4750526222
 H    0.1562577398    0.0009009166    2.2789071003
 H   -1.9875620075   -0.3777648801    0.8620142932
 H   -1.9169970350   -0.2044213501   -0.8565198927
 H   -1.8432090072   -4.5361636478   -0.5105919653
 H   -3.5826907895   -4.6544600085   -0.3283606730