19

 C    0.0015357512    1.4762820205    0.0883012126
 C    0.0026616303   -0.0306067383   -0.0278667390
 C    0.7029920704   -0.7009383156   -1.2338091507
 C    0.4382161901   -2.1254842430   -0.6772961599
 C    1.0307848320   -1.9562146803    0.7323446269
 O    0.7059086939   -0.5978611532    1.0830297941
 C   -1.1030020190   -2.0844501412   -0.5600006299
 O   -1.6078711512   -1.8114843026    0.7540595983
 C   -1.4013789219   -0.7107457683   -0.1324157306
 H    1.0228785591    1.8653162447    0.0614937415
 H   -0.5643168209    1.9268033737   -0.7332246655
 H   -0.4569041869    1.7844439361    1.0325669234
 H    0.1959447198   -0.5163405451   -2.1850870721
 H    1.7608818454   -0.4334024739   -1.3177709002
 H    0.8367239724   -2.9673655599   -1.2431860375
 H    0.5911476717   -2.6375373526    1.4647058957
 H    2.1213457934   -2.0808029504    0.7253996427
 H   -1.7398499046   -2.6919877455   -1.1959980162
 H   -2.2877694250   -0.1425672252   -0.4033971536