16

 O    0.0208863920   -0.1000536649    0.0413782362
 C   -0.0079414034    1.1020026567    0.1626074893
 C   -1.3176868467    1.8593267696    0.3608752082
 N   -1.1128416199    3.1733959954    0.9704888127
 C    0.1710366246    3.7674354946    0.7392430464
 C    1.0819162500    3.4046286798   -0.4942144975
 O    2.2462537122    3.8273535805    0.2989145794
 C    1.4381353938    3.0138146849    1.2201170298
 C    1.2245394153    1.9626269547    0.0833351969
 H   -1.7640125877    1.9263375299   -0.6472177767
 H   -1.9893973712    1.2414915996    0.9643395892
 H   -1.8600210476    3.8114203373    0.7324671629
 H    0.1742635236    4.8285513675    0.9888264636
 H    1.0437290064    3.7118238046   -1.5400464511
 H    1.8181772974    2.8427930032    2.2271630540
 H    2.1148954810    1.4101027466   -0.2158858434