19

 C    0.0849222556    1.4203808410   -0.3811238289
 C    0.0548953922   -0.0464777465   -0.0184507559
 O    0.1746680714   -0.4910085234    1.0971417221
 O   -0.1288517257   -0.8039789393   -1.1167942320
 C   -0.2080380838   -2.2474916009   -0.9009329662
 C   -0.7325570089   -2.8956584469   -2.1964385038
 C    0.5065325199   -3.5024357740   -2.9024564494
 C    1.5516091231   -3.5079073877   -1.8145588005
 C    1.1650182193   -2.8443713938   -0.7262468680
 H    0.8816042834    1.6109448280   -1.1057118098
 H   -0.8585110022    1.7098484271   -0.8527704812
 H    0.2485412312    2.0132722251    0.5179363498
 H   -0.8586256170   -2.3999618698   -0.0372596013
 H   -1.4382139639   -3.6892641174   -1.9356826814
 H   -1.2679334580   -2.1660002349   -2.8070700445
 H    0.3064186961   -4.5054356115   -3.2956160086
 H    0.8392836944   -2.8998554845   -3.7579706372
 H    2.5145597627   -3.9923873588   -1.9380705061
 H    1.7424688601   -2.6872479918    0.1753733529