16

 O   -0.1250266641    1.4104354695   -0.0210533492
 C    0.0290097647    0.0523068884   -0.0510858656
 C    0.0690432627   -1.0063926800    1.0115250512
 C   -1.0286159304   -1.0244108900   -0.0741342517
 C   -0.2866604103   -1.8965464043   -1.1088406060
 O   -0.9633725037   -2.1278475245   -2.2912769379
 C    0.4972973308   -2.9466388681   -0.2861003306
 N    1.1856225840   -1.7887839209    0.3902990484
 C    0.9350701482   -0.9205423893   -0.8609856021
 H    0.6219744029    1.7929688676    0.4542550680
 H   -0.1209737030   -0.9760974436    2.0768589099
 H   -2.0880976717   -0.9671524268    0.1323407003
 H   -0.3792086213   -2.6054876751   -2.8900562752
 H   -0.0408612797   -3.6298621604    0.3772933337
 H    1.2272510223   -3.5003680538   -0.8869602778
 H    1.7638980985   -0.7176606789   -1.5378165753