16

 O   -0.1349020366    1.2614189739   -0.6272750765
 N    0.0396559820   -0.0606690069   -0.1902912314
 C   -1.0671851155   -0.5763468430    0.1634042259
 C   -1.1571565199   -2.0021968626    0.6678994296
 C   -2.5774130290   -2.4233853672    0.2453643666
 O   -3.1395311641   -3.4629660766    0.9881214766
 C   -3.3691072878   -1.1197223605    0.3843305219
 O   -4.5143520689   -1.0891237452    0.7598194771
 C   -2.4428140530    0.0524114876    0.0925382519
 H    0.7584339281    1.5126990213   -0.8860912210
 H   -0.3628690071   -2.6372059818    0.2748660193
 H   -1.1051386244   -2.0277435883    1.7645335208
 H   -2.5601485726   -2.6677848620   -0.8341525578
 H   -4.0450598448   -3.1811720836    1.1902340762
 H   -2.5910043470    0.8593766326    0.8179704052
 H   -2.6344394993    0.4892468322   -0.8945589243