19

 C   -0.3212473990    1.4736635082    0.0658584540
 C    0.0862331410    0.0162647586   -0.0188358975
 O    1.2903544432   -0.1883509133   -0.8014749555
 C    2.0376994521   -0.6174692417    0.3522587804
 C    0.7604635687   -0.6113050980    1.2326146344
 O    0.7628582091    0.2420712467    2.3471277761
 C    0.2313103814   -2.0010491316    1.5955907938
 C    1.0199507112   -2.6866026098    2.6847716172
 O    1.8698784888   -2.1477866063    3.3566838045
 H    0.4690607177    2.0770122824    0.5162981264
 H   -0.5303862391    1.8514305325   -0.9395920797
 H   -1.2247734317    1.5841584297    0.6738561580
 H   -0.7374701191   -0.5862027787   -0.4270883047
 H    2.5338179144   -1.5821181505    0.1892224289
 H    2.7791852408    0.1247816722    0.6716606311
 H    1.3276904711   -0.1832880868    3.0078850093
 H   -0.8088515375   -1.9302184273    1.9494390274
 H    0.2035223424   -2.6623194392    0.7194427075
 H    0.7651017545   -3.7546743672    2.8572785785