17

 N   -0.2729464642    0.9139811013   -0.6831088579
 C    0.0348742498    0.0380123388    0.1702978600
 O    1.2863375941   -0.4880398387    0.2923836566
 C    1.5269394220   -1.3887867237    1.3855879918
 C    0.9364492147   -2.7862155006    1.1288054092
 C   -0.3802569134   -2.7292688836    0.3383111666
 C   -1.3956394038   -1.7316369997    0.8888282334
 O   -0.8638289629   -0.4060092196    1.0819449444
 H    0.5560761534    1.1792837170   -1.2147117343
 H    2.6145124759   -1.4310369887    1.4754074570
 H    1.1198177426   -0.9561068475    2.3023035162
 H    1.6510123201   -3.4003329757    0.5712611931
 H    0.7851068851   -3.2780217089    2.0970642313
 H   -0.1620071810   -2.4741787545   -0.7044614750
 H   -0.8519935814   -3.7178375564    0.3188513101
 H   -2.2594305548   -1.6621311156    0.2163726021
 H   -1.7531765061   -2.0314074539    1.8784980455