19

 C   -0.5372043879    1.4395435162   -0.0618743757
 C    0.0856064353    0.0514416897   -0.0232541870
 C    1.4090248794   -0.1388574651   -0.8248988842
 N    2.0701827845   -0.5206662173    0.4215840368
 C    3.2492208479   -1.1563683899    0.5959004252
 O    4.0625081615   -1.3566005377   -0.2844761126
 C    0.8715286767   -0.3896885692    1.2680030229
 C    0.9988111687    0.5837951410    2.4326074218
 H    0.1929604963    2.2226323236    0.1646009733
 H   -0.9392973257    1.6444845937   -1.0597113063
 H   -1.3626658010    1.5306945939    0.6516767544
 H   -0.6652432503   -0.6941520166   -0.2950945139
 H    1.4092287250   -0.9337396002   -1.5774217202
 H    1.8167164409    0.7716669839   -1.2783323497
 H    3.4001408156   -1.4726093350    1.6494152660
 H    0.5263490193   -1.3610300205    1.6454132523
 H    1.3740473590    1.5569536215    2.1055788375
 H    0.0285418994    0.7286300486    2.9191987946
 H    1.6916650452    0.1922797996    3.1841128149