17

 O    0.1605311798    1.2656343230   -0.3156488534
 C    0.0657163848   -0.0939913493   -0.0097977929
 C    0.1823004571   -0.4381829874    1.5375425345
 C   -1.3658311751   -0.4569694132    1.6047726312
 N   -2.1375237760    0.8323395639    1.4866484717
 C   -2.7788615051   -0.0594327203    0.4685860358
 C   -2.5555846807   -1.4199090792    1.2596309079
 N   -1.8815795550   -2.0645395600    0.0825748302
 C   -1.4059994230   -0.6374357437    0.0610588373
 H   -0.5118596949    1.7102042477    0.2242425252
 H    0.7434871422   -0.6327727176   -0.6780127315
 H    0.6296094035   -1.4191344281    1.7190134990
 H    0.6851925599    0.3073255949    2.1570712278
 H   -2.7407221187    0.9890020676    2.2965747435
 H   -3.6423828755    0.2377057007   -0.1340502593
 H   -3.2555070882   -1.9640204893    1.9045254644
 H   -1.1363559152   -2.6822228597    0.4184051985