21

 C   -0.2318925631    1.3043372256   -0.0112092355
 C    1.2824311198    1.6492514595    0.1715590871
 C    1.6278368611    0.1525647946    0.0572391470
 C    0.1400571159   -0.1762797822   -0.1375394403
 C    1.1215054328   -0.3609189792   -1.2644507485
 C    2.6899953616   -0.5282477326    0.8692503271
 C    2.6980877446   -2.0751037206    0.8901722771
 O    3.9245518653   -2.1318634512    0.1372582748
 C    4.0794414415   -0.6992676473    0.1979106148
 H   -0.8156463301    1.5292813296    0.8840864367
 H   -0.7395635643    1.7443029169   -0.8761771389
 H    1.7371748877    2.3068975264   -0.5769386258
 H    1.4949593217    2.0563830976    1.1638730369
 H   -0.4328534680   -1.0090445817    0.2547710537
 H    1.0870586318    0.2955050924   -2.1321971688
 H    1.3792993030   -1.3882015645   -1.5017063711
 H    2.7351520870   -0.0786020526    1.8655035376
 H    2.8081472283   -2.5180729392    1.8887934934
 H    1.8711194456   -2.5784273145    0.3744805413
 H    4.1849334740   -0.2547830721   -0.7986073656
 H    4.9376589439   -0.4074047248    0.8173840768