17

 O   -0.1469712619    1.3904410047   -0.1977857563
 C   -0.1899927921   -0.0062494208   -0.1769635998
 C    0.5960933870   -0.7690360932    0.9649179486
 C   -0.7515391825   -1.3250691512    1.4419093208
 O   -1.5836653192   -0.1876567768    1.7222434275
 C   -1.4852409955   -0.6430331377    0.3588240126
 C   -1.0413991842   -2.6006032450    2.1429744191
 C   -1.7929258832   -2.6357015178    3.4068334760
 O   -2.4054035543   -3.0119607861    2.1719062772
 H   -0.5317508755    1.6814172457    0.6392510630
 H    0.0874640135   -0.3575164703   -1.1733654608
 H    1.2739971787   -1.5301319768    0.5701137724
 H    1.1242560400   -0.1375277317    1.6831256217
 H   -2.4124931830   -0.8996855120   -0.1396888926
 H   -0.3262619447   -3.3980336781    1.9369889731
 H   -1.6227559995   -3.4475710376    4.1122132643
 H   -2.1455146536   -1.6974066154    3.8281257134