18

 C    0.0193432347    1.5527888989    0.0110885567
 C   -0.0068176483    0.0240519499   -0.0355862435
 C    0.6965869913   -0.5677798675   -1.2742258669
 C    0.7283816215   -2.0370535604   -1.1755536085
 N    0.7675041552   -3.1879983874   -1.0848569407
 N    0.0044872455   -0.1906317972   -2.5097612181
 C    0.5628108022    0.9454744353   -3.2455840159
 C    0.7289318755   -0.4396549444   -3.7561263836
 H    1.0452041290    1.9377010605   -0.0102872332
 H   -0.5263693462    1.9892722198   -0.8291095007
 H   -0.4477237179    1.9096948044    0.9334532249
 H    0.4809714433   -0.3866483680    0.8551475029
 H   -1.0394001366   -0.3385919939   -0.0324581133
 H    1.7505760221   -0.2306559268   -1.2801265371
 H   -0.1667441022    1.6171894018   -3.6876260561
 H    1.4450302017    1.4353686524   -2.8376070558
 H    1.7214606200   -0.8810909908   -3.6903631456
 H    0.1227000093   -0.8055287465   -4.5785439156