23

 C    0.0936532145    1.5395675077    0.3227850997
 C   -0.0380678454    0.0148315123    0.3511644466
 C   -1.3382860720   -0.4891332276   -0.2913510764
 C   -1.4532379130   -2.0003657655   -0.2658354153
 C   -2.0348601206   -2.7230199392    0.9290334348
 C   -2.7619168281   -2.7471639578   -0.3917634094
 C   -4.0982135228   -2.0351193746   -0.5651282015
 C   -5.2322519555   -2.8720727563   -0.1825477621
 C   -6.1541955963   -3.5777256099    0.1286675944
 H    1.0298665619    1.8687461891    0.7842856252
 H    0.0774619798    1.9201104597   -0.7047325522
 H   -0.7301241171    2.0187397848    0.8638290673
 H    0.8176526409   -0.4380386824   -0.1667253794
 H    0.0106338013   -0.3441073872    1.3868708541
 H   -2.1892278944   -0.0337292209    0.2300142894
 H   -1.3893915011   -0.1298980332   -1.3290212924
 H   -0.6109073519   -2.4985777225   -0.7420717023
 H   -1.5625050820   -3.6313180309    1.2863207018
 H   -2.4635462458   -2.1093880423    1.7166318231
 H   -2.7126891541   -3.6830737943   -0.9411338563
 H   -4.1173724083   -1.1140764686    0.0286798367
 H   -4.2187713673   -1.7218485035   -1.6111119181
 H   -6.9731079824   -4.1935313368    0.4063775521