13

 C   -0.3923573639   -0.6902873947   -1.0550326162
 C   -0.1121911882    0.1439655060   -0.2369194528
 C    0.2562225066    1.1648857022    0.7379709350
 C    1.5295757360    1.8836879970    0.3901307710
 N    2.0944432247    2.8501458367    1.0925962074
 C    3.2017193177    3.1480608205    0.3570682410
 N    3.3579831978    2.4345736140   -0.7459767688
 N    2.2709644869    1.6275604638   -0.7046287554
 H   -0.6614628402   -1.4339989409   -1.7643557972
 H   -0.5485405284    1.9041201557    0.8339114495
 H    0.3678994821    0.7154112682    1.7323655994
 H    3.9105286683    3.9106936034    0.6431242457
 H    2.0989567906    0.9477091781   -1.4282267585