22

 C   -0.3372120227    1.4461838695   -0.0557079804
 C    0.0659649543   -0.0253331937   -0.0149398547
 C    1.0559751094   -0.4327537235   -1.1122441411
 O    1.6820889623   -1.6352887459   -0.6393300782
 C    1.5366170118   -1.7434466650    0.7147528526
 N    1.9882900453   -2.6982828555    1.4063924580
 C    0.7758603788   -0.5417590858    1.2680750981
 C    1.8107868741    0.4561994727    1.8314699085
 C   -0.2002507032   -0.9596403680    2.3709590155
 H    0.5307251179    2.1084592093    0.0168111278
 H   -0.8543135303    1.6791002595   -0.9926602889
 H   -1.0193509807    1.6931117801    0.7638383383
 H   -0.8368177136   -0.6362415783   -0.1452489961
 H    0.5820655763   -0.6548468228   -2.0718508504
 H    1.8253750194    0.3338370548   -1.2753145557
 H    2.4848621986   -3.3693442658    0.8179561479
 H    2.5184965354    0.7966642110    1.0685676900
 H    1.3151701268    1.3369402815    2.2509194562
 H    2.3858332681   -0.0263852629    2.6258514504
 H    0.3399197734   -1.4344103570    3.1935119364
 H   -0.7389624758   -0.0898531026    2.7625909421
 H   -0.9347756455   -1.6793449918    1.9970778639