13

 N    0.0124566977    1.3619419486   -0.0671263107
 C   -0.0117129175   -0.0116339630   -0.0557142567
 N   -1.2192440704   -0.5975759562    0.0000845443
 C   -1.2377760278   -1.9241801509   -0.0497931100
 C   -0.0745942693   -2.6868819374   -0.1523355920
 O   -0.1695524235   -4.0473046502   -0.2008537801
 C    1.1192535267   -1.9733839085   -0.1860309121
 N    1.1670125337   -0.6443130013   -0.1366876138
 H    0.8918396883    1.7842496477    0.1820810401
 H   -0.8181514490    1.8136676656    0.2791030149
 H   -2.2063628895   -2.4172335316   -0.0046900891
 H    0.7141060327   -4.4240156015   -0.2700851986
 H    2.0754318179   -2.4952968511   -0.2505608661