18

 C   -0.0562488383    1.5291302632    0.1251342031
 C    0.0239373877    0.0359120477    0.0249956719
 C    0.0777627232   -0.7460473974   -1.1161074304
 C    0.1097846517   -0.3910582232   -2.5642559958
 O   -0.5512117672   -1.4298643385   -3.2881814965
 N    0.1771256925   -2.0540922655   -0.7334316600
 C    0.1555485899   -2.1530955718    0.6410294559
 C    0.0779910513   -0.8701228657    1.1276164001
 O    0.0516724788   -0.5485962559    2.4568200724
 H    0.8968528967    1.9884593916    0.4208353571
 H   -0.3443743409    1.9803778006   -0.8289283783
 H   -0.8081008283    1.8456837490    0.8607194393
 H   -0.3793898278    0.5826880853   -2.7168319959
 H    1.1478334128   -0.2880818383   -2.9241865090
 H   -0.3492979266   -1.3153044555   -4.2215581295
 H    0.0932243893   -2.8142080611   -1.3854378937
 H    0.1876691759   -3.1003515055    1.1511546705
 H    0.0238077593    0.4092894810    2.5347845490