19

 C   -0.0320150136    1.5419645625   -0.1384588503
 C    0.0576333167    0.0283253176   -0.0463267142
 O    0.7907725255   -0.4446490625   -1.1814762470
 C    0.6667944282   -1.8151566591   -1.3028807325
 O    1.1169439940   -2.5486793082   -0.1533199461
 C    0.9946218426   -2.0271598046    1.0952099210
 O    1.1664589478   -2.7367440541    2.0476828211
 C    0.7436181212   -0.5225073005    1.2163989689
 C    2.0923767815    0.1531197500    1.5361328259
 H    0.9617258968    1.9911944736   -0.2025435602
 H   -0.5946295522    1.8291123078   -1.0303805198
 H   -0.5433253281    1.9478681544    0.7396465322
 H   -0.9612564599   -0.3925884144   -0.0978047408
 H   -0.3811848396   -2.1064954382   -1.4803656121
 H    1.2964321804   -2.1404961689   -2.1329144141
 H    0.0770449173   -0.4022286573    2.0763715738
 H    2.7598417856    0.1150647249    0.6706676115
 H    1.9481210799    1.1994572091    1.8160023944
 H    2.5731957459   -0.3610354120    2.3709616182