19

 C   -0.0467654002    1.5628549091    0.0265634406
 C    0.0224161871    0.0356772189    0.1682772800
 C    0.7878746237   -0.3606660755    1.4386893884
 C   -1.4026431825   -0.5419495521    0.1325721301
 C   -1.4692700278   -2.0981038190    0.1290080830
 C   -2.8640647720   -2.5587217594    0.1621014151
 N   -3.9693026072   -2.8879219559    0.2148193834
 C   -0.7633884859   -2.6720254606   -1.0261565361
 N   -0.1809894872   -3.0968711638   -1.9280282081
 H    0.9577664638    1.9957779938    0.0065523642
 H   -0.5577638750    1.8569261246   -0.8956727674
 H   -0.5863581964    2.0132486222    0.8680029604
 H    0.5674099260   -0.3592021505   -0.6991065113
 H    0.2585288558   -0.0255781170    2.3388053542
 H    0.9405869716   -1.4419499755    1.5187224812
 H    1.7796654745    0.1009231572    1.4470207929
 H   -1.9703927310   -0.2005442744    1.0053887054
 H   -1.9312691733   -0.1813644632   -0.7550395483
 H   -0.9798087138   -2.4800000789    1.0331657023