22

 C    0.0632478955    1.5592657451    0.0900581936
 C   -0.0519422759    0.0323656826    0.0465833474
 C   -1.4777677312   -0.5229711134   -0.0979347686
 C   -2.1801266058   -0.0088124230   -1.3600668440
 C   -1.4658835760   -2.0582270141   -0.0317880515
 C   -2.8813589525   -2.6110815926    0.1615187180
 N   -3.6382892995   -1.9056129940    1.1894451294
 C   -3.2414616645   -0.7529006696    1.5248447784
 O   -2.2088262288   -0.0146896336    1.0545498836
 H    1.0954700412    1.8543509765    0.3008598716
 H   -0.2205307529    2.0221985144   -0.8596648056
 H   -0.5747835586    1.9739877220    0.8745756726
 H    0.5476510156   -0.3674279772   -0.7807107576
 H    0.3699938169   -0.3864832467    0.9675242696
 H   -1.6157902977   -0.2965601083   -2.2529725689
 H   -3.1890518515   -0.4196403256   -1.4462582901
 H   -2.2649368777    1.0796050624   -1.3391887851
 H   -1.0025169409   -2.4648461977   -0.9370151353
 H   -0.8418475940   -2.3623313171    0.8165459767
 H   -3.4505409843   -2.5766426229   -0.7770760557
 H   -2.8363783199   -3.6697671786    0.4404876356
 H   -3.7516496174   -0.2016369788    2.3138280259