17

 C   -0.0458361576    1.4533322862   -0.1441117115
 C   -0.0344893779   -0.0008141896   -0.0909004133
 C   -0.0260509106   -1.2033266591   -0.0384842159
 C   -0.0332646519   -2.6636221457    0.0106762898
 N   -1.3807400935   -3.2494769696    0.0710843807
 C   -2.1555727864   -3.1530332406   -1.0932287583
 N   -3.3179188903   -3.6377067319   -1.2249680976
 C   -1.8125471320   -3.7884672253    1.2823869879
 O   -2.8842357245   -4.2747423707    1.5148189001
 H    0.5580467563    1.8835233665    0.6619550453
 H    0.3544846655    1.8205752596   -1.0950801850
 H   -1.0649548974    1.8404670741   -0.0389245487
 H    0.4939798630   -3.0738253813   -0.8590954242
 H    0.5158162622   -3.0153018082    0.8900399516
 H   -1.6110480097   -2.6005953953   -1.8680922487
 H   -3.6624384406   -3.4351589624   -2.1628968419
 H   -1.0066289144   -3.7130623966    2.0411537097