17

 C    0.1264851466    1.5554262908    0.0305519219
 C    1.2965360099    0.6367276218   -0.1189101402
 C   -0.0929327097    0.0539248178    0.0631018912
 C   -0.4304125694   -0.5846071204    1.3472908615
 N   -0.0134391279   -0.2443880470    2.4998091465
 C   -0.6214691428   -1.1725924764    3.4607087110
 C   -1.4852233023   -2.1257912119    2.5916908999
 O   -1.2807180162   -1.6463102612    1.2452496251
 H    0.0112329283    2.0715835971    0.9761052961
 H   -0.2341777632    2.0895229324   -0.8412065515
 H    1.7549106370    0.5278191070   -1.0952957401
 H    1.9667928701    0.5360928469    0.7263135683
 H   -0.5649522978   -0.4073772728   -0.7951621362
 H    0.1571362141   -1.7065517479    4.0167281286
 H   -1.2197047085   -0.6208403885    4.1943152731
 H   -1.1654276902   -3.1709366627    2.6365092680
 H   -2.5547543578   -2.0752530751    2.8156606168