15

 N   -0.2494253852    1.3293942172   -0.1730018256
 C   -0.0672440029    0.0768620076   -0.1335776880
 O    1.1563315161   -0.4824022910   -0.3278370760
 C    1.3519391055   -1.9052406905   -0.3619677255
 C    0.1563952848   -2.6971989613   -0.8895342215
 O    0.2778115939   -3.5982481065   -1.6838845049
 C   -1.1482101955   -2.2616586591   -0.3206297750
 N   -1.0516616412   -1.8754097936    1.1063089303
 C   -1.2298599306   -0.8241999849    0.1034221711
 H    0.6323080019    1.8110686003   -0.3604455832
 H    2.2064612458   -2.0818515610   -1.0161536894
 H    1.5852374717   -2.2633817499    0.6480404852
 H   -2.0362738422   -2.7604084267   -0.6940348172
 H   -1.9366305437   -2.0623201253    1.5702415210
 H   -2.1853705885   -0.3176499854    0.0312193487