21

 C   -0.2667256359    1.5219169081   -0.0674960782
 C   -0.0326605717    0.0167650551   -0.0399028419
 C    1.1536540158   -0.4762795078   -0.9189532465
 C    2.0497060465   -0.5824994505    0.3521264952
 C    2.9371133362   -1.8069061869    0.5122644067
 O    2.7827860159    0.6104415953    0.5854040863
 C    0.7428490606   -0.5246926560    1.2188609222
 C    0.7398806256    0.2222686910    2.4570183511
 C    0.7129493133    0.8385253090    3.4895216366
 H    0.6678164151    2.0642138479    0.0964856304
 H   -0.6780103723    1.8240201405   -1.0371924018
 H   -0.9730776208    1.8239091928    0.7118573871
 H   -0.9746684950   -0.5100521090   -0.2152549338
 H    0.9659155337   -1.4488363383   -1.3826624581
 H    1.5128327952    0.2184244936   -1.6833940274
 H    3.7437239409   -1.7994764707   -0.2319729634
 H    3.3925910128   -1.8158495265    1.5072608360
 H    2.3704715443   -2.7332049883    0.3760559478
 H    3.4839923617    0.6547182308   -0.0741617083
 H    0.4222113420   -1.5536674074    1.4157729936
 H    0.7032828461    1.3876865273    4.3979747064