22

 C    0.1809479026    1.6094156321   -0.2573724641
 C    0.0385395165    0.1172144583    0.0515347641
 N    0.5389729183   -0.6780417382   -1.0820406420
 C    1.5164797003   -1.3651872077   -0.6477864813
 C    2.3720427214   -2.2866303030   -1.4498120074
 O    1.8483053373   -1.2733799865    0.6667390175
 C    0.8254380894   -0.4374100932    1.2953832678
 C    1.5491109043    0.5872288380    2.1616193484
 C   -0.0570368058   -1.3589178437    2.1379999565
 H    1.2256247282    1.8847402921   -0.4298040599
 H   -0.3772382374    1.8405784104   -1.1682911415
 H   -0.2133764668    2.2286788813    0.5544249213
 H   -1.0290078823   -0.0982878056    0.1839753063
 H    2.0502304851   -2.2743440658   -2.4905688088
 H    3.4210574130   -1.9807384697   -1.3849128395
 H    2.3069408081   -3.3058934956   -1.0560450422
 H    2.2265798476    1.2050354350    1.5683342712
 H    0.8334265305    1.2438663186    2.6651555638
 H    2.1383961006    0.0771534956    2.9293252883
 H    0.5329457199   -1.8721586452    2.9029704647
 H   -0.8428892304   -0.7811385132    2.6359109808
 H   -0.5368205904   -2.1121415339    1.5058676458