17

 O    0.0750342594   -0.0140617698    0.0718148200
 C    0.0407720027    1.1993301382    0.0395630430
 N   -1.0738090147    1.9943873989   -0.0168866300
 C   -0.8000472739    3.4051224848   -0.0154697825
 C   -0.1403968952    3.9816840306    1.2132272275
 C    0.7050518542    3.5362598732    0.0349589186
 C    1.2355029723    2.1325272058    0.0506007331
 C    2.4803717246    1.6523881487    0.7054963936
 N    2.4047883449    1.7571289350   -0.7555219457
 H   -1.9929382090    1.6038894935    0.1161920270
 H   -1.4189543791    4.0163469719   -0.6618091945
 H   -0.2264079164    5.0505950631    1.3767947354
 H   -0.1357252668    3.3781002988    2.1153231233
 H    1.2262096581    4.2752200647   -0.5596322556
 H    3.1327802197    2.3761754905    1.1854797424
 H    2.4472035888    0.6638804334    1.1548773184
 H    2.2340766906    0.8286947288   -1.1420121338