21

 C    0.0651668131    1.4013227871   -0.3477447832
 C    0.0058327716   -0.0217549579    0.2061762072
 O    0.6504666301   -0.1323454251    1.4733388601
 C   -1.4155401573   -0.5498459046    0.2766382100
 C   -2.4264682733   -0.0085453305    1.2786176189
 C   -3.6308745378   -0.9740692433    1.1593262125
 C   -3.0324955092   -2.3288468669    0.7072462464
 C   -1.7872038196   -1.9309180399   -0.0566608103
 O   -2.0070428279   -0.8634113012   -0.9987671234
 H    1.1038886287    1.7322588025   -0.4309650648
 H   -0.4016634649    1.4449705020   -1.3356886421
 H   -0.4675023071    2.1020934064    0.3072011655
 H    0.5670268537   -0.6840680432   -0.4623366276
 H    0.3725253083    0.6159518965    2.0118671514
 H   -1.9797944348   -0.0534053094    2.2793135692
 H   -2.7098564124    1.0309597800    1.0851795130
 H   -4.1960711079   -1.0545377050    2.0907532069
 H   -4.3130204679   -0.6053800756    0.3906602188
 H   -2.7350319875   -2.9454701189    1.5645420795
 H   -3.7325742133   -2.9173451061    0.1062678986
 H   -1.0534552746   -2.6733415868   -0.3621442166