18

 C   -0.4736044584    1.2507107754    0.1944126780
 C    0.3985373672    0.0135244138    0.1758550547
 C    0.8553805666   -0.5480735675   -1.1887610829
 C    2.2850462976   -0.3412791198   -0.6347596432
 O    1.7755080200    0.3027902349    0.5486070602
 C    3.0526262860   -1.6033727030   -0.3255274892
 C    3.5550244974   -1.8829841364    1.0237510815
 O    2.3915545977   -2.5477457213    0.5160685181
 H   -0.0776710893    2.0178347664   -0.4785402712
 H   -1.4934138828    1.0020147568   -0.1196800944
 H   -0.5212954057    1.6706995353    1.2041680883
 H   -0.0095064718   -0.7593729995    0.8383926362
 H    0.5761531626   -1.5803825834   -1.4016250875
 H    0.6044980241    0.0884453727   -2.0395492013
 H    2.9282997783    0.3345471413   -1.2149669845
 H    3.5700317888   -2.0432119997   -1.1811958062
 H    4.4329988408   -2.5137780279    1.1533336297
 H    3.3579164210   -1.1568449982    1.8075905335