15

 C    0.7374292408    0.7996946988   -0.5669410127
 C   -0.4468601125    0.2848354179    0.2572512589
 N   -0.8316833884   -1.0627949837   -0.1500347997
 C   -1.8078285865   -1.2123108558   -0.9287803914
 N   -2.2982696898   -2.4201347124   -1.4170703404
 C   -3.3739342201   -2.1428047520   -2.2036211755
 N   -3.6315157222   -0.8842489849   -2.2926167303
 O   -2.6323975747   -0.2583502964   -1.4862056662
 H    1.0682474158    1.7762428131   -0.1984005161
 H    1.5787825682    0.1029982918   -0.5068790577
 H    0.4601465415    0.9082250471   -1.6202052663
 H   -0.1541194649    0.2350516163    1.3123552352
 H   -1.2821272427    0.9944788817    0.1867821408
 H   -1.9148662933   -3.3156354263   -1.1735385412
 H   -3.9590444511   -2.8961085351   -2.7094152473