19

 C    0.1497010653    1.4122536805    0.1114623533
 O   -0.0612388377    0.0071950519   -0.0066030867
 C    0.5688051915   -0.5580201133   -1.0880903781
 C   -0.0399646561   -0.9667619974   -2.2570651877
 C   -1.4707585477   -0.8902397939   -2.6669258871
 N    0.9471949671   -1.5184278330   -3.0333092169
 C    2.1657640448   -1.4747191855   -2.3772103359
 C    1.9593616100   -0.8772976116   -1.1551680891
 N    2.8909542040   -0.5491208933   -0.1489017638
 H    1.2170897459    1.6504017549    0.1951798201
 H   -0.2641667050    1.9475552862   -0.7532901353
 H   -0.3684855489    1.7347751330    1.0183205046
 H   -1.6213400810   -0.2626492740   -3.5546040064
 H   -1.8935965047   -1.8783311433   -2.8890738545
 H   -2.0504023425   -0.4587495955   -1.8475807465
 H    0.8002387547   -1.9283785083   -3.9375383696
 H    3.0616219837   -1.8637176682   -2.8325931326
 H    3.7203105187   -1.1286199710   -0.1891683101
 H    2.4716142680   -0.6503247983    0.7688800624