23

 C   -0.0037820103    1.5523762223    0.0285261979
 C    0.0537852190    0.0123825260    0.0255412666
 C    0.7079755772   -0.5059281891   -1.2699504062
 C    0.7522039340   -0.5133734647    1.2417848189
 C    0.3200245090   -1.2927018765    2.2400960015
 C    1.5472671835   -1.4422957861    3.1500044726
 C    2.0626637477    0.0383766726    3.1676878798
 C    2.2251607630   -0.2528395239    1.6363890340
 C    2.6614025287   -1.6925931664    2.0755794909
 H    1.0026466802    1.9845783976    0.0049416187
 H   -0.5445729730    1.9214274021   -0.8494497893
 H   -0.5087332885    1.9262513029    0.9240799752
 H   -0.9777476770   -0.3632175635    0.0554996927
 H    1.7459961294   -0.1650822009   -1.3511398245
 H    0.7104339064   -1.5994804886   -1.3001278349
 H    0.1681966951   -0.1397371263   -2.1497455604
 H   -0.6566360230   -1.7298490898    2.3975578861
 H    1.4604209086   -2.0433134137    4.0549897609
 H    1.3518532023    0.8146662228    3.4610523994
 H    3.0171599554    0.1638815587    3.6898424848
 H    2.8409338455    0.3699004545    0.9869495704
 H    3.6727782928   -1.7315224723    2.4939840686
 H    2.5008763942   -2.5071846574    1.3652189361