17

 C    0.5003489136    1.4456605622    0.1707346154
 C   -0.0460858171    0.0681104062   -0.0758164961
 C    0.0259228337   -0.5630713362   -1.2481864806
 C   -0.5110636513   -1.9601206726   -1.4789842187
 N   -0.0826610888   -3.0072539898   -0.5543329615
 C    0.1355976783   -2.8589389177    0.6780786942
 O    0.0079845331   -1.8079753761    1.5293260159
 C   -0.7041714094   -0.6404181008    1.0867927801
 H    1.2702969156    1.4301878615    0.9529485181
 H    0.9416091118    1.8705964637   -0.7344255519
 H   -0.2844807432    2.1294408111    0.5198450034
 H    0.4996878731   -0.0719627818   -2.0957675000
 H   -1.6126661077   -1.9433225005   -1.5084862591
 H   -0.2075724872   -2.2922940652   -2.4769326321
 H    0.5098100636   -3.7078497207    1.2521135536
 H   -0.7465850379   -0.0010525053    1.9711671520
 H   -1.7325083901   -0.9326422181    0.8348993072