23

 C   -0.0574429316    1.6279407126   -0.0608375911
 C   -0.0134145290    0.0977288838   -0.0069952502
 C    0.8118401326   -0.4987838220   -1.1532078036
 C    0.7617905168   -2.0472137886   -1.2536415104
 C    1.3327351577   -2.7258237587    0.0014216922
 O   -0.5840202092   -2.5312977127   -1.3341535345
 C   -1.3252403893   -2.1758803955   -2.4845352665
 C    1.5442527239   -2.4702667125   -2.4304270495
 C    2.1923053250   -2.8036816921   -3.3869608748
 H    0.9485897295    2.0578052924    0.0012250812
 H   -0.5077710240    1.9793368226   -0.9959479433
 H   -0.6456509911    2.0372964363    0.7663222508
 H    0.4034509657   -0.2165372451    0.9565536235
 H   -1.0301526233   -0.3081090430   -0.0461420034
 H    0.4720214390   -0.0773879076   -2.1063465278
 H    1.8635531605   -0.2038098905   -1.0582443545
 H    0.7132318580   -2.4842029656    0.8675433015
 H    1.3302870120   -3.8092181579   -0.1335169710
 H    2.3575519176   -2.3944217316    0.1858488258
 H   -0.8062232647   -2.4604339855   -3.4087042666
 H   -2.2679625844   -2.7249950386   -2.4221283371
 H   -1.5516667440   -1.1011318585   -2.5244092051
 H    2.7652159121   -3.1054548320   -4.2290077257