14

 N    0.1032560821    1.3616162444    0.1576725405
 C    0.0106272371   -0.0104605646    0.0340630501
 C   -1.1346127772   -0.7911786753    0.0153213820
 N   -0.6384248482   -2.1154812634   -0.0504916298
 C    0.7003902240   -2.0214924434   -0.0724759505
 O    1.4565692435   -3.1247701530   -0.1405408818
 N    1.1442215828   -0.7851432639   -0.0252035921
 C   -2.4902043926   -0.4582853087    0.0472281615
 C   -3.6602086690   -0.1544473435    0.0630380189
 H    0.9549972041    1.7375078480   -0.2339485595
 H   -0.7194843547    1.8623279497   -0.1464249805
 H   -1.1854621839   -2.9581948867   -0.0780125382
 H    2.3747978747   -2.8256068265   -0.1339637460
 H   -4.6863192227    0.1129164969    0.1037831454