14

 N    0.2261038101    1.0260048692    0.6133334797
 C    0.1077757234   -0.1206729139   -0.0906742077
 O    0.9589473052   -0.5870809927   -0.8166683541
 C   -1.2766074502   -0.8364930847    0.0007059097
 O   -1.0535608121   -2.2416583925    0.0745083447
 C   -0.7648194568   -2.8784588092   -1.0927864015
 O   -0.4670248782   -4.0308397061   -1.1179425665
 C   -2.1154491531   -0.4287808515    1.1179024301
 C   -2.7915287554   -0.0514722769    2.0367295961
 H    1.1099922435    1.5087784010    0.5922836388
 H   -0.4653056040    1.2864669984    1.2967405478
 H   -1.7891518833   -0.5900180884   -0.9421179072
 H   -0.8686399694   -2.2272127706   -1.9770243155
 H   -3.4042898898    0.2590125179    2.8478215256