19

 C   -0.2003847476    1.5314371564    0.0067281666
 C   -0.1822261469    0.0498818087    0.3988437971
 C   -1.4272251846   -0.6706963770   -0.0813984138
 O   -1.5382088661   -0.7080257182   -1.5247435045
 C   -1.6871299891   -2.1358756164   -1.5348806173
 C   -1.4643558849   -2.2360437756   -0.0011505230
 O   -0.3196721272   -2.9139224770    0.4491258171
 C   -2.6273853725   -2.8037116419    0.7867442581
 O   -3.7606920785   -2.4165417560    0.6676325395
 H    0.7182814600    2.0327095022    0.3243823472
 H   -0.2932892082    1.6385204569   -1.0774417114
 H   -1.0457225142    2.0509780603    0.4700551228
 H    0.7087807075   -0.4283421170   -0.0275945510
 H   -0.1126782640   -0.0622283124    1.4877488788
 H   -2.3301893942   -0.2250923287    0.3561551726
 H   -2.6802625524   -2.4490006808   -1.8758870579
 H   -0.9136259837   -2.6399647588   -2.1289863236
 H    0.4451332039   -2.6071890224   -0.0477008651
 H   -2.3410822471   -3.6149790121    1.4899339577