19

 C    0.5222932305    0.4533956699   -0.7527144272
 C    0.0478590478   -0.0268240393    0.6227563379
 O    0.0654607299    1.0315973094    1.5686688854
 C   -1.3683998278   -0.6377289264    0.6235169799
 O   -2.3432730507    0.3748752433    0.3866703696
 C   -1.5432182260   -1.8246614220   -0.3519585626
 O   -0.4931005926   -2.7752698568   -0.1996435227
 C   -2.8633593571   -2.4406842844   -0.2140406207
 C   -3.9245342930   -2.9825149979   -0.0562883266
 H    1.4726556823    0.9796604454   -0.6368580297
 H    0.6741808973   -0.3815991006   -1.4436314066
 H   -0.1866923796    1.1593503933   -1.2029674696
 H    0.7461005457   -0.7834543580    0.9915311786
 H   -0.7569923421    1.5199826847    1.4298910041
 H   -1.5742313822   -0.9868170049    1.6415567424
 H   -2.3149079954    0.6147635681   -0.5467507929
 H   -1.4322024281   -1.4447985597   -1.3767507814
 H   -0.6985923138   -3.3150603517    0.5719344488
 H   -4.8689979150   -3.4522934624    0.0689534232