23

 C   -0.1255341531    1.5282414568    0.0172789074
 C   -0.0200945722    0.0201049855    0.1733867756
 O   -1.3074154859   -0.5377918407   -0.0136600426
 C   -1.3643290565   -1.9582047368   -0.0305827254
 C   -1.2723263576   -2.5511789722    1.3782579055
 C   -2.6812224315   -2.3346392950   -0.7156728120
 C   -2.7716846283   -1.8191302687   -2.1609512046
 C   -4.1508306202   -2.0019004633   -2.7435890356
 O   -4.4022575454   -2.5715082294   -3.7745531879
 H    0.8536447591    1.9948432641    0.1605006597
 H   -0.4922340294    1.7881354841   -0.9798869465
 H   -0.8182447131    1.9424349930    0.7553575656
 H    0.6827735017   -0.3973588323   -0.5668665646
 H    0.3758131419   -0.2288416022    1.1700317736
 H   -0.5257537479   -2.3422642165   -0.6374336762
 H   -0.3266932136   -2.2926406156    1.8625485120
 H   -2.0902442957   -2.1761571650    2.0017258939
 H   -1.3369687497   -3.6432012638    1.3401647320
 H   -2.7918821904   -3.4246192464   -0.6971631310
 H   -3.5053736153   -1.9186134842   -0.1215559297
 H   -2.5522263792   -0.7433302514   -2.1454408293
 H   -2.0456041154   -2.3113010702   -2.8150746205
 H   -4.9664928524   -1.5534049399   -2.1265897394