25

 C   -0.0260595049    1.5246009582   -0.1409326859
 C    1.3844877098    2.1368988995   -0.0355563614
 C    2.2678686504    1.5203230869    1.0713838178
 C    1.8347836237    1.8444777034    2.5181742199
 C    0.5201276542    1.1699237377    2.9566950481
 C    0.4268546868   -0.3053643707    2.5202714460
 C    0.8957950423   -0.5747678932    1.0734280767
 C   -0.0234572489   -0.0129630286   -0.0334576623
 C    2.3129136931   -0.0061862344    0.8886418408
 H   -0.6730986448    1.9491022071    0.6315051808
 H   -0.4786850686    1.8200914226   -1.0950684719
 H    1.9060480850    1.9867157239   -0.9908966000
 H    1.3078713943    3.2225890916    0.1017832992
 H    3.2787671862    1.9269642265    0.9396940018
 H    2.6421013197    1.5086711982    3.1835541613
 H    1.7583725887    2.9300617037    2.6564628097
 H    0.4280691833    1.2312789459    4.0477130325
 H   -0.3328235063    1.7281335949    2.5612194242
 H    1.0579371158   -0.9102718957    3.1859145262
 H   -0.5986652453   -0.6690237271    2.6599704263
 H    0.9269713877   -1.6641179112    0.9431987711
 H   -1.0491574483   -0.3764764559    0.1052953473
 H    0.3218153232   -0.4323273675   -0.9885362162
 H    2.6961465408   -0.2581392669   -0.1084444606
 H    3.0003399521   -0.4556705490    1.6166092584