18

 C    0.1001816143    1.4826039643   -0.0277827643
 C    0.8028011772    0.2561570903   -0.5789691194
 O   -0.1339870612   -0.8173020608   -0.5975994693
 C    0.3390272114   -1.9918659654   -1.0659099434
 C    1.5689343268   -2.3950906157   -1.5454554915
 C    1.4195264886   -3.7779385988   -1.8857638691
 O    2.3781761452   -4.6044254937   -2.4021166241
 C    0.1357884897   -4.1659690130   -1.6104475128
 N   -0.5187464303   -3.0447228953   -1.1029453619
 H   -0.7535064847    1.7532832736   -0.6552445100
 H   -0.2624394416    1.2966293072    0.9869465161
 H    0.7919139816    2.3295386281    0.0008788210
 H    1.1728224404    0.4341060588   -1.5984959501
 H    1.6638756921   -0.0229383070    0.0444693457
 H    2.4578841137   -1.7932562400   -1.6433893423
 H    3.1888090927   -4.0985943836   -2.5032831523
 H   -0.3617301438   -5.1122619608   -1.7253175985
 H   -1.4761369820   -2.9993288082   -0.8043134338