19

 C   -0.0589254203    1.4264706832    0.0426065674
 C    0.1002258628   -0.0749184387    0.0454624264
 O    0.3210121298   -0.7033361077    1.0594463497
 C   -0.0240657864   -0.8393790854   -1.2788977400
 O    0.2138814875   -2.2035474614   -1.0577025665
 C   -1.4036357846   -0.6577186466   -1.9231194583
 C   -1.6829319505    0.6040223243   -2.7733291496
 O   -1.9594516209   -0.1859165050   -3.9417074791
 C   -1.6146256445   -1.4101769701   -3.2552809255
 H    0.5761787433    1.8843948975   -0.7221211012
 H   -1.0942341710    1.6938209506   -0.1975100522
 H    0.1927760864    1.8248754470    1.0260574255
 H    0.7367240462   -0.4316621691   -1.9687258932
 H    0.3625021449   -2.2829411189   -0.1003923166
 H   -2.1824743023   -0.8737905558   -1.1869765861
 H   -2.5432299725    1.2145021410   -2.4728148496
 H   -0.8175898314    1.2657637480   -2.9222916929
 H   -0.7103455842   -1.8756147812   -3.6651548384
 H   -2.4325284721   -2.1379450616   -3.2762897999