16

 O    0.1479467977    1.3754106427    0.1284643284
 C    0.0233953644    0.0124224690    0.0058913557
 C    0.2154215528   -0.6219937057   -1.3775799792
 N   -0.6851998738   -1.7531582459   -0.9679512535
 C   -1.2857586223   -0.9145954727    0.0780753449
 C   -0.3266261467   -1.9918049576    0.4921033789
 C    0.7348461449   -0.9952464959    0.9436833688
 C   -0.6432651905   -3.3136637973    1.0540765639
 O   -0.1148099104   -3.7628271028    2.0431558621
 H    0.1898882501    1.6087095572    1.0619716429
 H   -0.2804341593   -0.0611129689   -2.1726128846
 H    1.2277148361   -0.9090458349   -1.6813913376
 H   -2.3483857100   -0.7882852434    0.2438896993
 H    1.7888926614   -1.2137224700    0.7476508908
 H    0.5913994001   -0.7540388300    2.0009471756
 H   -1.4245578547   -3.8690648339    0.4925690736