19

 C    0.1172932437    1.5640874288    0.1054308015
 C    1.3285871397    0.7032517610   -0.0556308140
 O    1.6737000985    0.0706043324    1.1777102650
 C    0.4126768116   -0.6881635399    1.1669675278
 C    0.6629855530   -2.2054220704    1.0087398818
 C   -0.3419133386   -2.9086508014    1.9539206618
 C   -0.8171692030   -1.7865364571    2.8437845315
 C   -0.4026599160   -0.5924555155    2.4232446560
 C   -0.0354322944    0.0680388513   -0.0956600796
 H   -0.0872634449    2.0290559060    1.0653498638
 H   -0.1568800206    2.1603330933   -0.7600803116
 H    2.1070548413    0.8311803777   -0.7985958809
 H    0.5816615152   -2.5354367890   -0.0298858200
 H    1.6901720198   -2.3927772261    1.3331041673
 H   -1.1837794250   -3.3470714005    1.4015611018
 H    0.1113331680   -3.7311382334    2.5190826223
 H   -1.4514829947   -1.9582913350    3.7071452075
 H   -0.6360244978    0.3600879288    2.8832063572
 H   -0.5988954058   -0.3662216207   -0.9111289592