16

 O    0.1941988700    1.3253934777   -0.2280096182
 C    0.1322475964   -0.0576776544   -0.0476762686
 C    0.8390131633   -0.8294787383   -1.1329301617
 C    0.0864970567   -1.8036737181   -1.6428065668
 C   -1.2875643441   -1.8862829520   -1.0142427125
 C   -1.2224417997   -0.8397928187    0.0929696519
 O   -0.7344911077   -1.3952167674    1.3689231176
 C    0.3729922782   -0.5812604787    1.3605515506
 N    1.2124639336   -0.2993521554    2.2485314569
 H    0.3760276353    1.7252678222    0.6303649135
 H    1.8529636437   -0.5802373561   -1.4197076066
 H    0.4049781906   -2.4884177182   -2.4209069934
 H   -2.0845196777   -1.6776859414   -1.7387305675
 H   -1.4968834515   -2.8737317039   -0.5859863289
 H   -2.1235768079   -0.2507614442    0.2646531540
 H    1.0238248609   -0.7912801232    3.1235756096