21

 C   -0.2004982205    1.4545980534    0.1171719108
 C    0.0765204366   -0.0321068339    0.0651220447
 C    1.4511490455   -0.5542542885   -0.3002377127
 O    2.5082434906    0.3495604011   -0.4717862471
 C    0.9446299739   -0.7279487989    1.1069403965
 C    1.5866615147    0.0179032678    2.2347870096
 C    0.8404295053    0.2323444403    3.5429685805
 C    2.0059301913   -0.7210596657    3.4759879868
 O    1.7659597356   -2.0997877206    3.5077610172
 H    0.6994961383    2.0218337262    0.3647943969
 H   -0.5684179215    1.8177737961   -0.8496965416
 H   -0.9621151988    1.6904490224    0.8677820120
 H   -0.7555206197   -0.6264971659   -0.3057823309
 H    1.5169258702   -1.4412142645   -0.9303261704
 H    2.3792126346    0.8034121571   -1.3110868684
 H    0.6444884651   -1.7354982019    1.3733547688
 H    2.2542229575    0.8143968374    1.9281494529
 H    0.9536973542    1.1741136416    4.0696885013
 H   -0.1440968810   -0.2185344973    3.6200140008
 H    2.9415078952   -0.4168621181    3.9451894913
 H    1.4627462529   -2.3262321381    4.3926830010