19

 C   -0.2122482578    1.4524939724   -0.0478014260
 N    0.0704868446    0.0271624237   -0.0246061051
 C    0.7821029706   -0.4964624832   -1.1900639888
 C    1.1221717146   -1.9361399558   -0.7723668042
 C    1.4335548625   -1.8059918352    0.7242950437
 N    2.7231741494   -1.1873947758    1.0605584712
 C    2.2205056089    0.0465356051    1.4038220254
 O    2.7438380392    1.0834255385    1.7169754672
 C    0.7567364588   -0.4652487239    1.1541511347
 H    0.6949237703    2.0776703918   -0.0729263670
 H   -0.8204039299    1.6857860763   -0.9279908221
 H   -0.7866626997    1.7273781832    0.8426377184
 H    0.1451513671   -0.4433955414   -2.0788038395
 H    1.7055349733    0.0692686035   -1.4132277376
 H    0.2472993265   -2.5813002344   -0.8994286637
 H    1.9492793206   -2.3657579757   -1.3439244211
 H    1.2116208324   -2.7007621495    1.3098155344
 H    3.6713442051   -1.4914220612    0.8884089592
 H    0.1156782333   -0.4555337384    2.0391869508