25

 C    1.1252201131    0.0042710809   -1.1033556166
 C    0.0850719000    0.0800453854    0.0248834101
 C   -1.2668043953   -0.4676361019   -0.4557340176
 C    0.6236051814   -0.6476749932    1.2729088828
 C   -0.1458930992   -0.4909993513    2.5966938631
 C   -0.4345881989    0.9762851785    2.9560390126
 O   -1.3707785835   -1.2174172140    2.4885644249
 C    0.6802835358   -1.1476854170    3.7182070621
 O   -0.1455038392   -1.1839568720    4.8814802901
 H    1.3179413279   -1.0369883132   -1.3892811735
 H    0.7750185724    0.5318112918   -1.9967591983
 H    2.0805922701    0.4487244356   -0.8033408932
 H   -0.0453805366    1.1409246173    0.2761483511
 H   -1.1752256291   -1.5233507904   -0.7385931211
 H   -2.0279823642   -0.4055618677    0.3228077326
 H   -1.6138835853    0.0832203047   -1.3370001494
 H    0.6868338551   -1.7219566497    1.0549956203
 H    1.6514534755   -0.3030747391    1.4518007666
 H   -1.1502372837    1.4082020984    2.2535016772
 H   -0.8607743903    1.0369207740    3.9610579518
 H    0.4797964376    1.5796377566    2.9376494503
 H   -1.6682801052   -1.3538887235    3.3977457570
 H    0.9585882964   -2.1638937591    3.4074835565
 H    1.5998762443   -0.5743858903    3.9064480015
 H    0.2175670307   -1.8246620811    5.4981379794