17

 O    0.4953787482    1.0044188081    0.3546984577
 C    0.0839238447   -0.2951490102    0.0852097297
 C   -1.4038794959   -0.6091361057   -0.0084185974
 C   -2.4013395090    0.5364806373    0.0991149319
 C   -3.0054326691    0.8613591253   -1.2566364937
 O   -4.1616253705    1.1579357807   -1.4339400541
 C   -2.0338383946    0.7787737831   -2.4397371785
 O   -0.6829587346    0.5602012883   -2.0482168317
 C   -0.5337091071   -0.5843953569   -1.2516485439
 H    0.4367605946    1.4873849129   -0.4812151497
 H    0.7299583490   -1.0452734189    0.5310975889
 H   -1.7328715494   -1.5788226114    0.3491342803
 H   -3.2105898229    0.3205598791    0.7982757482
 H   -1.8779670109    1.4317579398    0.4636977440
 H   -2.3811807024   -0.0105152016   -3.1227464142
 H   -2.0593173458    1.7255105049   -2.9862586449
 H   -0.3031145043   -1.4952958747   -1.8011419226