16

 C    0.0572145548    1.5518126328    0.0091621933
 C   -0.0086118627    0.0134076656    0.0032537053
 C   -1.3734295861   -0.4991391261    0.0124472791
 C   -2.5109580706   -0.9017727772    0.0203668239
 C   -3.8303061903   -1.4039062685    0.0299515153
 C   -5.0172692552   -0.7253437842    0.0417590637
 O   -6.0499146448   -1.5735898407    0.0480569351
 N   -5.5665953900   -2.8812597953    0.0402188111
 C   -4.2655952251   -2.7693666677    0.0292145726
 H    1.0985109372    1.8863395183    0.0018404780
 H   -0.4443355923    1.9659089799   -0.8695787194
 H   -0.4295106775    1.9584866544    0.8996276005
 H    0.5178617456   -0.3735877241   -0.8789239553
 H    0.5324948908   -0.3809477710    0.8732338956
 H   -5.2588174599    0.3256525671    0.0468504448
 H   -3.6524655937   -3.6588950733    0.0212844666