21

 C    0.0143330604    1.5020388099   -0.0383987406
 C    0.0301664297   -0.0018849442   -0.0367894864
 C    0.6091629593   -0.9589282236   -1.1097261025
 C    0.0412858943   -1.8942408151   -0.0192976464
 C    0.6229958664   -0.9456258305    1.0861941948
 C   -0.3613067303   -0.9412417237    2.2398300140
 C   -1.5510438712   -0.9560473027    1.6369993424
 C   -1.2292712993   -0.9689491020    0.1451552509
 C   -2.3799104113   -0.9862490654   -0.8384070905
 H    1.0298141206    1.9081906752   -0.1037874140
 H   -0.5546729134    1.8905135727   -0.8906148389
 H   -0.4465909776    1.8821413111    0.8801811133
 H    0.1257060844   -0.9694442026   -2.0899186148
 H    1.6977080581   -0.9521490694   -1.2233123616
 H    0.0478429852   -2.9879081537    0.0028430735
 H    1.6980677334   -0.9379366656    1.2732531480
 H   -0.1207525726   -0.9239855021    3.2936024190
 H   -2.5439512367   -0.9534663655    2.0667580014
 H   -3.0191886674   -0.1057330206   -0.7068650486
 H   -2.0418023021   -0.9966831593   -1.8786096645
 H   -3.0081417798   -1.8714083628   -0.6869122485