19

 C    0.0877152948    1.5559058998    0.0312316266
 O    1.2627524284    0.7470653047    0.0544559149
 C   -0.0129139938    0.0914977215   -0.0376991378
 C   -0.4106094537   -0.7088730491    1.1594810139
 C   -1.6634285233   -1.5571540020    1.2385870153
 C   -2.3220029796   -1.9900618042   -0.0589315584
 O   -1.2744650234   -2.4832226402   -0.8915930069
 C   -0.2290059136   -2.9934609420   -0.0632748736
 C   -0.3040926488   -2.2174690766    1.2391488598
 H   -0.1483131594    2.0654410920    0.9655076629
 H   -0.0560390062    2.1535474625   -0.8683754716
 H   -0.2104807975   -0.3612260660   -1.0058929270
 H   -0.1602293488   -0.2045671472    2.0895033534
 H   -2.2779162379   -1.5046628397    2.1298928148
 H   -3.0662180176   -2.7752055985    0.1505430611
 H   -2.8209929912   -1.1862723205   -0.6107468196
 H   -0.3701134234   -4.0677487602    0.1353784431
 H    0.7090148524   -2.8665956370   -0.6138786892
 H    0.1163108428   -2.6687231475    2.1301538785