22

 C   -0.6951958681    1.3914339746   -0.4295364755
 N   -0.4662203113   -0.0081721505   -0.0947319635
 C   -1.2299777798   -0.6120794375    1.0375357686
 C   -0.1297407121   -1.7115165610    1.2269336944
 C    0.0068307330   -2.9727903375    0.4237127046
 C   -0.0668067578   -1.4889534631    2.7460710178
 C   -0.3128566481   -0.0613306455    2.2072973494
 C   -0.4412909421    1.1701632480    3.0681760791
 C    0.5730334045   -0.3443061985    0.9236098575
 H    0.1072414967    1.7322996090   -1.0931848430
 H   -1.6365856610    1.4731063308   -0.9841907952
 H   -0.7447925921    2.0837843092    0.4235771734
 H   -2.3152133653   -0.7427885105    1.0269854034
 H   -0.0943760376   -2.7472865202   -0.6421170820
 H    0.9830804228   -3.4428329603    0.5869567184
 H   -0.7632090023   -3.7025406401    0.6978540477
 H   -0.8735218784   -1.9311620733    3.3416762227
 H    0.9003125799   -1.6677320736    3.2296014415
 H    0.4689917000    1.3156040587    3.6619684997
 H   -0.6131250910    2.0827430404    2.4937071712
 H   -1.2742387487    1.0567491923    3.7722284497
 H    1.6397039487   -0.1554247615    0.7770712100