19

 C   -0.0051716896    1.4342022081   -0.0283465664
 O    1.3364172178    1.9075959389   -0.0193802489
 C    2.0897660538    0.8285961829    0.5144424787
 C    3.5690865487    0.7519998138    0.2071419600
 C    4.0207273537   -0.6146707166    0.7760330514
 O    3.2559341836   -1.7145418114    0.2955594470
 C    1.8593396575   -1.6372674906    0.5716173435
 C    1.3689204576   -0.3602066600   -0.0912453437
 O    0.0119983513    0.0090114188    0.0852782664
 H   -0.5763193426    1.8287491994    0.8243168253
 H   -0.4665799498    1.7523894866   -0.9723898897
 H    1.9528608623    0.7955114795    1.6106315975
 H    3.7433379717    0.7952239268   -0.8727497080
 H    4.1406338032    1.5570841573    0.6803933426
 H    5.0534665826   -0.8294638399    0.4910728299
 H    3.9743348985   -0.5789680901    1.8773141326
 H    1.4100468457   -2.5387897568    0.1487030572
 H    1.6605877301   -1.6195050010    1.6548155497
 H    1.6150213141   -0.4240819755   -1.1631974753