19

 O   -1.0398233392    0.8535564460    0.5905570411
 C   -0.3966519851    1.8372224075    0.3311929716
 C    1.0586627989    1.8379228281   -0.0970147844
 C    1.3145146319    2.7328852130   -1.3003189894
 C    0.6849198716    2.2420335014   -2.6074628611
 C    1.2404415288    0.9726917370   -3.0691631644
 C    1.7116634006   -0.0722715108   -3.4304034284
 C    1.3829400315    4.2287339387   -1.0843849258
 C    2.6366368815    3.4490289235   -1.3993112770
 H   -0.8512763841    2.8535652470    0.4018573499
 H    1.6396411333    2.2107001148    0.7583839305
 H    1.3690344380    0.8067750141   -0.2896321406
 H   -0.4017193926    2.1373581258   -2.4822404423
 H    0.8268498902    3.0043413825   -3.3831131198
 H    2.1185223884   -0.9969528128   -3.7574221527
 H    0.9749595334    4.8779220419   -1.8518624204
 H    1.2573432908    4.6075114470   -0.0755415447
 H    3.3615751994    3.2984580821   -0.6069511312
 H    3.0760954126    3.5628495432   -2.3842978308