19

 C   -0.0871467844    1.6291029775    0.3407494308
 C   -0.0293111688    0.1145782208    0.0559716205
 C    0.7955977744   -0.6367217637    1.1155952009
 O    2.1162284222   -0.1272569299    1.0601054436
 C   -1.3641006845   -0.4625518584   -0.0563311218
 C   -2.4767942266   -0.9250981361   -0.1429175871
 C   -3.8137738609   -1.4765157880   -0.2571623041
 C   -4.0483432349   -2.7762951066    0.4873210943
 O   -4.6778856567   -0.9268307527   -0.9071045047
 H    0.9280284291    2.0205139798    0.4264417250
 H   -0.6097705763    2.1541856536   -0.4619649024
 H   -0.6184062836    1.8235055354    1.2775770267
 H    0.4840738969   -0.0349048345   -0.9042956472
 H    0.3394088277   -0.4811170588    2.1055977573
 H    0.7685413266   -1.7147247694    0.8993599599
 H    2.6317734139   -0.5404960437    1.7583243346
 H   -3.3565821788   -3.5456629514    0.1275234593
 H   -3.8470459235   -2.6400532660    1.5554187231
 H   -5.0791531019   -3.1015730079    0.3394465910