17

 N   -0.0446187703   -1.1963648160    0.2401159561
 C   -0.0151940041   -0.0675453875   -0.0030502551
 C    0.0345820563    1.3689603325   -0.2960578921
 C    1.4027055212    1.9479060566   -0.1187586085
 C    2.3329245202    2.1653074203    1.0367631134
 C    3.3897099572    1.3667223633    0.2936131095
 N    2.6378176436    1.6319984630   -0.9997293625
 C    2.8166237682    3.1321567714   -1.1469817975
 C    1.9534715473    3.3280213560    0.0865106432
 H   -0.3190473411    1.5299705175   -1.3215890522
 H   -0.6697748054    1.8836175784    0.3682378086
 H    2.0907761523    2.2038047960    2.0918026100
 H    4.4302094182    1.7087740876    0.2902444286
 H    3.3487662038    0.2994735247    0.5215031317
 H    3.8596191415    3.4665817018   -1.1400898602
 H    2.3292505964    3.4683916327   -2.0656643956
 H    1.4402989047    4.2078025116    0.4560128826