21

 C    0.0383140347    1.3759106400    0.0774733019
 O    0.0193409935   -0.0277913762   -0.0194444682
 C   -1.2827024082   -0.5680652460    0.0342320356
 C   -1.1894740959   -2.0785600546   -0.0975169492
 C   -2.5609337380   -2.7899758999   -0.0069350295
 C   -2.3068007982   -4.1813877098   -0.6037515302
 C   -1.1880283766   -3.9723918915   -1.6341548532
 O   -0.8305343758   -4.7758277799   -2.4557058303
 C   -0.6101259914   -2.5677935380   -1.4349119698
 H    1.0825300294    1.6939390049    0.0293555702
 H   -0.5163222094    1.8508680339   -0.7475411393
 H   -0.3967182339    1.7261864046    1.0271429954
 H   -1.7750387038   -0.2945949748    0.9842816130
 H   -1.9046154702   -0.1562740277   -0.7818341776
 H   -0.5500315423   -2.4448243953    0.7161961649
 H   -2.9495594557   -2.8208381641    1.0142558223
 H   -3.2957328633   -2.2494195123   -0.6176502396
 H   -1.9218728779   -4.8742807288    0.1562548376
 H   -3.1761315275   -4.6605806626   -1.0598258361
 H   -0.9740242997   -1.9440745657   -2.2645353872
 H    0.4793160701   -2.5692298961   -1.4948124108