17

 C    0.0038063098    1.5683969822    0.0257042240
 C    0.0420456266    0.0625167974   -0.0648969363
 O   -1.1019808490   -0.5939944171    0.3990576765
 C    0.6254444730   -0.7300731177   -1.2003132858
 C    1.9103900091   -0.1105144458   -1.7492134113
 N    2.4802706647    0.0236368036   -0.3630749134
 C    1.3261138705   -0.7329909646    0.1746359092
 C    1.4335369611   -1.7344977288    1.1776115843
 N    1.5351149519   -2.5291450824    2.0145031222
 H    0.9595394016    2.0105241970   -0.2589536892
 H   -0.7893637426    1.9642165996   -0.6156166413
 H   -0.2092496333    1.8727386642    1.0568719071
 H   -1.1646575786   -0.4623517831    1.3526458950
 H    0.0401757552   -1.5136859578   -1.6627742317
 H    2.4660386726   -0.8199578109   -2.3687764535
 H    1.8222699822    0.8412135656   -2.2825618869
 H    3.3399874952   -0.5065186314   -0.2679383090