18

 C   -0.0671737339    1.6272843868    0.3564361337
 C    0.0903353582    0.1103896608    0.3575660910
 C    1.1630529995   -0.7295228035   -0.2377503169
 C    2.5997032260   -0.3701541601    0.1691996025
 C    2.7688221527    0.7323632235    1.1480263616
 N    2.3226101139   -0.5832876612    1.6318881518
 C    0.8709507559   -0.8243399956    1.2820935398
 C    0.1928921127   -1.9201366434    1.9900234947
 O   -0.9132818416   -2.3340123514    1.7200932403
 H    0.7301142792    2.1322462316   -0.1922481670
 H   -1.0095167982    1.8834243910   -0.1367663729
 H   -0.1100316685    2.0407480702    1.3689017422
 H   -0.8634503780   -0.3985151403    0.2209933664
 H    0.9628801823   -1.5157510819   -0.9550540779
 H    3.4527746107   -0.8528798158   -0.2957361809
 H    3.7943520284    0.9377845303    1.4447086764
 H    2.1140843336    1.5881633162    1.1968184159
 H    0.8042637371   -2.3613854171    2.8058558392