21

 C    0.6597290676    1.5195595158    0.5768749496
 C    0.1456630646    0.1273468347    0.1839467237
 C    0.6564886849   -0.3156959223   -1.1585797171
 C    0.0236321052    0.2091459032   -2.5121790255
 N    0.9832924041   -0.0051034447   -3.6226917474
 C    0.1618336205   -1.1298354753   -3.1118810216
 C    0.8103287934   -1.6790171541   -1.7896729348
 N    1.9377750359   -0.9377961607   -1.3053156982
 C    3.1479158759   -0.4986996615   -2.0008502734
 H    1.7522741207    1.5244446109    0.6417937145
 H    0.3662103782    2.2752976250   -0.1599561244
 H    0.2610199859    1.8283395618    1.5480406558
 H    0.4570306537   -0.6106924844    0.9306017666
 H   -0.9525300486    0.1283499660    0.1701823501
 H   -0.7884072276    0.9208479667   -2.5900279386
 H    0.5310803784    0.3299846112   -4.4736827636
 H   -0.5194724586   -1.6752289718   -3.7516803353
 H    0.5934733684   -2.6657017487   -1.3902482524
 H    3.1139328763    0.5674363187   -2.2341222805
 H    4.0100899530   -0.6919610688   -1.3494409909
 H    3.2882221684   -1.0374396219   -2.9396688365