18

 C   -0.2784085554    1.5714429162    0.2441607314
 C   -0.0232305430    0.1069728905    0.0727338016
 C    0.1364109152   -0.6179785995   -1.0729887892
 C    0.1353148639   -0.2714839387   -2.5215291430
 C    1.5033753461   -0.4715015075   -3.1824500868
 O    1.3642535208   -0.0948100402   -4.5413814967
 O    0.3487146407   -1.9172722114   -0.7688863465
 N    0.3314592347   -2.0792811642    0.6123884741
 C    0.1109919913   -0.8820466053    1.0908824626
 H    0.5281759659    2.0583026295    0.8035336214
 H   -0.3599853540    2.0765483301   -0.7216936669
 H   -1.2087849193    1.7554208598    0.7925395395
 H   -0.5975708008   -0.8876680413   -3.0547183154
 H   -0.1683565807    0.7715903380   -2.6465250064
 H    2.2549453390    0.1450875336   -2.6648690077
 H    1.8079622573   -1.5226492862   -3.0785938104
 H    2.2002435198   -0.2588089378   -4.9872244919
 H    0.0507717684   -0.7502497956    2.1630680902