16

 O   -0.1294825076   -0.0521160456   -0.3044355418
 C   -0.0484516975    1.0774729015    0.0917434296
 C   -1.1840480923    2.0867438925   -0.0057316170
 C   -1.2259952650    3.0896401690    1.1309741636
 C   -0.8198160419    2.6742715654    2.5269995888
 C    0.1082393537    3.5069761983    1.6796401594
 C    1.3111133943    2.8680113718    1.0248220233
 O    1.1080879831    1.4909249812    0.6739779410
 H   -1.0625363433    2.6192523715   -0.9596581173
 H   -2.1063009501    1.5062450236   -0.0883706664
 H   -2.0056484890    3.8399472572    1.0473266952
 H   -1.3118403783    3.1620245008    3.3605356380
 H   -0.5628810732    1.6357736813    2.7071967422
 H    0.2611560638    4.5456911076    1.9560545920
 H    1.5925182306    3.4276000146    0.1218167963
 H    2.1775858327    2.8572604192    1.6921792032