20

 C   -0.6397134398    1.1154072878    0.6209734226
 C    0.0952865607   -0.1244782177    0.1691783004
 N    1.3424326512    0.0721926612   -0.5914320327
 C    1.3990942992   -0.5961473180    0.7180620260
 C    2.1713017136    0.1043423581    1.8140225491
 C    1.8072974509   -0.4504473334    3.2052739400
 O    2.0757753308   -1.8245876849    3.2962893500
 C    2.5540888215    0.3023820621    4.2855429738
 O    3.2752459456   -0.2619624192    5.0728371251
 H    0.0518456356    1.9051178369    0.9227549470
 H   -1.2527023014    1.5125020757   -0.1953078697
 H   -1.3066380251    0.8924287959    1.4613324062
 H   -0.5638492027   -0.9202662588   -0.1775206352
 H    1.4208788158   -0.6064503601   -1.3435086294
 H    1.5441421986   -1.6742945150    0.7229210219
 H    3.2456726740   -0.0449482715    1.6498601133
 H    1.9857992521    1.1826230637    1.7807860246
 H    0.7313828490   -0.2609951566    3.3781143958
 H    2.6848954330   -1.9218383995    4.0454924977
 H    2.4068561574    1.4015381734    4.3124517935