20

 C    0.3467309174    1.3248743858   -0.2153607932
 O   -0.1492480386    0.0513590542    0.1520765939
 C    0.5190386687   -0.5213455338    1.2331698066
 C    1.8726751537   -1.1366158381    0.9934360289
 C    0.6706569124   -2.0220537084    1.2812812467
 C    0.4447556698   -2.4543420721    2.7126036678
 N    1.4360225078   -1.9266565185    3.6780115830
 C    0.1290807935   -1.2536968736    3.5347472738
 C    0.1446911513   -0.0192503509    2.6400650922
 H    1.4178817916    1.2879295619   -0.4592252598
 H   -0.2108161680    1.6420868567   -1.1000017294
 H    0.1982590688    2.0693443509    0.5802458826
 H    2.2168824631   -1.1298692616   -0.0354422947
 H    2.6401906872   -1.0630185125    1.7540247303
 H    0.2753419388   -2.6382632210    0.4830864650
 H   -0.0066567386   -3.4212260207    2.9054535194
 H    1.4281477901   -2.4994433032    4.5181946578
 H   -0.5639595332   -1.2894175306    4.3694742043
 H    0.8188507730    0.7543938147    3.0213732409
 H   -0.8637078887    0.4050333210    2.5838362139