20

 O    0.1913612369    1.2149114187    0.4772282833
 C    0.0728288351   -0.1152156260    0.0846704881
 C   -0.4937978586   -1.1579965416    1.0346102766
 C   -1.2952173926   -0.6686122058   -0.1631592985
 O   -2.3032336394    0.2720366737    0.0954198832
 C   -1.6287088661   -1.5711253125   -1.3263986897
 N   -2.9225565053   -2.2044376265   -1.0634640507
 C   -3.3000730786   -3.3229749993   -1.9185007753
 C   -2.9028918392   -3.5528144252   -0.5020070237
 H   -0.7057440607    1.5728821489    0.5082214036
 H    0.8844564288   -0.4190150497   -0.5718757320
 H   -0.0711105126   -2.1576752579    1.0224339107
 H   -0.8188411704   -0.7975251174    2.0042312010
 H   -3.1363761268   -0.2169352506    0.0521831643
 H   -1.7353232880   -0.9676658630   -2.2360580189
 H   -0.8214495496   -2.3030502162   -1.4961856849
 H   -4.3444773992   -3.3625183538   -2.2140658378
 H   -2.5956790640   -3.6302739819   -2.6894506327
 H   -1.9332745127   -4.0131842842   -0.3231584980
 H   -3.6532763270   -3.7640768598    0.2538724915