17

 N    0.2720398260    1.3029082035   -0.4215024971
 C    0.0583167782   -0.0528477511   -0.1387471669
 C   -1.0931999266   -0.7783928618   -0.0964213573
 O   -0.8196310713   -2.0967388157    0.1517936740
 C    0.5292988702   -2.2092812441    0.2661883658
 C    1.1239455204   -0.9947576111    0.0966266965
 N    2.4744899308   -0.6187824228    0.2029214927
 C    3.4950844597   -1.5836194221   -0.1888643588
 C    3.2263524540   -0.3929588149   -1.0405805323
 H    1.0585255248    1.6663632739    0.1041619458
 H   -0.5431072359    1.8768675249   -0.2488420054
 H   -2.1325239942   -0.5259457854   -0.2208267076
 H    0.9091635920   -3.1896241358    0.4981429467
 H    4.3741923226   -1.6193345209    0.4472892703
 H    3.1597008386   -2.5459360626   -0.5685198748
 H    2.7031376757   -0.5572633737   -1.9785781974
 H    3.9031174750    0.4557006198   -1.0256744842