19

 C   -0.4257260943    1.5015731429    0.1077922351
 O    0.8967076924    1.0395043467   -0.1840949228
 C   -0.1209347896    0.0672045446   -0.0017256997
 C   -0.0910467113   -0.8781241131    1.2072764476
 C   -0.5982044387   -2.2412048334    0.6654566634
 C   -1.3637217120   -1.8965008829   -0.6331370717
 C   -0.5326312861   -0.7640438802   -1.1995910366
 C   -0.5147545019   -0.2835322523   -2.5786868034
 O    0.5234265650   -1.1418606870   -2.0964629651
 H   -0.5598939639    1.9419474870    1.0956955962
 H   -0.9312048362    2.0200683336   -0.7057299617
 H    0.9223346163   -0.9405157923    1.6117141921
 H   -0.7378538746   -0.5022148294    2.0059563519
 H    0.2518628658   -2.8835495401    0.4166007414
 H   -1.2136083244   -2.7783866601    1.3905811845
 H   -1.4446432220   -2.7324561566   -1.3308882877
 H   -2.3754238674   -1.5398822403   -0.4016742922
 H   -1.1877334740   -0.7230130246   -3.3145639403
 H   -0.2009803532    0.7391375176   -2.7852231312