17

 C   -0.0303434620    1.5105049210    0.0871655158
 C    0.0126909030    0.0257757759   -0.0399621276
 C   -0.0033477226   -0.7976085242   -1.1238688362
 C    0.0419300384   -2.1609614221   -0.6609821769
 C   -0.0055424371   -3.3548729615   -1.4675702021
 O   -0.0592710724   -3.3908682268   -2.6821524522
 C    0.0992089879   -2.1058087957    0.7317167279
 N    0.2448303289   -3.0986249980    1.6964587050
 N    0.0754691965   -0.7933804642    1.0937500000
 H    0.8569046708    1.9106867778    0.5947554292
 H   -0.0741226502    1.9627574037   -0.9058234985
 H   -0.9090242806    1.8534403687    0.6483988666
 H   -0.0607102163   -0.4994865059   -2.1586837740
 H    0.0034300234   -4.3108116312   -0.8851880207
 H    0.2227548013   -4.0278140392    1.2989780064
 H   -0.4247875163   -3.0364051370    2.4548237659
 H    0.2017571773   -0.4642069812    2.0365098512