21

 C   -0.5384583400    1.3189702854   -0.1678610869
 C    0.5785944031    0.2811874063    0.0448940983
 C    0.9919616186   -0.3823111974   -1.1872845835
 C    1.3350771662   -0.9174785310   -2.2114259880
 C    1.6956255155   -1.5872787263   -3.4661107512
 O    1.1807263127   -2.9190173164   -3.5153253571
 C    1.2741595457   -0.7654604838   -4.6733895146
 C    2.2073131691    0.2775328162   -5.2323588238
 C    1.9525419195   -0.9986738446   -5.9954737583
 H   -0.2146731381    2.1019000986   -0.8589244666
 H   -1.4319414466    0.8482145847   -0.5870990633
 H   -0.8100107774    1.7878719720    0.7825979584
 H    1.4498952826    0.7684172566    0.5012796857
 H    0.2457789424   -0.4739525029    0.7686931523
 H    2.7854353184   -1.7159622446   -3.5063882514
 H    0.2458727582   -2.8712274251   -3.2876250236
 H    0.2130648355   -0.5308214958   -4.6941281352
 H    1.7798601453    1.2015229607   -5.6048525000
 H    3.1734393400    0.3998338660   -4.7532595809
 H    2.7438215747   -1.7402308531   -6.0292768503
 H    1.3507476745   -0.9521178056   -6.8961045800