14

 O    0.6005952592    0.7504289423    0.8825741561
 C    0.0406986348   -0.2490414214    0.0823749328
 C   -1.4936364831   -0.1239565132   -0.1248518238
 C   -1.3424027518   -0.4227323263   -1.6422487850
 O   -1.5205815554   -1.8124783238   -1.8536049029
 C   -2.0948184053    0.3947778577   -2.5889874187
 N   -2.6576777719    1.0461149765   -3.3606160158
 C    0.1901735644   -0.1023121507   -1.4512589722
 O    1.0656767950    0.2292605881   -2.1869799147
 H    1.5603623175    0.6734249812    0.8455780222
 H    0.3224352915   -1.2633232510    0.4016626409
 H   -2.1286706061   -0.8323881743    0.4048485100
 H   -1.8203039439    0.9015407885    0.0545569674
 H   -1.2262075349   -2.0236653236   -2.7485174562