17

 C   -0.0107737947    1.4629839469    0.0748545351
 C   -0.0123306106   -0.0327013419   -0.0206831052
 C   -0.9141019246   -0.9430594362    0.8316109118
 C    0.5743829831   -1.0920754108    0.9477785805
 C    0.4645245452   -2.1338955143   -0.2432329416
 C   -1.0491497745   -2.2929650400    0.1160564893
 O   -1.3581703659   -3.3662117253    0.9674916362
 C    0.4822260506   -0.8908206713   -1.1475769701
 O    0.9319547713   -0.6455750871   -2.2324456590
 H    0.9247110113    1.8718195022   -0.3185050042
 H   -0.8334295614    1.8931501584   -0.5055820513
 H   -0.1226300361    1.7965301942    1.1112254157
 H   -1.6068789437   -0.4948722618    1.5351598113
 H    1.3019829386   -0.9289386597    1.7279773799
 H    1.0938026168   -2.9982059957   -0.4362228055
 H   -1.7460466200   -2.3675095655   -0.7245201943
 H   -0.7798433953   -3.3095432521    1.7381828511