16

 O   -0.2548977749   -0.0463592377    0.2091232634
 C   -0.1017298159    1.1121229737   -0.0852121514
 C    1.1799646203    1.8927635960   -0.0042956531
 C    1.5868752626    2.6341042283    1.3088103005
 C    1.9361125845    1.2304347495    1.8382721399
 N    2.4813304009    1.1700662546    0.3913423289
 C    3.0190192643    2.6042694211    0.7083357333
 C    3.3929042750    3.4468727569   -0.4062711101
 C    3.7331478697    4.1687316306   -1.3058780033
 H   -0.9522077548    1.7235615832   -0.4687652540
 H    1.2838286833    2.4860505494   -0.9193319582
 H    1.0805997905    3.4697638018    1.8026053500
 H    2.7211430472    1.1602641943    2.5950163517
 H    1.1350624228    0.5186916120    2.0192981554
 H    3.8277652647    2.5577442380    1.4432111419
 H    4.0338836398    4.7998161682   -2.1058013448