15

 C   -0.0394218803    1.4455062279   -0.0249722329
 N   -0.0141750753   -0.0065619252   -0.0327175892
 C    0.5679091966   -0.6216281296    0.9382713785
 C    0.6172571986   -2.0730528126    0.9724868309
 C    1.2294443689   -2.7056008019    1.9949458667
 N    1.8098672482   -1.9909225579    3.0093736241
 N    1.8186165881   -0.6487450770    3.0688642629
 C    1.2376306968   -0.0100064894    2.1000066254
 H    0.9668494565    1.8929959135   -0.0510392362
 H   -0.5730930448    1.7958163898   -0.9128992686
 H   -0.5573697927    1.8626234301    0.8532296275
 H    0.1557403267   -2.6284092593    0.1663235973
 H    1.3038559072   -3.7829243904    2.0850406695
 H    2.2711710831   -2.4439779626    3.7794760624
 H    1.2732655726    1.0690993447    2.1958118520