19

 C   -0.0496181110    1.5274493128    0.0883099153
 C    1.4886227801    1.4136025538   -0.0680700154
 O    2.0586212009    1.1310550993    1.2156599547
 C    1.7352722796   -0.1961965395    1.6121946609
 C    2.6110066662   -1.1879101484    0.8485432020
 C    2.3117670345   -1.0202366093   -0.6637169243
 C    1.2581324105    0.0684811164   -0.8251502047
 C   -0.0165926548   -0.0224525132    0.0706533679
 O    0.3635604965   -0.4860972760    1.3718875227
 H   -0.4184630597    2.0020076837    0.9988403284
 H   -0.5315068756    1.9468398403   -0.7989934844
 H    2.0713986361    2.2197124499   -0.5178976361
 H    1.8842328549   -0.2479345008    2.6928452958
 H    3.6597240692   -0.9817057027    1.0801119895
 H    2.3836153035   -2.1990346739    1.1976484960
 H    3.2160229353   -0.7476435733   -1.2173873299
 H    1.9493395589   -1.9562761538   -1.1007629355
 H    0.9868215026    0.2522178163   -1.8669166485
 H   -0.8861484477   -0.6019493618   -0.2453233546