20

 C   -0.1402708248    1.6139112595   -0.0343064106
 C    0.0787927512    0.1074755170    0.0264547507
 C   -1.0847195565   -0.6293059991   -0.6420259684
 C    1.3818469767   -0.6686825511   -0.1947508915
 C    2.6620660459   -0.1634367143    0.5269792226
 N    2.4049738662    1.1054395811    1.2593667279
 C    1.9797103836   -0.1951057227    1.8336694990
 C    0.6699086186   -0.7186249900    1.1516334081
 O    0.0375938774   -1.8170066678    1.7178136912
 H   -0.1944518604    1.9323991896   -1.0827305848
 H   -1.1054735209    1.8619007444    0.4255998085
 H    0.6450912529    2.1731004105    0.4612170478
 H   -1.1852662748   -0.2992688859   -1.6815606602
 H   -0.9560019050   -1.7129811483   -0.6296392547
 H   -2.0276060141   -0.3993283581   -0.1319380681
 H    1.4340771329   -1.4425501044   -0.9509651993
 H    3.6696278046   -0.4564692628    0.2613424238
 H    3.2791161225    1.3549250469    1.7241245029
 H    2.3256566485   -0.5426065891    2.7990573340
 H   -0.6850198745   -1.4957592455    2.2694389612