16

 C   -0.0769933442    1.3822909749    0.1207467445
 O    0.0022084504   -0.0313428170    0.0010276538
 C    0.6210834006   -0.5353690021   -1.0830203624
 C    1.1860907774    0.1805872135   -2.0892151870
 C    1.8248029706   -0.4763207031   -3.2062155978
 N    2.3707142549    0.1354899536   -4.1770189567
 O    1.8241920248   -1.8832638370   -3.1852651288
 C    1.2546741086   -2.5621315574   -2.1716156437
 C    0.6559316594   -1.9779519434   -1.1242364469
 H    0.9221387915    1.8312490375    0.1638019125
 H   -0.6320099304    1.8188330547   -0.7177450080
 H   -0.6074596651    1.5775236675    1.0531987522
 H    1.1961862345    1.2595345473   -2.1220955282
 H    2.7567910940   -0.5276953586   -4.8483276912
 H    1.3416967530   -3.6330704874   -2.3099907541
 H    0.2101930399   -2.5596007929   -0.3302234883