20

 C   -0.1676883328    1.5680216317    0.2665404274
 C   -0.1198922304    0.0920521610   -0.1375758938
 O    1.0219844411   -0.5533506148    0.4021490191
 C   -1.4301204991   -0.6287797376    0.2315489581
 C   -1.4218140422   -2.1221672106   -0.0304025402
 C   -2.6192470125   -2.7741031847   -0.6665213350
 N   -1.3698486145   -2.6690138432   -1.4071304052
 C   -0.6873432277   -2.9825399498    0.9441148494
 O   -0.2398950771   -2.6018383124    2.0005693994
 H    0.7752859064    2.0546873216    0.0051298570
 H   -0.9843264082    2.0972304216   -0.2370993114
 H   -0.3135142901    1.6661715716    1.3483911602
 H    0.0147600916    0.0351430809   -1.2273601321
 H    0.8051767141   -0.8633671620    1.2908130581
 H   -1.6319567771   -0.4736881491    1.2989432656
 H   -2.2563596186   -0.1619373353   -0.3170696898
 H   -2.9063489059   -3.7852810501   -0.3896955457
 H   -3.4498106157   -2.1159936795   -0.9079519404
 H   -1.4055661152   -1.8996978756   -2.0716692371
 H   -0.6060903761   -4.0429169838    0.6240066464