22

 C    0.2285770219    1.7346294346   -0.1135698411
 C    0.0549518097    0.2173620704    0.0358404132
 C    0.6153206193   -0.5768172786   -1.1551430228
 N   -0.0829031829   -0.2648622404   -2.3979671192
 C    0.5649730790    0.6701410190   -3.3138909418
 C    0.5224969366   -0.7851764749   -3.6183395040
 C    0.7088420590   -0.2646353545    1.3134925094
 C   -0.0406781943   -0.4511821046    2.5614753942
 O    0.3542368539   -1.5734241365    1.7692526739
 H    1.2873077853    2.0063902748   -0.2037990653
 H   -0.2899207780    2.0995065890   -1.0029000866
 H   -0.1770033275    2.2626595591    0.7554835336
 H   -1.0151978791   -0.0135318179    0.0999266616
 H    1.7060641103   -0.4040597059   -1.2396964224
 H    0.4729612083   -1.6434730192   -0.9500661758
 H   -0.0932562661    1.3636494640   -3.8298604333
 H    1.5274656728    1.0877425919   -3.0215982646
 H    1.4569577060   -1.3373881915   -3.5275301786
 H   -0.1676456444   -1.1776986675   -4.3598130084
 H    1.7772179945   -0.0483044427    1.3977950227
 H    0.4640619739   -0.3557442295    3.5219893414
 H   -1.1105195580   -0.2457388991    2.5775237942