16

 C    0.1027239832    1.5401420980   -0.0347206660
 C   -0.1102013002    0.0150101306   -0.0028746929
 O   -1.4756136411   -0.3162069137    0.0176840155
 C    0.6188318318   -0.6239764717   -1.1932247503
 O    0.2482345151   -0.6770491572   -2.3308095541
 C    1.9510718214   -1.1955730862   -0.6687694817
 N    1.7904119856   -1.1319880169    0.7740755611
 C    0.6112602136   -0.6005479336    1.2036019881
 O    0.1669145137   -0.6079519273    2.3328391472
 H    1.1616601282    1.8107628515   -0.1057038550
 H   -0.4277730419    1.9489080110   -0.8980619924
 H   -0.3041232837    1.9747604877    0.8827381907
 H   -1.7106064718   -0.3819104258    0.9550624556
 H    2.0859824479   -2.2181913640   -1.0379705680
 H    2.7909556039   -0.5898973535   -1.0328374538
 H    2.3898238544   -1.6251578689    1.4183921061