19

 C   -0.0151856545    1.4700302492   -0.0548762575
 C   -0.1893403064   -0.0164980653   -0.3144610549
 O    1.0474950156   -0.5382221712   -0.7734603744
 C    1.0066037372   -1.9021886859   -1.0456895622
 C    0.4674556428   -2.3754356106   -2.3768661441
 C    1.9563172353   -2.4239162548   -2.0823148716
 C    2.9091133266   -1.4925014889   -2.7980722542
 H    0.7607761328    1.6404264280    0.6967869332
 H    0.2785800789    1.9879524873   -0.9724471799
 H   -0.9513301613    1.9065560446    0.3059499495
 H   -0.4977766085   -0.5371413246    0.6072024095
 H   -0.9757676235   -0.1951086980   -1.0642074828
 H    0.8083510109   -2.5228967160   -0.1696511110
 H   -0.0989906733   -3.2993514577   -2.4231825913
 H    0.1346837577   -1.6031846536   -3.0632905261
 H    2.3601949507   -3.4116156923   -1.8748866540
 H    2.4715441430   -0.4977198260   -2.9067078318
 H    3.8451824684   -1.3816240710   -2.2399432413
 H    3.1553147074   -1.8740428433   -3.7948221450