20

 O    0.0226318958    1.2723883591   -0.4650560671
 C    0.0081840966   -0.1499809827   -0.4004829143
 C   -1.3941964303   -0.5440760157    0.0651954179
 C   -2.5228725146   -0.1341497168   -0.9207472023
 N   -3.1418943855   -1.3455222753   -1.4997855718
 C   -2.1976498002   -2.2199413456   -2.2036548687
 C   -2.5739657458   -2.5073303226   -0.7963216609
 C   -1.5913881818   -2.0724199299    0.2849500087
 O   -0.3316196740   -2.7374502249    0.2330315130
 H    0.8928693053    1.5475954086   -0.7671254059
 H    0.2414591800   -0.5889547370   -1.3810116215
 H    0.7538889891   -0.5284273566    0.3101878736
 H   -1.5436830851   -0.0202861173    1.0138424789
 H   -3.3139516478    0.4098189157   -0.3959673147
 H   -2.1513246046    0.5218324705   -1.7131456539
 H   -2.6359311011   -2.8034751092   -3.0085256902
 H   -1.1899343357   -1.8653764937   -2.4008176626
 H   -3.2594962449   -3.3201699833   -0.5671214235
 H   -2.0524302263   -2.2454928145    1.2683290510
 H   -0.4945675190   -3.6847074288    0.2727514144