17

 O   -0.1802469045    0.1680077785   -0.5319130771
 C   -0.0304023793    1.2627589341   -0.0978650814
 O   -0.9981338109    2.0602360899    0.5199921002
 C   -0.0204427516    3.1265637521    0.7097685664
 C    0.7346807659    3.1460273264    2.0619949631
 C    1.8984458593    2.3323453964    1.3757797976
 C    1.0691867902    2.3149333343    0.0516067803
 C    1.2138009760    3.3950259559   -1.0681676493
 C    0.0472119538    4.2130955701   -0.3920386269
 H    1.0137794112    4.1391971395    2.4202334015
 H    0.2061350493    2.6203147967    2.8588193491
 H    2.8334616196    2.8892647729    1.2842165408
 H    2.1209887631    1.3539356265    1.8048542806
 H    2.1805493168    3.9026911892   -1.0464580535
 H    1.0310789813    3.0456525230   -2.0857465452
 H   -0.8691377505    4.2893188131   -0.9795389454
 H    0.3242909905    5.2094026314   -0.0410164010