19

 C    0.0291160611    1.5850883450   -0.0746108869
 C    0.0999701645    0.0596772003   -0.0191068973
 C    0.7500460126   -0.6244591371   -1.2144481591
 C    2.2687670502   -0.6117946541   -1.3097749684
 C    1.5465136380   -1.7588419265   -0.6532052205
 O    1.4426642022   -1.7838599059    0.7512818151
 C    0.8939121658   -0.5363546230    1.1966854073
 C    1.9399197552    0.3391447322    1.7365156733
 C    2.7862729570    1.0435132527    2.2197431193
 H    1.0225607875    2.0253561831   -0.1894846853
 H   -0.5858672639    1.9019991620   -0.9226736742
 H   -0.4177441891    1.9984053179    0.8353912458
 H   -0.9209398507   -0.3341905472    0.0570216660
 H    0.1640689809   -0.7270598813   -2.1206922563
 H    2.6963176778   -0.7951193992   -2.2900235400
 H    2.8378788347    0.0694978016   -0.6882801885
 H    1.5727344002   -2.7594443134   -1.0675521098
 H    0.2068316589   -0.7745737350    2.0165999186
 H    3.5400015270    1.6603132879    2.6437377609