22

 C    0.9273935946    1.5311456670    0.3180225353
 C    0.1191671539    0.2663559427    0.0011425193
 C    0.5578395321   -0.3429155283   -1.3365048438
 C    0.2207469880   -0.7988225194    1.1216255559
 C   -0.4296528448   -0.3907514654    2.4057856839
 N   -1.6132187892   -0.6816727450    2.7656993807
 C   -1.8300218912   -0.0443816311    4.0715424156
 C   -0.4898231638    0.6692417519    4.3887325350
 O    0.3341166398    0.3794675350    3.2382258562
 H    1.9970929233    1.3000003404    0.3903840148
 H    0.8017195420    2.2778136954   -0.4730146949
 H    0.6249668385    1.9815242260    1.2661119670
 H   -0.9403111115    0.5424373861   -0.0808263681
 H    1.6055984694   -0.6646181367   -1.2969008184
 H   -0.0499215127   -1.2148575086   -1.5995435863
 H    0.4669941315    0.3876365917   -2.1468357488
 H   -0.2747843216   -1.7148982802    0.7911041601
 H    1.2752893109   -1.0296305096    1.3126925629
 H   -2.6720346662    0.6539547944    4.0127813518
 H   -2.0904359480   -0.8005013968    4.8199363805
 H   -0.5815344961    1.7550108973    4.4820864248
 H    0.0146907811    0.2804915035    5.2779762564