25

 C    0.0037558447    1.5980855222    0.1449964704
 C   -0.0132890737    0.0661765524    0.2351006502
 C   -1.3875113473   -0.5273258855   -0.0119250366
 C   -1.9592466076   -0.4525340004   -1.4556416958
 C   -2.3018542692   -1.9710948717   -1.4138126052
 C   -1.7028621808   -2.0861090077    0.0172802083
 C   -0.6672619906   -3.1650055131    0.2516697994
 C   -2.7517918972   -1.8396837985    1.1358934146
 C   -2.4716276133   -0.3086653301    1.0841146966
 H    1.0069766818    1.9953295834    0.3280129726
 H   -0.3145198312    1.9401330133   -0.8456214408
 H   -0.6715385467    2.0460294828    0.8818640239
 H    0.6995132983   -0.3478004923   -0.4910496341
 H    0.3463242054   -0.2431078611    1.2260039236
 H   -2.8024405793    0.2299557331   -1.5979950927
 H   -1.1991001508   -0.2078076237   -2.2037955104
 H   -3.3635842740   -2.2235674157   -1.4936180372
 H   -1.7603970243   -2.5598954803   -2.1597854801
 H    0.1176899164   -3.1469737687   -0.5131473104
 H   -0.1841714479   -3.0578593081    1.2296406313
 H   -1.1305826787   -4.1597022966    0.2219556135
 H   -3.7735009544   -2.1540013618    0.9015637457
 H   -2.4717052788   -2.2931540188    2.0912761553
 H   -2.0690544132    0.0900497861    2.0199848385
 H   -3.3155282474    0.3211075510    0.7873415195