17

 O   -0.0018797969    0.2599048806    0.7649984565
 C   -0.0090602834    1.2520643844    0.0898656775
 C   -1.3153666477    1.9758985965   -0.2349129654
 O   -1.2363571408    2.9905394992   -1.2203317520
 C   -0.0865277875    3.7682116546   -1.0327638819
 C   -0.1511987357    5.1763589554   -1.5195900900
 C   -0.1394960364    4.8953346750   -0.0291096492
 C    1.1446478859    2.9345336501   -1.2214651918
 O    1.1503391756    1.7801474051   -0.3549007713
 H   -2.0303862092    1.2293339692   -0.5862820533
 H   -1.6907067373    2.3771857184    0.7191426665
 H    0.7324642246    5.6077414804   -1.9773288496
 H   -1.0910734837    5.4841335585   -1.9627218962
 H   -1.0722284972    5.0317382881    0.5060332828
 H    0.7532536022    5.1322728927    0.5392413503
 H    1.2026613489    2.5764679638   -2.2560187657
 H    2.0564002586    3.4898606679   -0.9880758570