16

 O    0.0077665910    1.4998286637    0.2402601768
 C    0.0691703951    0.1075913619   -0.0213233282
 C   -1.3103896133   -0.4964576924    0.0061637901
 C   -1.9756325679   -1.1373111988    1.2162579487
 C   -1.8963522878   -1.9411478131   -0.0335984996
 C   -3.0211647930   -1.5045234337   -0.9906169743
 C   -2.3619194817   -0.1023788453   -0.9778903341
 O   -2.4771761216    0.8781139403   -1.6669056163
 H   -0.5793388105    1.8777412161   -0.4269114366
 H    0.5398378015   -0.0915510290   -0.9972791942
 H    0.7102818923   -0.3336970571    0.7488465460
 H   -1.2718795509   -1.3907508621    2.0033673144
 H   -2.9352828553   -0.7778637617    1.5787085165
 H   -1.3312090238   -2.8600797651   -0.1149955824
 H   -2.9643379119   -1.9376565132   -1.9932729439
 H   -4.0453627522   -1.5954307003   -0.6171245829