18

 C    0.0051077429    1.5788736429    0.0299697064
 C    0.1406088097    0.0517017192    0.0308302065
 C    0.7625739821   -0.4733145554   -1.2278028124
 N    0.5659563439   -0.0120302218   -2.4442333267
 C    1.3065162786   -0.8141256729   -3.2901671545
 C    1.3296769505   -0.5830209850   -4.7661101859
 C    1.9592179770   -1.7753149303   -2.5642473414
 N    1.6055466798   -1.5470430388   -1.2485785302
 H    0.9870167204    2.0595548333   -0.0095808790
 H   -0.5585747451    1.9061248356   -0.8461645659
 H   -0.5113206983    1.9218225162    0.9312975464
 H    0.7355120111   -0.2777860285    0.8920322156
 H   -0.8529727140   -0.3996240734    0.1595870317
 H    1.7002720164    0.4203844503   -5.0027856697
 H    1.9720571579   -1.3112813682   -5.2690492539
 H    0.3242668677   -0.6616892395   -5.1941345084
 H    2.6272372216   -2.5722381194   -2.8464393359
 H    1.9161316278   -2.0741524743   -0.4499767729