15

 C   -0.0005418789    1.3964962239    0.0326164726
 O    0.0001724396   -0.0109346905   -0.0034159887
 C    0.6598222487   -0.5854460948    1.1002683662
 C    0.6058476180   -2.0696385818    0.9651856341
 C    0.0470775072   -2.8239921934   -0.0098317997
 O    0.2546523129   -4.1415082985    0.3063146817
 C    0.9361712186   -4.1002833322    1.4701791239
 N    1.1777168640   -2.9112500345    1.9156395322
 H    1.0220732147    1.8053074801    0.0216539952
 H   -0.5303848763    1.7449963047   -0.8568220933
 H   -0.5143985575    1.7813548489    0.9275051744
 H    1.7105829283   -0.2510916617    1.1526345804
 H    0.1876400326   -0.2773751923    2.0493474302
 H   -0.4886260971   -2.6149415110   -0.9173019215
 H    1.2091905154   -5.0473097769    1.9084842623