20

 C    0.5116507943   -0.6950659538   -1.2417440033
 C   -0.0255165750    0.0739509340   -0.0505954413
 C    0.9282582343    0.8938190033    0.7484062536
 N   -0.0661231819    1.5427778286   -0.1277968715
 C   -1.2345567378   -0.6005584563    0.6032533193
 O   -0.8767224021   -1.8923655656    1.0768761828
 C   -1.9154530806    0.2472633949    1.6972554686
 C   -3.1816247833   -0.3205792362    2.1390394986
 C   -4.2318668778   -0.7868652788    2.4907151072
 H    1.4324144630   -0.2425704596   -1.6236976306
 H    0.7195098218   -1.7319228655   -0.9662376448
 H   -0.2248498890   -0.7086802219   -2.0539803208
 H    0.7794422617    1.0699775573    1.8102097574
 H    1.9711880469    0.8905676715    0.4417668366
 H    0.3770755379    1.8579689223   -0.9874112685
 H   -1.9763994008   -0.7927807004   -0.1810152895
 H   -0.2277126988   -1.7752091784    1.7802553631
 H   -1.2386782380    0.3399542199    2.5581225016
 H   -2.0604331378    1.2608790099    1.3092097996
 H   -5.1577033572   -1.1997477651    2.8055063620