16

 O    0.0905150347   -0.0447003874    0.3429584063
 C   -0.0014662661    1.1151346869    0.0180260946
 C   -1.3575729013    1.7917246531   -0.1362613005
 C   -1.4603420864    2.8616270023   -1.2316596183
 N   -0.6315027986    4.0310316483   -0.9734048072
 C    0.7224907956    4.0685492470   -1.1445390539
 O    1.3849168607    5.0706162457   -1.1877989538
 O    1.2720152963    2.8136711904   -1.3016689082
 C    1.2716663969    1.9490129527   -0.1640250221
 H   -2.0943598445    1.0003712154   -0.2988706240
 H   -1.5890966955    2.2593536679    0.8309729305
 H   -1.2133065052    2.4271541291   -2.2068187119
 H   -2.4953146969    3.2086427071   -1.2852864258
 H   -1.0686994674    4.9383427571   -0.9409405599
 H    1.4524187601    2.5258478809    0.7546458022
 H    2.1017557075    1.2538124333   -0.2982418979