22

 C   -0.1811171887    1.4066370098   -0.2827555509
 C    0.0187247770   -0.0823310674   -0.1441398091
 C    0.7844732756   -0.8264330456   -1.1665886898
 N    1.3956621825   -0.4954529871    0.1890902665
 C    1.3106786554   -1.9633669567    0.5188466973
 C    0.7935738958   -2.3286910043   -0.8912307117
 C   -0.4469894842   -3.1973556634   -1.2289761236
 C    0.3059945397   -3.7305305412   -2.4781984018
 C    1.6298512969   -3.2162418051   -1.8506728851
 H    0.6755495552    1.8638088893   -0.7856815444
 H   -1.0832862569    1.6271141198   -0.8633812030
 H   -0.2834273475    1.8774891279    0.7002848572
 H   -0.7900555840   -0.6099205382    0.3643922934
 H    1.1403168945   -0.3524729545   -2.0786800813
 H    2.3068891668   -2.3612504592    0.7310142316
 H    0.6493874013   -2.1841411705    1.3656661596
 H   -0.6015193044   -3.9808741070   -0.4799375799
 H   -1.3940010687   -2.6732812407   -1.3846166189
 H    0.2334496592   -4.7985356081   -2.6949220027
 H    0.0394031987   -3.1762620912   -3.3822773711
 H    2.3456327059   -2.7089047823   -2.5036116494
 H    2.1577965697   -4.0051856641   -1.3049125029