16

 C    0.0587895670   -1.1756151067    0.4240923341
 C    0.0882022440    0.0147710868    0.2607587046
 C    0.0892502544    1.4324612377    0.0306803249
 N    0.7339197774    2.3008185893    1.0479891156
 C    1.3313063731    2.2166596872   -0.2831710322
 C    2.6957999092    1.6006590544   -0.3681245152
 C    3.7789895160    2.1415265590    0.4945760661
 N    3.2230665626    0.8027168875    0.7395261905
 H    0.0527230174   -2.2268250172    0.5741367196
 H   -0.8261017264    1.8121015339   -0.4192855985
 H    0.2008192554    3.1577861036    1.1631101200
 H    1.1772438896    3.0558611563   -0.9615979549
 H    2.9501292289    1.2210113404   -1.3558461387
 H    4.8046852185    2.1608280623    0.1372508016
 H    3.5133314556    2.9417673214    1.1808978390
 H    2.5611533273    0.8566217040    1.5127978136