17

 N   -0.6327163222    1.2569905562   -0.2690107220
 C   -0.3285592376    0.0334271370   -0.2465833178
 O   -1.2547081724   -0.8659520172    0.1717289278
 C   -0.8585181653   -2.2429023978    0.1620049919
 C   -2.0072565639   -3.0518677287    0.7545654135
 C   -2.8954702075   -3.2832302564   -0.4750236394
 O   -1.9798498613   -3.3558608904   -1.5881342122
 C   -0.7974338091   -2.7671268653   -1.2691113413
 N    0.2015548350   -2.6471802528   -2.0319163349
 H    0.1643774804    1.8028943033   -0.5903951844
 H    0.6245866531   -0.4195609432   -0.5376129949
 H    0.0989582322   -2.3688871517    0.6730601334
 H   -1.6280653492   -4.0040686126    1.1363630856
 H   -2.5118741869   -2.5181802429    1.5605756135
 H   -3.4582281349   -4.2179911096   -0.4476403341
 H   -3.5857582896   -2.4501423718   -0.6414171058
 H    0.0048394492   -3.0334401661   -2.9573356889