21

 C    0.0111980952    1.4717295491   -0.0684963945
 C   -0.0500467548   -0.0379334098    0.0324381601
 C   -0.3206148379   -0.6712738962    1.3848716686
 C    1.0453607886   -0.7909574376    0.7393280302
 O    1.4919162207   -2.0031584998    0.1810648336
 C    0.9496530992   -2.3037493877   -1.1011188100
 C    0.8662881695   -1.0498714134   -2.0178328294
 C   -0.4673764418   -0.7462638156   -1.2586116787
 C   -0.6011575596   -2.2848548633   -1.0789198984
 H    0.6040743172    1.7903800575   -0.9338881686
 H   -0.9935916697    1.8968595415   -0.1795972915
 H    0.4613963393    1.9150283054    0.8250986672
 H   -0.4036066201   -0.0029592665    2.2364424666
 H   -0.9385014332   -1.5570467484    1.4579363513
 H    1.8686610410   -0.2471911659    1.1940068430
 H    1.4788800908   -3.1938299825   -1.4439775481
 H    1.6759669951   -0.3190584507   -1.9523492099
 H    0.7043127618   -1.3375467552   -3.0594296523
 H   -1.2711897730   -0.2149768761   -1.7743517065
 H   -1.0111303710   -2.7437934319   -1.9825890715
 H   -1.1112961172   -2.6956622928   -0.2066475910