16

 C   -0.0310443700    1.5500517463    0.0304933944
 C   -0.0171068038    0.0173344143   -0.0033254705
 O   -1.3551731924   -0.4888694385   -0.0376647351
 C    0.7382291526   -0.5606752377   -1.2161900238
 C    1.9671632494   -1.2823358875   -0.6447603133
 O    2.8687398469   -1.7696319155   -1.2834870144
 C    1.8272537513   -1.2609198423    0.8338230008
 C    0.7452589291   -0.5605130543    1.1815850153
 H    0.9833818241    1.9579172227   -0.0113589026
 H   -0.6014467269    1.9338373149   -0.8204020121
 H   -0.4994195191    1.9162554568    0.9524353702
 H   -1.8447510530   -0.0911473375    0.6910878139
 H    0.1021297969   -1.2878032955   -1.7282781080
 H    1.0411132444    0.1913428408   -1.9484946734
 H    2.5306319651   -1.7573026172    1.4906269323
 H    0.4018496053   -0.3862848099    2.1976949163