21

 C   -0.0692347918    1.6444409911   -0.0067335595
 C   -0.2343346025    0.1579770226    0.2128513589
 C   -1.3796506641   -0.4773725503   -0.5582448941
 O   -1.1475704348   -0.4147133837   -1.9551868528
 O    0.9704941800   -0.6366285230    0.1174880013
 C    0.2981444568   -0.5548396335    1.3875791996
 C    1.0536918630    0.0772870568    2.5305814973
 C    2.1635875300   -0.8435047287    3.0542751258
 O    2.8334123888   -0.3040478522    4.1812356151
 H    0.8901041526    2.0047288984    0.3664941957
 H   -0.1266837019    1.8561999790   -1.0781698163
 H   -0.8723166470    2.1992328180    0.4905959970
 H   -1.5168621801   -1.5156024313   -0.2220491557
 H   -2.3141486834    0.0644718349   -0.3761663110
 H   -0.3060446665   -0.8608674083   -2.1080066831
 H   -0.2090275343   -1.4847117343    1.6598708070
 H    1.4929864291    1.0304820831    2.2185863727
 H    0.3572322425    0.2911724531    3.3506738259
 H    1.7325317415   -1.7925679008    3.3922477925
 H    2.8622586400   -1.0762361976    2.2373068413
 H    3.3212750022    0.4730073066    3.8906486424