16

 O    0.0839386244    0.0542686715    0.4769997492
 C   -0.0138034125    1.2035116104    0.1748409773
 C   -1.1892361635    2.2468176073    0.1116445012
 C   -2.1258520053    2.2541269842    1.2078113778
 C   -2.8801152613    2.2627490970    2.1441614546
 C   -0.0293474040    3.2895570670    0.0679575434
 C    0.6845773639    3.6978588733    1.3828370196
 C    1.7888122290    2.6535490031    1.0340798266
 N    0.9670530098    2.1773929803   -0.1334069894
 H   -1.7082255497    2.1986676823   -0.8522151056
 H   -3.5574305363    2.2611976726    2.9621640208
 H   -0.0904766630    4.0434954113   -0.7180091132
 H    1.0104636027    4.7376806677    1.4345939762
 H    0.1082103673    3.4590653549    2.2796790169
 H    2.7334263268    3.0862142749    0.6981414980
 H    1.9897879518    1.8665162922    1.7641373568