14

 C   -0.0279916430    1.5065313329    0.0203408472
 C   -0.0159797799   -0.0065110058   -0.0571454957
 C    0.7716734674   -0.6992024538   -1.1018533077
 O    1.2515495063   -0.6291698612    0.2353440915
 C   -1.1678008523   -0.6744240610    0.4963105983
 C   -2.1531145677   -1.1939300003    0.9708224953
 C   -3.2550072204   -1.7906269325    1.4987833198
 C   -4.2344337457   -2.3193380111    1.9672908303
 H    0.8890488012    1.9083521043   -0.4170806133
 H   -0.8898616531    1.9122470396   -0.5174503252
 H   -0.0912566063    1.8324249043    1.0623531191
 H    0.4616807614   -1.6857021201   -1.4407615123
 H    1.3120649661   -0.0961677836   -1.8310653373
 H   -5.0938786940   -2.7865348718    2.3799079300