20

 O    0.0178497067    1.5094845000    0.0673641403
 C    0.0274324455    0.0905930205    0.0027021826
 C   -1.3753660405   -0.5263939351    0.0455180966
 C   -2.1033686015   -0.2132962963    1.3723378197
 C   -3.5605462899   -0.5749960998    1.3013083516
 C   -4.2227354687   -0.5722718991    0.1427284915
 C   -3.5639392805   -0.2147904880   -1.1358362999
 C   -2.8438217083    1.0974757733   -1.2397928889
 N   -2.0966570406   -0.1559881530   -1.1800597435
 H   -0.3063107255    1.8309982543   -0.7792792240
 H    0.5454442613   -0.2605949375   -0.9001562986
 H    0.5986175978   -0.2485327254    0.8737786223
 H   -1.2493338290   -1.6155598567   -0.0187607199
 H   -1.6116886918   -0.7632705736    2.1837886482
 H   -1.9680704679    0.8493894330    1.6122045202
 H   -4.0696103469   -0.8403105943    2.2233153020
 H   -5.2724152601   -0.8466007524    0.0954992454
 H   -4.0195822292   -0.6182934861   -2.0376566115
 H   -2.7992116015    1.6174330326   -2.1944412777
 H   -2.8813634094    1.7435531636   -0.3670420665