17

 O   -0.1528497308    1.4679242862    0.0112734849
 C    0.0396340818    0.0614369560    0.0029564305
 C   -1.3493859736   -0.5649221387    0.0116919507
 C   -1.3228074061   -2.0594067264    0.0043562086
 N   -0.2677802512   -2.7854833264   -0.0062484449
 C   -0.7203963614   -4.1767760482   -0.0101714193
 C   -2.2546734360   -4.1410349003    0.0012564723
 O   -3.0614109722   -5.0364191835    0.0011730128
 N   -2.5231208461   -2.7759540545    0.0087959419
 H    0.7121836437    1.8873067908    0.0075242801
 H    0.5898234672   -0.2729431470   -0.8870885185
 H    0.6047674467   -0.2814024514    0.8803065732
 H   -1.8999400928   -0.2138257470    0.8942444822
 H   -1.9148107412   -0.2054144210   -0.8579734168
 H   -0.3566804262   -4.7096322967   -0.8958034833
 H   -0.3440554237   -4.7186500912    0.8646432367
 H   -3.4528355381   -2.3883727607    0.0162998989