17

 N    0.0419381881    1.2188973728    0.0328898244
 C   -0.0315567442   -0.0307304667   -0.0061665679
 O    0.9792680584   -0.9963044423   -0.0055630871
 C    0.0533724907   -2.0899548130   -0.2828309245
 C   -0.3432707476   -2.8878509353    0.9780535822
 C   -1.5115622739   -1.8967836817    1.2088597299
 C   -2.8309303323   -2.1548184116    0.4168494141
 N   -2.4697230869   -1.0625175451   -0.5299608312
 C   -1.1172678623   -1.0619296114   -0.0596408559
 H    1.0124532095    1.5342739298    0.0780613632
 H    0.3021537161   -2.5885919084   -1.2205512977
 H   -0.6459594752   -3.9216732814    0.7888908069
 H    0.4309501658   -2.8799000897    1.7485539442
 H   -1.6319636735   -1.4265064140    2.1829444405
 H   -2.8729375431   -3.1581825991   -0.0282471992
 H   -3.7652007405   -1.9684985333    0.9542787602
 H   -2.6269298491   -1.2145774095   -1.5206687720