23

 C    0.0008069191    1.3554614242   -0.0880616253
 O    0.0202688039   -0.0487861139   -0.0068663458
 C   -1.2699264891   -0.6193270811   -0.0032388399
 C   -1.1437297883   -2.1389107463    0.1146653096
 C   -0.4609892766   -2.5375541694    1.4294803248
 C   -2.5142012840   -2.7964559064   -0.0290127299
 C   -3.2161428389   -2.7663026550   -1.4076133451
 O   -3.3399909200   -4.2016847311   -1.4288198163
 C   -2.5697510633   -4.3304448259   -0.2169914889
 H    1.0382161501    1.6987820853   -0.0904044764
 H   -0.4910990551    1.7052076600   -1.0098648351
 H   -0.5217219319    1.8080201618    0.7699141116
 H   -1.8629471446   -0.2228829967    0.8413411433
 H   -1.8067450330   -0.3470909176   -0.9287999387
 H   -0.5132541240   -2.4730818896   -0.7214707103
 H   -1.0732821534   -2.2436452906    2.2908635675
 H   -0.3040885043   -3.6194910331    1.4847603090
 H    0.5088284378   -2.0441104913    1.5210770879
 H   -3.1749315749   -2.4586891100    0.7765778138
 H   -4.1922062795   -2.2693998404   -1.4573556684
 H   -2.5888001215   -2.3978080339   -2.2322702721
 H   -1.5937648073   -4.8017106475   -0.4013455627
 H   -3.1018173412   -4.9063024118    0.5490652572