16

 C   -0.0611317375    1.5160311830   -0.0113004124
 C    1.4346769400    1.8912864672   -0.0207087538
 O    2.1729611869    1.4699875505    1.1229859788
 C    2.2650604138    0.6670604786   -0.0855812130
 C    1.3189362456   -0.4737629683   -0.0982053860
 C    0.0360369609    0.0174085647   -0.0330113001
 N   -0.8236987915   -1.0357126416    0.0672072907
 C   -0.0910510845   -2.2093135529    0.0380053988
 C    1.2477052458   -1.8919263122   -0.0573395278
 H   -0.5575769902    1.9147077828    0.8815399109
 H   -0.5711992502    1.9378771428   -0.8872658099
 H    1.7382900803    2.8437906809   -0.4483390035
 H    3.2511055131    0.6404204674   -0.5385493681
 H   -1.8266061504   -0.9867001460    0.1137965215
 H   -0.5871831262   -3.1657652511    0.0777233356
 H    2.0594898940   -2.6022586258   -0.0886617116