15

 C    0.0593116254    1.4876706168    0.0150518953
 O    1.2244835693    0.6615268736   -0.0001743096
 C   -0.0646799583    0.0281340329    0.0047826665
 C   -0.3959513301   -0.7268753041    1.2665035059
 O    0.1276069656   -2.0627768330    1.2201781090
 C    0.1328569571   -2.6582173221    0.0014234271
 N   -0.1222335680   -2.1751174966   -1.1377218574
 C   -0.4326401066   -0.7510299050   -1.2398221921
 H   -0.1118208208    2.0438130515    0.9368543814
 H   -0.1350473512    2.0455030863   -0.9006052558
 H    0.0527200436   -0.2505238292    2.1400750662
 H   -1.4840397241   -0.7842335254    1.4048153683
 H    0.4151472220   -3.7037343383    0.1099429718
 H   -1.5038023358   -0.6403588344   -1.4580770157
 H    0.1098499919   -0.3370906130   -2.0959422708