19

 C    0.1089549396    1.0716609868   -0.3583666892
 O    0.0115336212   -0.2811774899    0.0298895477
 C    0.6263226327   -0.5588233635    1.2710898622
 C    0.5521495680   -2.0729851895    1.4522789599
 O    1.1612021215   -2.7267655919    0.3545446566
 C    1.2760296748   -2.5355167498    2.7081448396
 O    1.0180234988   -3.9152616564    2.9688355947
 C    1.8406167674   -4.8217437453    2.3939974367
 O    1.6637259687   -5.9969988545    2.5020693078
 H    1.1577043553    1.3896985209   -0.4589094969
 H   -0.3873233993    1.1685349661   -1.3264814097
 H   -0.3871883851    1.7358841142    0.3648754152
 H    1.6786329767   -0.2288328750    1.2609468933
 H    0.1094381265   -0.0366630935    2.0926638007
 H   -0.5076186342   -2.3611828908    1.5363790465
 H    0.7900338347   -2.3220199437   -0.4389120455
 H    2.3537481908   -2.3606473115    2.5976421620
 H    0.9181318846   -1.9904598529    3.5852934595
 H    2.6768125473   -4.3555010398    1.8442494790