17

 C   -0.1063624895    1.5565872440   -0.0304016280
 C    0.0521309631    0.0353097943   -0.0169758436
 N    0.7471197513   -0.4662412050   -1.1891330988
 N    0.0861932619   -0.6275438749   -2.3674240730
 C    1.0090484418   -1.0509757351   -3.2286804196
 C    2.2773027162   -1.1428945143   -2.6217982114
 O    3.4962493794   -1.5874182818   -3.0854082740
 C    2.0612207391   -0.7540391521   -1.3140173303
 O    2.9077912630   -0.6558184365   -0.2662512570
 H    0.8692951920    2.0513473326   -0.0206874149
 H   -0.6473935822    1.8714707759   -0.9263213075
 H   -0.6674025699    1.8854087439    0.8498065680
 H    0.6170741418   -0.2914707490    0.8599862986
 H   -0.9253125446   -0.4535226383    0.0042515802
 H    0.7345738842   -1.2731750424   -4.2498244925
 H    3.7607156641   -1.0491367837   -3.8384994793
 H    3.7693486482   -0.9612461077   -0.5775666267