17

 C   -0.0522421912    1.5061693192    0.0215277423
 C   -0.0078123226    0.0029341687    0.0068320198
 N   -0.2140295234   -0.6149144448   -1.1623162003
 C   -0.1726790325   -1.9474727802   -1.1656417384
 C    0.0743430312   -2.6855120709   -0.0064416322
 C    0.1249413343   -4.1928395302    0.0098308814
 O   -0.1114577226   -4.6864799430   -1.2948265174
 N    0.2810096220   -2.0759222239    1.1636389501
 C    0.2387763364   -0.7458171068    1.1620837095
 H    0.1278567560    1.9034669440    1.0235913401
 H    0.7007140008    1.9182507981   -0.6578152732
 H   -1.0266527730    1.8639422312   -0.3259515297
 H   -0.3392959046   -2.4510476769   -2.1109768316
 H    1.1092784058   -4.5029901334    0.3945908049
 H   -0.6249236662   -4.5575628515    0.7294436263
 H   -0.0751152929   -5.6460212600   -1.2652759467
 H    0.4071741925   -0.2498311895    2.1155260451