16

 C   -0.2397901840    1.4786772910   -0.0289042464
 C    0.0311587342   -0.0223378887    0.0128356883
 C    1.2211185204   -0.4854301069   -0.8794818961
 C    2.1247313230   -0.5316777227    0.3946659973
 C    0.8272260938   -0.4968964948    1.2649417222
 C    3.0254152611   -1.6595122130    0.5540661347
 N    3.7248477251   -2.5724401858    0.6776332841
 H    0.6743417906    2.0594045314    0.1420728507
 H   -0.6440098990    1.7775403862   -1.0018187032
 H   -0.9638748469    1.7682338196    0.7399479182
 H   -0.8996776271   -0.5679769378   -0.1610603869
 H    1.0706093780   -1.4820648538   -1.2988214987
 H    1.5454873773    0.1894671293   -1.6746984911
 H    2.6976949438    0.3926143833    0.5048572595
 H    0.8465573512    0.1691324236    2.1304485033
 H    0.5394136086   -1.4975232508    1.5931008340