20

 C    0.0495018097    1.5303551665   -0.3043896191
 C   -0.0136921266    0.0580575103    0.1205322940
 C   -1.4235500915   -0.4920209804    0.1337257722
 C   -1.9956664865   -1.1048248878   -1.0846798191
 N   -1.5560716875   -1.9670287423    0.0540538357
 C   -2.6796872403   -2.3549143602    0.8622724689
 O   -3.0268457286   -3.4919769177    1.0082151941
 C   -3.3412418002   -1.1179793706    1.4924589421
 C   -2.4103399104    0.0601523083    1.1706832667
 H    1.0833545136    1.8869884420   -0.3144109576
 H   -0.3636419579    1.6705489483   -1.3089711159
 H   -0.5147667617    2.1726800260    0.3797804286
 H    0.5935056541   -0.5545211612   -0.5541430404
 H    0.4205590542   -0.0597445731    1.1216586121
 H   -3.0640864640   -1.0231489240   -1.2717693057
 H   -1.3902189751   -1.2187452242   -1.9788267485
 H   -4.3389927164   -1.0128835442    1.0538708077
 H   -3.4904612311   -1.2855604308    2.5611134576
 H   -1.8502132577    0.3662569657    2.0600277243
 H   -2.9432214563    0.9428564591    0.8068379924