19

 C    0.0571744956    1.4873129012   -0.0467765776
 C   -0.0788205714    0.0079097947    0.0043847320
 C   -1.1258203527   -0.8443587232   -0.1599266550
 C   -0.6180029509   -2.1807590943    0.0197806729
 C   -1.3779765178   -3.4681911177   -0.0791372238
 C   -1.7895920688   -3.8024015036   -1.5144479664
 O   -2.5230488006   -5.0165331567   -1.4799790943
 C    0.7069097485   -2.0225204493    0.2779648086
 O    1.0529462202   -0.7045256008    0.2737151293
 H    0.7667870433    1.8000906236   -0.8213455417
 H   -0.9113942498    1.9412672335   -0.2674828069
 H    0.4160361537    1.8917840419    0.9065788164
 H   -2.1455133975   -0.5618470012   -0.3752758165
 H   -0.7748638653   -4.2961748883    0.3080283860
 H   -2.2871044897   -3.4282569832    0.5327395942
 H   -2.3939415431   -2.9793674447   -1.9280183610
 H   -0.8880056057   -3.8907716069   -2.1406207793
 H   -2.7751558934   -5.2416936531   -2.3800336880
 H    1.5047201553   -2.7169352319    0.4861378512