16

 O    0.1201682538    1.3367953018    0.2736977118
 C    0.0825736835   -0.0118441603    0.0319981037
 C    0.0648098908   -0.7105824588   -1.1516880390
 N    0.0274744690   -2.0485847260   -0.8215358934
 C    0.0204225351   -2.2111957344    0.5409388829
 C    0.0547946873   -0.9505604400    1.1017998392
 N    0.0642700388   -0.5568001810    2.4418860040
 C    0.0397805993   -1.3718436613    3.5337636613
 N    0.0035259825   -2.6493079955    3.4580775277
 H    0.1368539714    1.8090782629   -0.5632501633
 H    0.0756994130   -0.3744081766   -2.1751737326
 H    0.0047107564   -2.8010018997   -1.4842175217
 H   -0.0071374326   -3.1715739001    1.0197323415
 H    0.0925601500    0.4370442085    2.5965686555
 H    0.0551319839   -0.7937537380    4.4657339927
 H   -0.0089772322   -3.0490474015    4.3930185998