22

 C    0.0578943016    1.6655423227    0.0073403479
 C    0.0709283086    0.1412446218   -0.0040907153
 C    1.0698259240   -0.6602154925   -0.8916404002
 C    2.4447141512   -0.2408888882   -0.3575134209
 N    2.1279392797   -0.8925024218    0.9537833189
 C    0.6389367971   -0.6700738251    1.1672029196
 C    0.1419615701   -0.7256390142    2.5780177963
 C    1.1099493192   -1.7476986666    0.2607896915
 C    1.0704011900   -3.2375848249    0.2899892978
 H    1.0331215697    2.0906542127    0.2597745252
 H   -0.2397332166    2.0612718336   -0.9703729529
 H   -0.6612192452    2.0395002350    0.7445096200
 H   -0.9409682487   -0.2326237108   -0.2039150414
 H    0.8691132806   -0.8167618848   -1.9512551215
 H    3.2687416357   -0.7910605148   -0.8207887846
 H    2.7017827363    0.8232767436   -0.3141858834
 H    0.3006557348    0.2310017014    3.0887868321
 H   -0.9300928508   -0.9504316480    2.6085201451
 H    0.6737090672   -1.4941027087    3.1455708340
 H    0.1139463565   -3.6173303027   -0.0866834219
 H    1.8682920385   -3.6722735963   -0.3229173574
 H    1.2016760006   -3.5987837816    1.3147566012