14

 O   -0.0109561053    1.4959088027    0.0726645230
 C    0.0246062785    0.1021283410   -0.0093334614
 C   -1.3326669872   -0.6084062805   -0.2014703490
 C   -1.9808181114    0.1079018681   -1.3974640980
 C   -0.7216960162    0.1068102177   -2.2929267659
 O   -0.5552489556    0.5455741096   -3.3947796455
 C    0.2659890564   -0.6272012930   -1.3690254335
 O   -0.5952770135   -1.6937600364   -0.8588512309
 H    0.8860855813    1.8313758075    0.1654800381
 H    0.6101316696   -0.3736548490    0.7843954391
 H   -1.9558624883   -0.9326184546    0.6301949068
 H   -2.7950012046   -0.4742286661   -1.8348667923
 H   -2.3194147737    1.1263589175   -1.1954693823
 H    1.2305380001   -0.9461711944   -1.7581542983