15

 C    0.0113913384    1.5686025918    0.0341791729
 C   -0.0579390812    0.0380475962    0.0109463978
 O   -1.3913194005   -0.4297997143   -0.0207250409
 C    0.7405302576   -0.5491906116   -1.1659568496
 O    0.3961753802   -0.4853145616   -2.3229327865
 C    1.9345042844   -1.2444887190   -0.6186365002
 C    1.8858128542   -1.2657668095    0.7233431043
 C    0.6690580812   -0.5639504135    1.2306795581
 O    0.3340952073   -0.4658411986    2.3831334680
 H    1.0426938925    1.9307170409    0.1024582732
 H   -0.4326711744    1.9678486256   -0.8827285068
 H   -0.5485202588    1.9326252015    0.8988352214
 H   -1.6894897492   -0.3414237912   -0.9359445697
 H    2.6936703235   -1.6819701294   -1.2560252585
 H    2.6014908550   -1.7209326372    1.3977681964