17

 C    0.2450292319    1.2224727199    0.6074190892
 C   -0.2067207181    0.3631180624   -0.5878062432
 C   -1.5158478064   -0.2480781093   -0.3907616708
 C   -2.5965659078   -0.7448985678   -0.2016332049
 C   -3.8985700069   -1.3268947958    0.0149933754
 C   -4.2356605227   -2.6337399877   -0.6113898927
 O   -3.9238552288   -2.5655667496    0.7678717180
 C   -4.9673050112   -0.4022976963    0.3178462151
 C   -5.8521329098    0.3732722945    0.5594621842
 H    1.2290419684    1.6577925757    0.4104715104
 H   -0.4625500889    2.0353050800    0.7905095577
 H    0.3090923885    0.6192491253    1.5167085522
 H   -0.2310670074    0.9777950530   -1.4968006434
 H    0.5327841650   -0.4253076987   -0.7771083373
 H   -5.2765642515   -2.8397723639   -0.8552166333
 H   -3.4884712463   -3.1069929108   -1.2462157006
 H   -6.6327533678    1.0588733193    0.7799110539