19

 C    0.2353500918    1.6620073595    0.0088551246
 C    0.1108367465    0.1452430016    0.0285360742
 C    0.5522846584   -0.7171076603   -1.2074278236
 C    1.2999472087   -1.7116813575   -0.2792014374
 O    0.5224568203   -2.8722715891   -0.0561479058
 C    2.7555270571   -2.0823889879   -0.5281644632
 O    3.2229462312   -2.8300353365    0.5891869916
 C    1.1250481275   -0.6594782514    0.8492481945
 O    1.7101197492   -0.4818479414    1.8856897901
 H    1.2369618265    1.9715216999   -0.3077098767
 H   -0.4895069470    2.1076819320   -0.6792199957
 H    0.0580248113    2.0760505934    1.0058051716
 H   -0.8977355700   -0.1564113568    0.3381081778
 H   -0.2486467505   -1.1719052351   -1.7899315074
 H    1.2310057462   -0.1747214400   -1.8720213667
 H    1.0799360123   -3.4466528468    0.4891329734
 H    2.8388359313   -2.7353861811   -1.4035323010
 H    3.3657636385   -1.1847708872   -0.7048894701
 H    3.1812139904   -2.2368376652    1.3527233398