22

 C    0.0619686846    1.5637662434    0.0770140622
 C    0.0079040313    0.0337248157    0.0649567338
 C    0.7639509019   -0.5959198351    1.2406049137
 C    0.7026133817   -2.1139127062    1.2170412618
 O    1.4386619131   -2.6043796637    2.3561363499
 C    1.4923231552   -3.9407327980    2.4972711268
 O    0.9718918656   -4.7249575087    1.7430309595
 C    2.2972388286   -4.3271575765    3.7368580514
 N    2.4133728530   -5.7541585732    3.9777439539
 H    1.0953272405    1.9232421576    0.0220727275
 H   -0.4842841850    1.9876469527   -0.7710056872
 H   -0.3797817651    1.9677015820    0.9944907443
 H   -1.0389096522   -0.2965431975    0.0859699048
 H    0.4249901589   -0.3406649188   -0.8790811187
 H    1.8144605276   -0.2804647494    1.2221772184
 H    0.3472040736   -0.2361917823    2.1894668506
 H   -0.3276680792   -2.4814543068    1.2744654764
 H    1.1450966400   -2.5259388727    0.3036473332
 H    3.2943772017   -3.8809843800    3.6430936539
 H    1.8368172006   -3.8375438755    4.6031379519
 H    1.4806447015   -6.1537354794    4.0413271010
 H    2.8225650622   -6.1937353974    3.1573658609