23

 C   -0.0101979695    1.5140367416    0.1327773316
 C    1.3048787386    0.7852344237    0.0223373197
 C    0.0036730775    0.0100242427    0.0303234155
 C   -0.0878924161   -0.6877385999   -1.3462306780
 C    1.4121949422   -0.8921901927   -1.6757106156
 C    1.9496191749    0.5260212805   -1.3587200383
 C    1.5028648349    1.5065038281   -2.4766893635
 C    0.2817009263    0.9890758072   -3.2792801864
 C   -0.7474642496    0.1660578909   -2.4628267890
 H   -0.2543097523    1.9337432837    1.1041342053
 H   -0.3733171481    2.1149720373   -0.6930248743
 H    1.9627106158    0.7868047319    0.8848386583
 H   -0.3030626565   -0.5630561460    0.8987387321
 H   -0.6279074486   -1.6326606283   -1.2450178444
 H    1.8527898043   -1.6247691035   -0.9913751215
 H    1.6068165572   -1.2294448015   -2.6998749312
 H    3.0385466193    0.5514490554   -1.2674643409
 H    1.2969482857    2.4891264647   -2.0409296136
 H    2.3301360900    1.6587652843   -3.1784175308
 H   -0.2192857621    1.8249697775   -3.7790715843
 H    0.6575713700    0.3497379973   -4.0851447742
 H   -1.2817047210   -0.4926015446   -3.1561800892
 H   -1.5094296730    0.8174460898   -2.0235742574