21

 C    0.7925492273   -0.2529375551   -1.3400149557
 C   -0.0163943765   -0.0928339469   -0.0519125297
 C    0.7046281217   -0.6230566726    1.2104421476
 C   -0.1078685133   -0.3046328932    2.4858750341
 C    0.6142786536   -0.7056075980    3.7866469411
 C   -0.1589282353   -0.3833877159    4.9792429171
 C   -0.8174104559   -0.1072349428    5.9463060624
 C    0.9819942779   -2.0556733170    1.1028606289
 C    1.1837095426   -3.2385250119    1.0166323434
 H    1.0226650384   -1.3049412219   -1.5313291324
 H    0.2373872608    0.1352709268   -2.1991619970
 H    1.7414262086    0.2921995505   -1.2825883721
 H   -0.2443325864    0.9668332177    0.1146545550
 H   -0.9784118269   -0.6101613000   -0.1473049369
 H    1.6694257581   -0.0984105499    1.2867686594
 H   -0.3158853664    0.7704438116    2.5059917440
 H   -1.0747109705   -0.8166860820    2.4376136056
 H    0.8298015520   -1.7803886959    3.7629159541
 H    1.5882066858   -0.2000961692    3.8350940400
 H   -1.3893072537    0.1300587588    6.8086110835
 H    1.3739834482   -4.2804866331    0.9397798977