18

 C    0.1802903674    1.1904517153    0.4653937782
 N   -0.0587719652   -0.0784952303   -0.2196486995
 C   -1.3832751714   -0.5968975754   -0.0851732767
 C   -2.4405022597    0.1196639746   -0.7785758232
 N   -3.2379469170    0.7270197146   -1.3582178828
 C   -1.6297244780   -2.1035853543    0.0055445641
 C   -0.4817568489   -2.7446089319    0.7954624301
 N   -0.6841926137   -1.7709073050    1.9274354472
 C   -1.8501591749   -1.2279494454    1.2204655655
 H    1.2108742099    1.5032769256    0.2781748897
 H   -0.4928794046    2.0032423712    0.1508209286
 H    0.0642985020    1.0329052859    1.5409950425
 H    0.1972390960   -0.0218891657   -1.1989163514
 H   -2.3163836207   -2.6018435637   -0.6659782578
 H   -0.7168811377   -3.7741208631    1.0782944096
 H    0.5150639868   -2.6918779047    0.3523139917
 H   -0.9820641871   -2.2622879240    2.7637039304
 H   -2.7465665133   -0.8886024236    1.7253790737