20

 C    0.5522824851    1.2630087293   -0.3006852636
 C   -0.1589649654   -0.0200655720    0.1365840977
 C   -0.1045860019   -1.1028540940   -0.9345665612
 O    0.4330467025   -0.5840847841    1.3067896506
 C    0.1773261805    0.1025028901    2.5052403491
 C    0.6254596187   -0.7175587220    3.7179821326
 C    1.0652803590   -2.1425493980    3.4735048697
 O    0.6000068448   -0.2087120226    4.8139647963
 H    1.6072924994    1.0586533811   -0.5099134694
 H    0.0906421498    1.6618917349   -1.2093220223
 H    0.4977422366    2.0411153212    0.4658634768
 H   -1.2137046247    0.2150498328    0.3601612477
 H    0.9348689678   -1.3630224553   -1.1584960259
 H   -0.6177155407   -2.0055405489   -0.5929049726
 H   -0.5805650735   -0.7577647464   -1.8569482094
 H    0.6891064066    1.0745683755    2.5599830844
 H   -0.9011571526    0.3040841490    2.6291579670
 H    0.2605471010   -2.7074472224    2.9915827107
 H    1.9062343869   -2.1589040459    2.7732312380
 H    1.3435286800   -2.6062008923    4.4203048338