25

 C    0.7167838587    1.4706318702    0.4411916287
 C    0.2575739657    0.0474648599    0.1124340810
 C    0.9513143852   -0.5375325886   -1.1216980084
 C    0.4984097090   -1.9647786563   -1.4545647355
 C    1.2180829519   -2.5538421984   -2.6544737247
 C    0.5611995243   -3.6319289626   -3.4824690811
 C    0.7416993911   -2.2314888733   -4.0384517078
 O    2.6183879657   -2.6119307502   -2.5465987086
 C    3.0989978496   -3.5954864586   -1.6516949318
 H    1.7944436674    1.5025053875    0.6366596345
 H    0.5137939143    2.1541399406   -0.3908759835
 H    0.2058354136    1.8629728944    1.3261985010
 H    0.4424498295   -0.6052036309    0.9764064483
 H   -0.8299005145    0.0399811843   -0.0426604955
 H    0.7648818683    0.1101906692   -1.9888476401
 H    2.0378619052   -0.5339704681   -0.9731408371
 H    0.6455459206   -2.6113737753   -0.5786140885
 H   -0.5797559336   -1.9776479019   -1.6564844722
 H    1.2032972175   -4.4061495628   -3.8874068513
 H   -0.4365325503   -3.9633102706   -3.2148009378
 H   -0.1322894271   -1.5985835005   -4.1489446167
 H    1.5053579103   -2.0942603138   -4.7949369579
 H    2.8411208205   -3.3744857685   -0.6063603873
 H    2.7121204858   -4.5940894148   -1.8998320609
 H    4.1878049010   -3.6025483209   -1.7451888966