13

 O   -0.1297019482    0.0539228949    0.0028830811
 C    0.0012014071    1.2376983377    0.0081037583
 C    1.3975246807    1.9825257731   -0.0009575760
 C    1.3842076492    2.8221271664   -1.2087391751
 C    1.2994419047    3.4804732241   -2.2089829611
 C    1.4069317354    2.8089278395    1.2159348497
 C    1.3409867758    3.4563291768    2.2247044075
 C    2.5065411631    1.0264222534   -0.0165563472
 C    3.4045542968    0.2321178524   -0.0292990494
 H   -0.8397735400    1.9582581765    0.0198482179
 H    1.2542543362    4.0709413043   -3.0911572526
 H    1.3123461089    4.0371498832    3.1139474881
 H    4.2007838404   -0.4709572822   -0.0405758411