19

 C    0.1081561766    1.4015293861    0.0207356053
 O    0.1873457336   -0.0039923020    0.0618161095
 C    0.5476616858   -0.5678255754   -1.1828326827
 C    0.5355374011   -2.0570236015   -1.0508928766
 C    1.6836032500   -2.8591564477   -0.5565498355
 C    1.2212233715   -3.0878431592   -1.9939352207
 C   -0.0483584606   -3.8862806931   -1.9839424294
 O   -0.4508179383   -4.8052402394   -2.6389337415
 C   -0.7373172214   -2.9210555386   -0.9815771775
 H    1.0756790602    1.8583870208   -0.2420565305
 H   -0.6421965628    1.7478696822   -0.7077493546
 H   -0.1833327820    1.7412521095    1.0172238086
 H   -0.1616820588   -0.2471352818   -1.9656424289
 H    1.5495309124   -0.2218272630   -1.4915923102
 H    2.6367226389   -2.3442466225   -0.4854532239
 H    1.5378383931   -3.6313764090    0.1933492773
 H    1.8946069936   -2.9429124859   -2.8302443794
 H   -1.0189123661   -3.3087922826    0.0009976123
 H   -1.6128645267   -2.4613295569   -1.4502858515