18

 O    0.2118686831    0.0932304103    0.3710456722
 C    0.0538043422    1.2537782320    0.0593911591
 C   -1.2633659347    2.0366728462   -0.0140238257
 C   -0.8272950620    3.4880803900    0.2636725679
 C    0.6094397760    3.5351978020   -0.3150250851
 C    1.6992381850    4.2371221875    0.4580219870
 C    2.6945994642    3.4001737958    0.7465227662
 C    2.4258709633    2.0099988679    0.2146093002
 N    1.0553060885    2.1348926173   -0.2741283248
 H   -1.6941916065    1.9268386522   -1.0162750999
 H   -1.9794366214    1.6317381732    0.7021728913
 H   -1.4832384049    4.2387500617   -0.1825455024
 H   -0.7928986316    3.6667520809    1.3434422854
 H    0.5750665494    3.9078007490   -1.3518361848
 H    1.6591743701    5.2928141113    0.6964464814
 H    3.6091204502    3.6522005204    1.2693118020
 H    3.1299549979    1.7393454160   -0.5855518176
 H    2.4753552114    1.2166828164    0.9694389379