15

 N   -0.0649696393    1.2852122634   -0.0866834996
 C   -0.0342304554    0.0291255535   -0.0207810930
 O    1.0986162919   -0.7600825338    0.0427208964
 C    0.6252548872   -2.1317071814    0.1101391578
 C   -0.0302767588   -2.2915808099    1.4851715201
 O   -1.2225110873   -1.4927443004    1.3621934189
 C   -1.1972020109   -0.9461304874    0.0274691984
 C   -0.6120770464   -2.0970293595   -0.8037557411
 H    0.8811665688    1.6728676289   -0.0795822849
 H    1.4492672447   -2.8009180552   -0.1271918668
 H   -0.2960493983   -3.3319573957    1.7087671786
 H    0.6076289192   -1.8982504573    2.2833003342
 H   -2.1702901536   -0.5289435207   -0.2130326880
 H   -0.3675259157   -1.8283897087   -1.8327973535
 H   -1.2203347163   -3.0022041358   -0.7681702576