16

 C   -0.0814499196    1.3896550882    0.0024338627
 C    0.0203820794   -0.0965442203   -0.0183346533
 O   -1.1461116390   -0.8729445065   -0.3287817203
 C   -0.4054960032   -2.0377524788    0.1380987877
 C    0.6099377373   -1.1022031202    0.8995049124
 C    1.2546559414   -0.9003604497   -0.5045249325
 C    0.6803419130   -2.1995568896   -0.9255885324
 N    1.1054341389   -3.1031837699   -1.7013865770
 O    0.2770276602   -4.2493214826   -1.6399116250
 H    0.8707247336    1.8319615648    0.3093593736
 H   -0.3324467210    1.7703893783   -0.9925513656
 H   -0.8570545540    1.7118515276    0.7036487118
 H   -1.0167184860   -2.8509295542    0.5137779081
 H    1.0502082545   -1.1004636588    1.8861859288
 H    2.2045417677   -0.4496060799   -0.7540450668
 H    0.7071014568   -4.8360091583   -2.2706574522