17

 C    0.4808229096    1.0193433706   -0.1515905056
 O   -0.2953211347    0.0498298710    0.5405029347
 C    0.4305962643   -0.7126692828    1.4195977167
 C   -0.1245279742   -1.9927551679    1.8448569476
 C    1.1046515024   -2.0534390646    0.9133315073
 C    0.8903440364   -2.4386675094   -0.5002416826
 O    1.7323151925   -2.9566378426   -1.1966532148
 C    2.4119421213   -2.3634795088    1.5404778681
 O    2.6519199232   -2.1525655951    2.7096146574
 H    1.2303287004    0.5428655949   -0.7973780245
 H   -0.2117546284    1.5971933024   -0.7653178388
 H    0.9921811580    1.6914720923    0.5503893926
 H    1.0784740730   -0.1736901123    2.1115631392
 H    0.0695507436   -2.3236525701    2.8585108510
 H   -1.0659650678   -2.2993022098    1.4015139258
 H   -0.1238944778   -2.2126928212   -0.8934425661
 H    3.1658648882   -2.7889700266    0.8524799419