19

 C   -0.1720220970   -0.7352104467    1.3658559954
 C    0.0384510419    0.0928539797    0.1038147898
 O    0.1476459408    1.2925627984    0.1570185343
 N    0.1315726140   -0.6252387068   -1.1057651497
 C    0.0980406810   -2.0884929281   -1.1633708995
 C   -1.2980199936   -2.6332126696   -1.4969954949
 O   -1.7623135770   -2.1825535614   -2.7542158522
 C    0.2748823338    0.0147617032   -2.3527420334
 N   -0.1824358791    1.1643204679   -2.6236179545
 H   -1.0217338856   -1.4189489036    1.2883104161
 H    0.7158806593   -1.3299604049    1.6057991957
 H   -0.3466039482   -0.0311482934    2.1785585367
 H    0.7910449249   -2.4119017161   -1.9482099910
 H    0.4554307461   -2.5140428215   -0.2251026419
 H   -1.2462152061   -3.7261443068   -1.5566854217
 H   -2.0042327190   -2.3798518420   -0.6923361223
 H   -2.0050852792   -1.2538444779   -2.6722071309
 H    0.8153360571   -0.6261842727   -3.0601100913
 H    0.0755364757    1.4153247624   -3.5778772147