21

 C   -0.1102149980    1.4530775080   -0.7075779291
 O   -0.1643551949    0.0837483258   -1.0268879381
 C    0.7870908028   -0.6817515128   -0.3200215348
 C    0.6367049592   -2.1178600490   -0.7406376685
 C   -0.6740882152   -2.9392902020   -0.6331373151
 C    0.1573588968   -3.9100802705   -1.5291752229
 C    0.7433207427   -2.6286307040   -2.2008498600
 C    1.2994818915   -4.2508764389   -0.5641403433
 O    1.5930253147   -2.9351498052   -0.0379711823
 H   -0.3099410322    1.6319107565    0.3608802499
 H    0.8714243061    1.8906792844   -0.9491628546
 H   -0.8774752818    1.9577622429   -1.2997763372
 H    1.8124725359   -0.3379261797   -0.5357367991
 H    0.6349920203   -0.5968053328    0.7689267945
 H   -0.9689344597   -3.2753377854    0.3646616799
 H   -1.5092396166   -2.4775654001   -1.1595519279
 H   -0.2910999113   -4.7247640950   -2.0960769624
 H    0.0417435876   -2.1376526922   -2.8750308634
 H    1.7447051188   -2.6805772992   -2.6367376190
 H    1.0012696821   -4.9223232413    0.2497565959
 H    2.1860919713   -4.6625875193   -1.0607470125