18

 C   -0.0400041883   -1.2226316626   -0.1092648572
 C   -0.0017145455   -0.0233629299   -0.0392487852
 C    0.0109225144    1.4290117598    0.0501329089
 C   -0.4785234174    2.0221710804    1.4011523919
 C    0.6797810696    1.5988210189    2.3278699334
 C    1.8028151024    2.1148495314    1.4359405917
 C    1.2793888488    3.3045639541    0.7057659904
 C   -0.1644377704    3.5120981031    1.1513678156
 N    1.3953407650    1.9946899459    0.0109514471
 H   -0.0647966923   -2.2818794015   -0.1800403809
 H   -0.5522427848    1.8469832017   -0.7922318073
 H   -1.4890150701    1.7650642620    1.7110886333
 H    0.6494688156    2.1052570853    3.2974779023
 H    0.7230251545    0.5190817946    2.4898596692
 H    2.8511691974    1.9589253119    1.6570274192
 H    1.9037063706    4.1092353684    0.3373637003
 H   -0.7946357247    3.9601785977    0.3766649360
 H   -0.2400490649    4.1202472487    2.0582847712