22

 C   -0.0090807928    1.5792839753   -0.0219558371
 C    0.0261997302    0.0486630736   -0.0064274101
 C    0.6823451179   -0.5347336729    1.2395414006
 C    0.6813350586   -2.0591667919    1.2936166698
 C    1.4760894048   -2.5394674573    2.5158047277
 C    1.7256564370   -4.0483029545    2.4935585885
 N    2.7636264174   -1.8474843977    2.6356180373
 C    2.9205353879   -0.7527278767    2.0245722580
 O    2.0421304108   -0.0448412253    1.2753429139
 H    1.0012539795    1.9915314765    0.0357322103
 H   -0.4781198209    1.9497325874   -0.9381205708
 H   -0.5805777870    1.9701751997    0.8272662037
 H   -0.9930645750   -0.3528351214   -0.0642797512
 H    0.5634877045   -0.3257706254   -0.8863021087
 H    0.1796771714   -0.1396528108    2.1354140232
 H   -0.3498663893   -2.4271961086    1.3240827766
 H    1.1425518293   -2.4515544321    0.3780821935
 H    0.8986386675   -2.3074528768    3.4230264994
 H    2.3103914240   -4.3270874212    1.6106976888
 H    2.2905668128   -4.3494799698    3.3793500163
 H    0.7812269184   -4.6022955196    2.4717501424
 H    3.8782572927   -0.2345031605    2.0501834276