18

 C    0.1691265230    1.3713317305   -0.0570644238
 O    0.1058254065   -0.0606317787    0.0007358548
 C    0.6467261676   -0.6253468642    1.1074962018
 O    1.1568632089    0.0052057068    1.9940006307
 C    0.5519780831   -2.1429489229    1.0247136682
 O   -0.5754276995   -2.5729879101    0.3112552090
 C    1.9260999953   -2.7910079917    0.6277073492
 N    2.1593093282   -3.1181494017    2.0502369841
 C    0.7387922858   -2.8554803342    2.3846404802
 H    1.2083124883    1.7074617585   -0.0308699768
 H   -0.3024512418    1.6532204612   -0.9982245474
 H   -0.3654518251    1.8110608593    0.7881359144
 H   -0.7626169319   -1.9092284140   -0.3628443464
 H    1.7308650348   -3.6455550117   -0.0330976862
 H    2.6916051869   -2.1483314674    0.1785782703
 H    2.4695117816   -4.0671614935    2.2223956291
 H    0.5962181961   -2.2440746709    3.2795222921
 H    0.0921899423   -3.7406703152    2.4245206268