18

 C   -0.0363554895    1.5113713989    0.0435473319
 C    0.0199384599   -0.0165146748   -0.0252699484
 C    0.7287088048   -0.5184283287   -1.2757992981
 O    0.7376539969   -1.9287426906   -1.2615774009
 C    1.3747132083   -2.4960899016   -2.3860051735
 C    1.3242584701   -4.0096485704   -2.2611512781
 H    0.9682437986    1.9487564554    0.0516384582
 H   -0.5724236527    1.9310256023   -0.8150142904
 H   -0.5499239245    1.8455097521    0.9496491973
 H    0.5386015951   -0.4180676623    0.8528776336
 H   -0.9926731523   -0.4356871693   -0.0078068783
 H    0.2166561477   -0.1462644119   -2.1814455522
 H    1.7615909055   -0.1277020731   -1.3132890945
 H    0.8747500850   -2.1679956663   -3.3139343425
 H    2.4205015600   -2.1480946038   -2.4482245342
 H    1.8341989297   -4.3363647606   -1.3504002676
 H    0.2878322046   -4.3560270114   -2.2153214840
 H    1.8109300128   -4.4805581240   -3.1205742682