20

 C    0.1152729869    1.4936154633    0.0501100058
 C    0.0213225215    0.0016882662    0.0151062278
 C   -1.0665179960   -0.7767814809    0.0591987657
 C   -2.5075436569   -0.3889984161    0.1562834026
 C   -0.6890644564   -2.2385176254   -0.0032561984
 N    0.7678029438   -2.1935323192   -0.0894246246
 C    1.2791917265   -0.8259694182   -0.0829185987
 C    1.5833627071   -3.2690749383   -0.1672051340
 O    2.7957564513   -3.2128240231   -0.2381819312
 H    0.7175019865    1.8287954868    0.9039805092
 H    0.6120363017    1.8766240158   -0.8502528985
 H   -0.8641006268    1.9714119572    0.1220205243
 H   -3.0776917672   -0.7694978028   -0.7009076427
 H   -2.9720695009   -0.8163089711    1.0542000498
 H   -2.6431128841    0.6938088279    0.1933243639
 H   -1.0320115204   -2.7868913703    0.8879598200
 H   -1.1378078125   -2.7388538531   -0.8755466400
 H    1.8591221237   -0.6148785662   -0.9930152505
 H    1.9644521765   -0.6626171312    0.7614001750
 H    1.0200973656   -4.2248252111   -0.1593419257