15

 O   -0.0085349666    0.0237672390   -0.0644689774
 C   -0.0228140043    1.2167464290    0.0442984079
 C   -1.0827081725    2.2877477690   -0.0346462147
 C   -0.8510850724    3.2803590188    1.0575597579
 N    0.0022492099    3.3652089134   -0.1265187608
 C    1.0290085266    2.2996427475    0.0723466856
 C    2.3124123093    2.4456113007    0.8356343690
 C    2.3370065764    2.2678129566   -0.6605621573
 H   -1.9709109633    2.2910763809   -0.6550509428
 H   -1.5773743586    4.0840824399    1.1364256780
 H   -0.4162652744    2.9563588163    1.9999692057
 H    2.5331242195    3.4322835097    1.2293476665
 H    2.6194945110    1.6174508777    1.4652583238
 H    2.6450697418    1.3108957119   -1.0678451150
 H    2.5665745377    3.1339082696   -1.2707015366