13

 C    0.0175692369    1.4222054465   -0.0484933693
 O    0.0073724560   -0.0151554471   -0.0098349951
 C    0.5786215637   -0.6567143386   -1.0106227953
 C    0.7161684645   -1.9971852245   -1.2338275144
 C    1.4133354408   -2.0270936437   -2.4677168796
 N    1.6782855118   -0.8247431057   -2.9514940489
 O    1.1357733118    0.0499339252   -2.0061852120
 C    1.8310623421   -3.1844110139   -3.1895231378
 N    2.1530658629   -4.1457895934   -3.7447086646
 H    1.0431222254    1.8004463446   -0.0532584971
 H   -0.5119639778    1.7878427342   -0.9320962701
 H   -0.4972632197    1.7368021128    0.8579785015
 H    0.3791962215   -2.8164256463   -0.6255407873