18

 C    0.4482208288    1.3724874391    0.4182563211
 N   -0.2068920798    0.2584989062   -0.2800516305
 C    0.5832493495   -0.3958730560   -1.2647347298
 C    0.2335156489   -0.3768158177   -2.5964370319
 O   -0.8459763435    0.1838844272   -3.1812708897
 N    1.1670027191   -1.0371921884   -3.3202124082
 C    2.1555974197   -1.5192459661   -2.4532282897
 C    1.8190674986   -1.1300986965   -1.1800506052
 N    2.5550708445   -1.3200571398    0.0087883661
 H    1.3832379946    1.0916492281    0.9236320431
 H    0.6857671025    2.1566303582   -0.3068049438
 H   -0.2422186522    1.7897455028    1.1587483223
 H   -0.5912818567   -0.3934869751    0.3961952429
 H   -1.3370901837    0.5794147424   -2.4445980821
 H    1.1336995753   -1.1717788278   -4.3141169707
 H    2.9975005991   -2.0752023737   -2.8294180913
 H    3.2542922680   -2.0461617414   -0.0892019981
 H    1.9536979072   -1.5637508318    0.7874796553