20

 C   -0.1578309365    1.5716603558   -0.0447137201
 C    0.0239316766    0.0689853965    0.0573365220
 N    1.2412654349   -0.5591334649   -0.6405148334
 C    2.1067743452   -0.1438442552    0.5704908741
 C    3.1926721236   -1.1980916977    0.7319944752
 C    2.3403045810   -2.4695970274    0.4767385504
 C    0.9923075342   -1.8059197279    0.2450583957
 C    0.7713928331   -0.6282205206    1.2141101832
 O    0.4351313824   -0.7780624916    2.5532063766
 H    0.7038559386    2.1419633877    0.3112586759
 H   -0.3402850310    1.8570656559   -1.0858985934
 H   -1.0306939859    1.8821695077    0.5403108564
 H   -0.8976579453   -0.4357960954   -0.2561493061
 H    2.4032133978    0.9041939953    0.5949304383
 H    3.9952880782   -1.0693811756    0.0008090576
 H    3.6352321508   -1.1702235199    1.7319384729
 H    2.6688176371   -3.0318395288   -0.4013517912
 H    2.3142311165   -3.1516923477    1.3308040846
 H    0.1432403135   -2.4179047419   -0.0644822178
 H    0.4080731552    0.0928846257    2.9645831390