21

 C   -0.0121717562    1.5485941114   -0.0403166248
 C   -0.0752473627    0.0234381409   -0.0137942145
 C   -1.4710616347   -0.4633132820   -0.3929238221
 C    1.1938872233   -0.7197648275   -0.5693758365
 O    1.9742735125   -0.1720010143    0.5693543228
 C    0.7062501250   -0.6695015223    1.1612901672
 C    0.8899527581   -1.9370911987    0.3151080446
 C    0.2178730443   -3.2590410075    0.1642674609
 C    1.6830947881   -3.1658760929    0.5743913290
 H    0.9803696074    1.9081025613    0.2291036170
 H   -0.2649804385    1.9239500798   -1.0387044761
 H   -0.7432456492    1.9732284034    0.6573921766
 H   -1.7361666121   -0.1014738866   -1.3930357923
 H   -1.5694319215   -1.5482076905   -0.3895468438
 H   -2.2133304587   -0.0529286452    0.3013783807
 H    1.6509693333   -0.6742186228   -1.5600433880
 H    0.5800379434   -0.5638296580    2.2407925550
 H   -0.5031612631   -3.5648763193    0.9162739779
 H   -0.0094649429   -3.6159537374   -0.8356691630
 H    2.4330305978   -3.4610805595   -0.1523021238
 H    1.9392690567   -3.4099629423    1.6002709231