19

 C   -0.1864921454    1.5883306842   -0.1667084798
 C   -0.0351634574    0.0723379562   -0.0565597279
 C    0.7813071348   -0.5728970306   -1.2114515722
 O    0.8811441954    0.2317864144   -2.3569564333
 C    1.9790587981   -0.6175372509   -0.2252403139
 N    1.0093701736   -0.4453627473    0.8713593592
 C    1.3792823382    0.3001194509    2.0535008840
 C    2.3501456596   -0.4503913330    2.8612299447
 N    3.1290942375   -1.0291429783    3.4876294112
 H    0.7655947645    2.0868462213   -0.3668408131
 H   -0.8594162281    1.8278821762   -0.9943221060
 H   -0.6170421064    2.0062690548    0.7490283355
 H   -1.0149729285   -0.3809494851    0.1346361269
 H    0.4145306289   -1.5776583283   -1.4514450933
 H    1.3561545482   -0.2574122844   -3.0353765505
 H    2.5816114728   -1.5290375562   -0.1647394418
 H    2.6423892151    0.2485037563   -0.3798314392
 H    1.8181065703    1.2936469101    1.8453699334
 H    0.4853281686    0.4692397296    2.6657775962