25

 C    0.0741925590    1.5968968773   -0.0110676160
 C   -0.0214208793    0.0670949273   -0.0111426806
 C   -1.4578838435   -0.5026471464    0.0275666888
 C   -2.2595071700    0.1085659558    1.1831787463
 O   -2.1731411864   -0.1180303636   -1.1561811918
 C   -1.4295606951   -2.0799883087    0.1341012778
 C   -2.8497077409   -2.6657822020    0.1362740043
 C   -0.6290772894   -2.7196820718   -1.0082936374
 O   -0.7337071253   -2.4666351664    1.3276373285
 H    1.0982089488    1.9139104867   -0.2313101608
 H   -0.5847875721    2.0291931543   -0.7704703334
 H   -0.1979947917    2.0291208873    0.9559654162
 H    0.4666145565   -0.3050957875   -0.9206421347
 H    0.5404226100   -0.3560801832    0.8269383091
 H   -2.2899720875    1.1947596969    1.0855340760
 H   -3.2922145816   -0.2445156236    1.1765339301
 H   -1.8056962270   -0.1320830015    2.1488909887
 H   -1.6046093107   -0.2879197971   -1.9141134537
 H   -3.4197259797   -2.2984716315   -0.7198890104
 H   -2.8010068119   -3.7573352623    0.0930296338
 H   -3.3988429160   -2.3942005117    1.0435944030
 H    0.4269971114   -2.4489082390   -0.9587750109
 H   -0.6943573946   -3.8078765088   -0.9305041113
 H   -1.0269266636   -2.4303575167   -1.9854973801
 H   -1.3297623193   -2.3402532737    2.0722714886