14

 C    0.0386778181    1.4105178793    0.0891476960
 N    0.2073943633   -0.0301985043    0.0735041083
 C    0.6360922680   -0.6107972901   -0.9381963301
 O    1.0111212212   -0.0421199358   -2.1646937113
 C    1.4121238788   -1.0665090102   -2.9601362602
 C    1.3056393057   -2.2263968168   -2.2944027972
 O    0.8221519514   -1.9618307859   -1.0291878573
 C    1.6144989477   -3.5803478291   -2.7266135007
 O    1.4854049976   -4.5731277237   -2.0509815192
 H    0.6393553219    1.8317228061    0.9023621396
 H    0.3186598994    1.9085520867   -0.8465232070
 H   -1.0079140245    1.6452971646    0.3104412397
 H    1.7424440811   -0.8290766812   -3.9576227432
 H    1.9926490003   -3.6134702897   -3.7713088873