18

 O    0.1774325727    1.1874921383    0.1978371901
 C    0.0485542714   -0.1938092293   -0.0667500389
 C   -1.4519258781   -0.5746323966   -0.0986679774
 C   -1.4433110712   -0.3410965789   -1.6355203205
 C    0.0942815520   -0.5169222883   -1.5920996346
 O    0.5452484171   -1.8340209473   -1.8865441851
 C   -0.0112673806   -2.9172423160   -1.2767901979
 N   -0.9099340353   -3.0656243278   -0.4051664425
 C   -1.6823114465   -2.0391174548    0.2682203896
 H    1.0993320547    1.4338680826    0.0669944140
 H    0.7067847668   -0.8001479354    0.5709343639
 H   -2.0966027024    0.0726762818    0.5011974960
 H   -1.9996606996   -1.0385062869   -2.2657885455
 H   -1.7093032436    0.6838037684   -1.8995413770
 H    0.7068837055    0.1405038288   -2.2124620283
 H    0.4804363367   -3.8020742172   -1.6814014326
 H   -1.5133004473   -2.1711444292    1.3464661665
 H   -2.7411276321   -2.2830623222    0.1058735501