17

 O   -0.0221512355    1.3838321822   -0.1475909197
 C    0.0581978143   -0.0057839021    0.0927634566
 C   -1.3310124112   -0.6282435678    0.1136164230
 O   -1.9897613305   -0.3419541462   -1.1676413816
 C   -2.3161346311   -1.6498857103   -1.6625466184
 C   -2.8709504076   -2.3707543461   -0.4022067541
 C   -1.4057257988   -2.1639985800    0.1267638994
 C   -1.0281267487   -2.4507471589   -1.3510630719
 O   -0.2348063088   -3.1227901626   -1.9335548321
 H   -0.5254288953    1.4850582381   -0.9645250378
 H    0.6815140854   -0.5138856308   -0.6602438430
 H    0.5403532433   -0.1345448286    1.0681388380
 H   -1.9260493416   -0.1673111747    0.9110273331
 H   -2.8140179757   -1.5915051047   -2.6264211907
 H   -3.6593675064   -1.8364532245    0.1308461062
 H   -3.1308157068   -3.4177792830   -0.5670622913
 H   -0.9825745350   -2.7029864899    0.9704888043