17

 C   -0.0679737994    1.4904342489   -0.1262016461
 C    1.4774653173    1.4658980400    0.0112598879
 N    1.5069600450   -0.0287955103    0.2225559629
 C   -0.0090075258   -0.0291452386   -0.0047987930
 C    0.9195398692   -0.6115246217   -0.9809789721
 C    1.1878777976   -0.3082996540   -2.4542908866
 O    1.2718557166   -1.7207023678   -2.7406587584
 C    1.1009970104   -2.0783241115   -1.3496348002
 H   -0.5564938162    1.9697568655    0.7236424598
 H   -0.4991870119    1.8906680985   -1.0491945129
 H    2.0632703921    1.7980599514   -0.8520752851
 H    1.8500547426    1.9714839464    0.9033347839
 H   -0.6740734487   -0.6448434183    0.5941069340
 H    0.3799885762    0.1798630302   -3.0139651721
 H    2.1345208230    0.2093137442   -2.6606325136
 H    1.9976474926   -2.5445703730   -0.9238809714
 H    0.2354811294   -2.7345734699   -1.1975296270