17

 O    0.0017091525    0.0193909669   -0.0066864585
 C   -0.0158774280    1.2168916770    0.0074489283
 C   -1.1777397934    2.2232175556    0.0526651296
 C   -0.8019467623    2.7598045388    1.4637073021
 C    0.5063609836    3.3913568626    0.9451279975
 O   -0.0619379137    4.3531568756    0.0444185067
 C   -0.6020650666    3.3965808757   -0.8789050673
 C    0.7240405079    2.8161124384   -1.4117733970
 C    1.1159180994    2.2576854102   -0.0136382881
 H   -2.1854371277    1.8596229901   -0.1263216243
 H   -1.4755129148    3.5230136817    1.8554344465
 H   -0.6793026602    1.9546548727    2.1947655690
 H    1.1856499240    3.8701726822    1.6470219265
 H   -1.2953639510    3.8716549885   -1.5695528050
 H    0.6248367989    2.0251617980   -2.1616462488
 H    1.3747715521    3.6077894501   -1.7851719255
 H    2.1339202294    1.9197211159    0.1570747682