19

 O   -0.1226942208    1.4190868900   -0.0092600276
 C   -0.0010590168    0.0258249540   -0.0015232858
 C   -0.4199907246   -0.7112100301    1.2555884298
 C   -1.3098106186   -0.7100667593    0.0226994749
 C   -1.3004584815   -2.1909063575   -0.3301618292
 C    0.1278358351   -2.7829501502   -0.0783080583
 C   -0.5080059504   -4.1147051111    0.3768906196
 C   -1.3855872873   -3.0150839978    1.0094514136
 C   -0.0874269670   -2.1933366634    1.3577436899
 H    0.6173347358    1.7828578249    0.4881175370
 H    0.8223778452   -0.3612396450   -0.6008027310
 H   -0.6631994343   -0.1288165230    2.1369621169
 H   -2.2209729313   -0.1263736127   -0.0302588788
 H   -1.8635519678   -2.5331753257   -1.2002464333
 H    1.0079112671   -2.6606837466   -0.7120284671
 H   -0.9694126382   -4.7289538298   -0.4017419125
 H    0.0824516329   -4.7309732843    1.0610957047
 H   -2.2671024495   -3.1358722970    1.6429398878
 H    0.5574511818   -2.5401979454    2.1674366692