17

 C   -0.0093447861    1.5121070929    0.0737417286
 C    1.4047145043    2.0941796796   -0.0708707316
 N    2.1234724137    1.3823295842   -1.1133920151
 N    3.1514901474    1.9265538755   -1.7878538574
 C    3.6575544516    0.9134322342   -2.4932715874
 C    2.9703179652   -0.2921364422   -2.2544524059
 C    1.9802527324    0.0461040560   -1.3434511009
 C    0.9209196626   -0.6698369592   -0.6610138965
 C   -0.0121458730    0.0014261449    0.0272552514
 H   -0.4460100326    1.8750478395    1.0094274343
 H   -0.6513027952    1.8950961301   -0.7335272446
 H    1.3851690538    3.1528126010   -0.3353189134
 H    1.9538457290    1.9920623366    0.8751931325
 H    4.4948552587    1.0898373697   -3.1524256710
 H    3.1477020536   -1.2618181006   -2.6910350873
 H    0.9047985626   -1.7512304425   -0.7396507281
 H   -0.8229186777   -0.5249815196    0.5199504123