13

 O   -0.0527949298    1.3483449289    0.0099976018
 C    1.1405163196    1.9827330875    0.0017539663
 C    2.3205535041    1.3113146388   -0.0135001660
 N    2.4273237994   -0.0586456023   -0.0220504376
 C    1.2906791878   -0.6902313314   -0.0143633295
 N    1.0867945485   -2.0449887894   -0.0197445621
 C   -0.2319886183   -2.1700425840   -0.0074134400
 C   -0.9889233665   -0.9370890853    0.0066425226
 C   -0.0138523838    0.0084033909    0.0022907968
 H    1.0311682198    3.0577789573    0.0087056117
 H    3.2458617192    1.8753146429   -0.0194950064
 H   -0.6840130304   -3.1570102762   -0.0084064097
 H   -2.0607554295   -0.8237429575    0.0177416521