19

 C   -0.0145682810    1.5300009832    0.1463288396
 C    0.0747642369    0.0252434907    0.1748525216
 O   -1.1426471744   -0.6429617756   -0.0850336505
 C    1.2890620272   -0.7875015364   -0.2657958440
 C    2.5619677583   -0.1264812458    0.2377546995
 O    2.0275709218   -0.0267677506    1.5872161768
 C    0.8520907645   -0.7507352281    1.1973565327
 C    0.2260851116   -1.7464169071    2.1377060942
 O   -0.9166169742   -1.2364462879    2.8038116781
 H    0.8876850773    1.9837407668    0.5602395837
 H   -0.1557394692    1.9036078709   -0.8752405997
 H   -0.8648043018    1.8568508526    0.7524988679
 H   -1.3861261673   -0.4929368095   -1.0051577335
 H    1.2119808937   -1.5843779845   -0.9945644432
 H    3.4353174191   -0.7882786689    0.2208409488
 H    2.8346760683    0.8512061105   -0.1758998387
 H   -0.0108031378   -2.6650895174    1.5832801724
 H    0.9578967372   -1.9998485621    2.9105342805
 H   -1.5625103102   -1.0441218307    2.1138180739