27

 C   -0.0920060524    1.6129775522    0.0323481550
 C   -0.0290947985    0.0834980852    0.0065527666
 C    0.7013086587   -0.4718496463   -1.2209971886
 C    0.7602888495   -2.0020652871   -1.2542054237
 C    1.4960591278   -2.5581287033   -2.4773709718
 C    1.4998142153   -4.0902637359   -2.5493837577
 O    0.1705817005   -4.6161883170   -2.5544703832
 C    2.3119868184   -4.6180876739   -3.7392560149
 C    2.3888614094   -6.1456701385   -3.7895049863
 H    0.9125655433    2.0509420254    0.0390550408
 H   -0.6143399203    2.0030364878   -0.8485375655
 H   -0.6190774477    1.9776990076    0.9196753167
 H    0.4678014568   -0.2783584847    0.9165321931
 H   -1.0472691448   -0.3267341580    0.0362810201
 H    0.2066587150   -0.1058850058   -2.1322007910
 H    1.7218062978   -0.0636179315   -1.2501867157
 H    1.2528853910   -2.3671800497   -0.3420738435
 H   -0.2544435513   -2.4161154523   -1.2343056460
 H    1.0363033887   -2.1647213887   -3.3975921251
 H    2.5344787270   -2.2007307302   -2.4833610831
 H    1.9365820816   -4.4860761604   -1.6220021787
 H   -0.2612071121   -4.2973180060   -3.3556192228
 H    1.8603832362   -4.2348505669   -4.6666487928
 H    3.3213569387   -4.1898784758   -3.6953308659
 H    2.9138666184   -6.5414669828   -2.9130029540
 H    1.3862413131   -6.5810372759   -3.7971462712
 H    2.9227121701   -6.4880556376   -4.6811372806