16

 C   -0.0411989696    1.5031823089   -0.0172259737
 C    0.0102969336    0.0491379905   -0.0134725226
 C    0.0633505447   -1.1522971659   -0.0136684312
 C    0.0952087234   -2.6142273361   -0.0001979912
 C   -1.3382881059   -3.2123810435    0.1266156193
 C   -1.3506187267   -4.7252321470    0.2491074896
 O   -1.9987190820   -5.3197648842    1.0698588012
 C    0.7767012687   -3.1357870450   -1.1995242458
 N    1.2978760690   -3.5628788923   -2.1377964637
 H    0.9643790148    1.9323924113    0.0429445332
 H   -0.5116337794    1.8781535107   -0.9321469959
 H   -0.6176642648    1.8791801608    0.8345488895
 H    0.6813912285   -2.9506292837    0.8668490006
 H   -1.8339091383   -2.7807328796    0.9980683579
 H   -1.9080280765   -2.9327646754   -0.7681038450
 H   -0.7198204497   -5.2641156595   -0.4913974321