21

 C   -0.0313686528    1.5417711703    0.0229679605
 C   -0.1038602784    0.0129671195   -0.0754839672
 C   -1.5047678037   -0.5198103145   -0.0164311029
 N   -2.5669074415   -0.2388958776   -1.0465774139
 C   -3.2645487685   -1.1269991516   -0.0552409613
 C   -4.6933342815   -1.5583743138   -0.1890392407
 C   -1.9753386048   -1.9952762596    0.1447153833
 N   -1.9498886741   -1.9045765096    1.6414737354
 C   -2.4918073436   -0.5778651388    1.2016744415
 H    1.0058269125    1.8872080538   -0.0156697202
 H   -0.5697600623    2.0187712106   -0.8027622760
 H   -0.4677815564    1.8995013910    0.9615870161
 H    0.3568939352   -0.3215077518   -1.0131045203
 H    0.4617987606   -0.4478778737    0.7428090819
 H   -2.9050738627    0.7235014803   -0.9495495348
 H   -4.8589717692   -2.0495813468   -1.1529391753
 H   -4.9590443866   -2.2630312328    0.6071630265
 H   -5.3748607383   -0.7031798051   -0.1212740494
 H   -1.6484511156   -2.8707128785   -0.4181116926
 H   -2.6973984809   -2.4778908316    2.0425155008
 H   -2.7775314674    0.2173100003    1.8953968385