21

 C   -0.0382513292    1.4978838927    0.1129069367
 C    0.0196673377   -0.0073165834   -0.0628572726
 O    1.0733221894   -0.5792616689   -0.2180572504
 C   -1.3066599739   -0.8016631854   -0.0179010049
 C   -0.9962485214   -2.3059464909    0.0217290468
 C   -2.1298943946   -0.3890610008    1.2221399606
 O   -1.3893804841   -0.4271937866    2.4305425808
 C   -2.1385536137   -0.4646186092   -1.2812407476
 O   -1.4041690774   -0.5469743168   -2.4871285292
 H    0.9295250104    1.9238165154   -0.1537199601
 H   -0.8247447539    1.9582517206   -0.4916592707
 H   -0.2493495558    1.7212076982    1.1645193991
 H   -0.4027718579   -2.5694010534    0.9020998716
 H   -1.9231175142   -2.8894611305    0.0334992385
 H   -0.3919257732   -2.6147444051   -0.8347382709
 H   -2.4680256376    0.6469825274    1.1232016125
 H   -3.0310441201   -1.0190890924    1.2831541767
 H   -1.1286999248   -1.3379653133    2.5992732917
 H   -3.0273707593   -1.1159672196   -1.3022969466
 H   -2.4989727497    0.5679110359   -1.2323100943
 H   -1.0701365369   -1.4446020938   -2.5817594077