19

 C   -0.2280515433    1.5045945311    0.1349689305
 C   -0.0189814630   -0.0029817205   -0.0129123708
 C   -1.3321166045   -0.7721372042    0.1365496170
 C    0.8461496196   -0.4233144070   -1.2500517713
 C    1.9319199510   -0.9490101978   -0.2694493196
 N    1.0753936334   -0.5330953376    0.8366684284
 C    1.2744039454   -0.6281978429    2.1668662857
 O    2.2648209349   -1.1077389688    2.6846587776
 H    0.7201238735    2.0417953819    0.0430000155
 H   -0.9091296057    1.8709050028   -0.6406750759
 H   -0.6662810124    1.7497005955    1.1080571446
 H   -2.0419473163   -0.4649656105   -0.6389916504
 H   -1.1669195561   -1.8494140207    0.0456165159
 H   -1.7953677593   -0.5787713358    1.1097070154
 H    0.3873129951   -1.1891810298   -1.8770088209
 H    1.1628974451    0.4105769187   -1.8781075945
 H    2.1198574120   -2.0269403593   -0.2975242569
 H    2.8945580236   -0.4288944156   -0.2985261363
 H    0.4237545869   -0.2153286295    2.7480030859