15

 N    0.0309410612    1.3465955834    0.0077961247
 C   -0.0288411616    0.0105067800    0.0012901273
 C   -1.2311209794   -0.6766987035    0.0046675226
 C   -1.4822779795   -2.0595616292   -0.0009541098
 N   -0.7002614102   -3.1162056393   -0.0105044477
 C    0.6469096018   -3.0484226428   -0.0175298553
 C    1.5399655039   -2.0049136160   -0.0175371083
 C    1.3500861846   -0.5838917706   -0.0097940440
 O    2.2964464044    0.2092665663   -0.0110765410
 H    0.9693518525    1.7312924991    0.0037175104
 H   -0.7858332196    1.9306871138    0.0148073202
 H   -2.1279113628   -0.0591198515    0.0128323755
 H   -2.5458325169   -2.3085324168    0.0035960597
 H    1.1085236078   -4.0367087801   -0.0247273312
 H    2.5923049638   -2.2763617928   -0.0246549131