18

 O    0.0222045717   -0.0846687013    0.5055500498
 C   -0.0401206050    1.0678331460    0.1352925689
 C   -1.3967714803    1.7310503577   -0.1337300380
 N   -1.6143597665    2.0023254281   -1.5539303502
 C   -1.0532895023    3.2323068746   -2.1005507897
 C    0.3442051501    3.6717384162   -1.5795313715
 N    1.3302660972    2.6204250505   -1.3845472021
 C    1.2375456601    1.8783454736   -0.1317102685
 H   -2.1656536042    1.0457507140    0.2367000981
 H   -1.4870870796    2.6731623758    0.4199660908
 H   -1.3469862512    1.1971839261   -2.1057780825
 H   -1.0082936414    3.1028502868   -3.1878678536
 H   -1.7518251403    4.0624085934   -1.9194301479
 H    0.7412849130    4.4170936146   -2.2813202730
 H    0.2350879790    4.1892829683   -0.6188169203
 H    1.3596083950    1.9872568105   -2.1762391412
 H    1.3460572991    2.5995245176    0.6925826472
 H    2.0765527054    1.1806382976   -0.0597996363