18

 C   -0.2685027326    1.5633930892   -0.0512342747
 C   -0.0129535278    0.0654230032   -0.0092546057
 O   -1.2352129679   -0.6540551053   -0.1210862588
 C    1.1034606363   -0.5722323443   -0.8941963220
 N    1.6858145357   -1.3178663676    0.2849969217
 C    2.1814059316   -0.2851277061    1.2373733632
 C    2.8467377502    0.9209021972    0.8297901283
 C    3.4715146236    1.9003276753    0.5154747628
 C    0.7217033083   -0.5649993694    1.1750886116
 H    0.6493743030    2.1365183790    0.0886400944
 H   -0.6956023176    1.8445015751   -1.0227818613
 H   -0.9861171705    1.8416912642    0.7265738870
 H   -1.6867568833   -0.3439153006   -0.9136811649
 H    0.6982695288   -1.2873666444   -1.6112222122
 H    1.8134589300    0.1003592845   -1.3827854850
 H    2.6722314995   -0.7723560994    2.0780387361
 H    4.0145253606    2.7702375239    0.2388788015
 H    0.2053650823   -1.0454558645    2.0008336680