23

 C    0.7780154495    1.5409912070   -0.0422629260
 C    0.0525323165    0.1975367156   -0.0357778314
 C    0.6278764151   -0.8921431188   -0.9888618251
 C    1.1566711916   -1.7159045295    0.2302662300
 C    0.7199474440   -3.1779786133    0.2891535558
 C    2.6690413516   -1.6058749925    0.4068483633
 O    3.2911947159   -2.2697208823   -0.6854757037
 C    0.3597761305   -0.7458049081    1.1723118128
 O    0.9727093177   -0.2230509120    2.3308997565
 H    1.8675294118    1.4306871754    0.0186649483
 H    0.5701608914    2.0828479538   -0.9706725989
 H    0.4547238839    2.1715602935    0.7929926745
 H   -1.0182236568    0.3825549500   -0.1642619044
 H   -0.1374822830   -1.4210452020   -1.5617684403
 H    1.4005629957   -0.5548159403   -1.6844401777
 H    1.2292194223   -3.7676449315   -0.4779507795
 H    0.9557617604   -3.6162740719    1.2664864182
 H   -0.3601022937   -3.2702416167    0.1330853536
 H    2.9832599667   -0.5495081413    0.4368173120
 H    2.9577293686   -2.0569059769    1.3685073541
 H    4.2420056383   -2.2551211803   -0.5441730355
 H   -0.5483355186   -1.2376942957    1.5335710704
 H    1.6787762207    0.3724209677    2.0617614529