20

 C   -0.0190464463    1.5794229999    0.0136713420
 C   -0.0353084513    0.0504014298    0.0908736447
 C   -1.4327445117   -0.5459177786   -0.1141157772
 C   -1.4658475775   -2.0667774693   -0.0210225781
 C   -1.2326455096   -2.7558011317    1.3813326071
 C   -2.6179177181   -3.3980833311    1.2421292567
 O   -3.5657849000   -2.3312553580    1.1101343373
 C   -2.8471666583   -2.7488150246   -0.0574325010
 H    0.9891966697    1.9776055659    0.1653663679
 H   -0.3725407318    1.9308521608   -0.9622441062
 H   -0.6701536981    2.0198503909    0.7768648835
 H    0.6501566701   -0.3625195283   -0.6615567079
 H    0.3575603936   -0.2700186085    1.0647201999
 H   -2.1265021484   -0.1359822700    0.6295974020
 H   -1.8162290180   -0.2391219961   -1.0977484473
 H   -0.8007585685   -2.5146094158   -0.7681612821
 H   -0.4104881313   -3.4750054344    1.3679208294
 H   -1.1226745113   -2.0909531734    2.2421468266
 H   -2.9850174937   -4.3373772972    1.6392603797
 H   -3.4372493995   -3.0556397701   -0.9141747069