14

 O   -0.6074482185    0.7815645745    0.9451796781
 C    0.3444359804    0.7659517609    0.2110785563
 C    1.2694649180    1.9641020267   -0.0026088351
 C    1.4623191832    2.8340116926    1.2518755103
 C    2.7553289730    2.2642717322    1.8440890587
 C    3.4600453497    1.6144372153    0.6583756048
 O    4.5910616354    1.2463581901    0.5646931429
 O    2.5667607635    1.4789094752   -0.3748771528
 H    0.6247711297   -0.1283308589   -0.3860222057
 H    0.8744198124    2.5307744699   -0.8546078064
 H    1.5895866312    3.8813063045    0.9688615163
 H    0.5937136978    2.7529513542    1.9064813730
 H    3.4106932079    3.0004674246    2.3103158073
 H    2.5616033966    1.4816726981    2.5863890623