19

 C    0.1218110840    1.6415517276   -0.0239441080
 C    1.6718930359    1.3484889083   -0.0255357873
 C    1.2877458198   -0.0152426464    0.4998335990
 C    1.4672112726   -0.8722638288    1.5015510173
 C    0.1527476149   -1.5612909293    1.8206195130
 O   -0.4053386117   -1.0976499089    3.0796292017
 C   -1.3004586438   -0.1969382842    2.3946408866
 C   -0.9234961233   -0.7620411168    1.0068254211
 C   -0.1297893659    0.0873507019    0.0036061146
 H   -0.1852668907    2.1329282675    0.9014901954
 H   -0.2774601194    2.1915220193   -0.8790918763
 H    2.0653139890    1.3267134788   -1.0472810076
 H    2.3213932213    1.9719824294    0.5926526475
 H    2.3427416950   -0.9853093713    2.1301460539
 H    0.1669623147   -2.6567633670    1.7897145940
 H   -2.3402955860   -0.3471627124    2.7061582943
 H   -1.0323783859    0.8544075922    2.5609900942
 H   -1.7177771720   -1.3575513792    0.5556755048
 H   -0.2675249487   -0.2725590006   -1.0228941182