16

 C    0.0937540445    1.5196338262    0.0706380344
 C   -0.0497548116    0.0400272332   -0.0125188918
 C   -1.1663829850   -0.7329900291    0.0139451552
 C   -2.6031314164   -0.3382992962    0.1350361946
 C   -0.7311082708   -2.1260480434   -0.1025634171
 O   -1.3823884262   -3.1433298883   -0.1226315629
 C    0.8356570491   -2.0771495689   -0.2046069622
 O    1.6154511330   -2.9852113834   -0.3138275977
 N    1.1223326688   -0.7254830470   -0.1391141727
 H    0.7118038330    1.7983921518    0.9328411096
 H    0.5942507572    1.9085901321   -0.8245117195
 H   -0.8743076496    2.0107967090    0.1661981671
 H   -3.1774113135   -0.6879598126   -0.7299743132
 H   -3.0601798458   -0.7975099908    1.0185148312
 H   -2.7326825571    0.7440152700    0.2115350462
 H    2.0541600505   -0.3466864726   -0.1779396811