21

 C    0.0220324572    1.4456434060   -0.0072090299
 O   -0.0347439444    0.0416940245    0.1249100934
 C   -1.3164306888   -0.5558589658    0.0083391571
 C   -2.3047589995   -0.0565082258    1.0534982921
 C   -1.7934800395   -0.5846354877   -1.4873858359
 C   -1.1962366314   -1.9976703147   -1.5767063461
 O   -0.8652801293   -2.7044274212   -2.4839552129
 C   -1.0780576044   -2.1083149653   -0.0502088656
 C    0.1615547571   -2.7403684090    0.5630191866
 H    1.0807517777    1.7129164990   -0.0470316296
 H   -0.4619305644    1.7988197956   -0.9293591635
 H   -0.4369647026    1.9655288937    0.8445505852
 H   -2.5564508560    0.9990247768    0.9114806750
 H   -3.2373694026   -0.6255551092    0.9954791109
 H   -1.8900357547   -0.1772088257    2.0596337017
 H   -2.8824963024   -0.5922400244   -1.6013935406
 H   -1.3718522894    0.1623706732   -2.1632661123
 H   -1.9864919182   -2.6096269378    0.3113017266
 H    1.0600597699   -2.1998108087    0.2613892442
 H    0.1112947812   -2.7374701924    1.6561779146
 H    0.2507289245   -3.7779842313    0.2279695390