15

 C   -0.0140548746    1.4797320657    0.0208437298
 N   -0.0012424774    0.0225513805    0.0190667053
 C   -0.0354157028   -0.6884069334   -1.1325575812
 N   -0.0256349062   -1.9832498178   -1.2347861871
 C    0.0243973509   -2.7341060937   -0.0773970800
 O    0.0384099130   -3.9624232417   -0.0420719390
 C    0.0631482309   -2.0110860371    1.2055492338
 O    0.1105242872   -2.7867212093    2.2937663655
 C    0.0497821753   -0.6601923272    1.2277601370
 H    0.8940667402    1.8710968065    0.4897268714
 H   -0.0621425972    1.8388325149   -1.0077477173
 H   -0.8851365293    1.8546329347    0.5669435526
 H   -0.0745548808   -0.0866858269   -2.0382158693
 H    0.1062027172   -3.6910405028    1.9106287864
 H    0.0761284737   -0.0647713525    2.1301575322