23

 C   -0.1289411694    1.5567413650   -0.2689424304
 C   -0.0976310526    0.0342042593   -0.1065729859
 C    0.7544975224   -0.6547447393   -1.1771587101
 C    0.8134150625   -2.1936841135   -1.0718950007
 C   -0.5215115525   -2.8911256665   -1.5285075923
 C    0.0992892971   -3.1302621802   -2.9286090442
 C    1.4995892656   -2.8307014680   -2.3348912546
 C    1.3485734433   -2.6197224040    0.2108129969
 C    1.7997917098   -2.9901045694    1.2634992078
 H    0.8785812614    1.9825751772   -0.2043210501
 H   -0.5468636560    1.8463145654   -1.2398996188
 H   -0.7388756972    2.0271353977    0.5085787889
 H    0.2937135994   -0.2260568811    0.8832802092
 H   -1.1222711131   -0.3571716399   -0.1423877780
 H    0.3729013274   -0.3944885683   -2.1735614507
 H    1.7811214372   -0.2690304888   -1.1292128082
 H   -0.6912040156   -3.8212270502   -0.9826556583
 H   -1.4267843142   -2.2819949326   -1.4719522342
 H   -0.0464167110   -4.1190976910   -3.3678059858
 H   -0.2156154126   -2.3829565900   -3.6612356181
 H    2.1616289038   -2.1677175646   -2.8982282104
 H    2.0471871334   -3.7392127148   -2.0764696949
 H    2.1950547109   -3.3160577124    2.1934242029