25

 C    0.1253573073    1.6159777679    0.0728622187
 C    0.1954345356    0.0867874290    0.0741496825
 C    0.5463250318   -0.4994675371   -1.3029095133
 C    0.6416422755   -2.0018389990   -1.3208636802
 C    1.8932222170   -2.7372772098   -0.9132609513
 C    1.3649247438   -2.9235501584   -2.3089976606
 C    0.1950271477   -3.9118245265   -2.2923021911
 C   -0.5710405696   -2.9619810810   -1.3070590817
 C   -1.0756821974   -3.5267432372    0.0164477399
 H    1.0846746819    2.0557403857   -0.2229119239
 H   -0.6325500762    1.9778702233   -0.6311076023
 H   -0.1279004109    2.0063673493    1.0636034356
 H    0.9396483473   -0.2508273074    0.8062344780
 H   -0.7664554047   -0.3222947891    0.4084357954
 H   -0.2060791432   -0.1712986248   -2.0348217041
 H    1.5024180441   -0.0749343014   -1.6396253844
 H    2.7784616726   -2.1135778683   -0.8293310904
 H    1.8689067169   -3.5606347716   -0.2026968066
 H    1.9500066843   -2.6526443190   -3.1805669398
 H   -0.3108254417   -4.0188843120   -3.2545431200
 H    0.4293533996   -4.9125173141   -1.9108227742
 H   -1.4051927666   -2.4895080127   -1.8381594925
 H   -0.2699973066   -3.9982653837    0.5888304459
 H   -1.5151132097   -2.7440848262    0.6444808603
 H   -1.8466926087   -4.2869537359   -0.1536914900