18

 C   -0.0953143380    1.5149201545   -0.1640488021
 C   -0.0402091708    0.0187795397    0.1768058047
 C   -1.3693937216   -0.6479012896    0.0133842730
 O   -2.4469294238   -0.1988358774    0.8675993070
 C   -2.9017184993   -1.5745466976    1.0449941031
 C   -1.8836698206   -2.0889454043    0.0415096490
 C   -1.9926725749   -1.2309586072   -1.2122246614
 O   -3.2047116454   -0.7638436014   -1.7135906561
 H    0.8798636192    1.9859313160   -0.0109030411
 H   -0.3886651688    1.6703300405   -1.2071368995
 H   -0.8239149471    2.0267004710    0.4711681160
 H    0.6829961655   -0.4926704332   -0.4694745624
 H    0.3046956933   -0.1160286808    1.2095256152
 H   -2.7227344101   -1.9004916208    2.0743782381
 H   -3.9608230063   -1.6941160003    0.7911318163
 H   -1.3572037714   -3.0335676154    0.0847345661
 H   -1.3045929056   -1.5150999469   -2.0039219096
 H   -3.5122776144   -0.1012701568   -1.0795070764