15

 C    0.0584894346    1.5478535896    0.0250985732
 C   -0.0071758554    0.0558825719    0.0239885859
 C   -1.0801756346   -0.7695466726    0.0260451530
 N   -2.4212693149   -0.5547839845    0.0683017948
 C   -0.5901569656   -2.1746177159    0.0161922050
 O   -1.2369792101   -3.1828883130   -0.0138592547
 O    0.7790369430   -2.1417320440    0.0311496454
 C    1.1791575196   -0.7948066845    0.0293268491
 N    2.3891307330   -0.4353582775    0.0247978658
 H    1.0226205201    1.8798137240   -0.3657067969
 H   -0.7366436378    1.9865696781   -0.5882415443
 H   -0.0447803429    1.9563375441    1.0378308286
 H   -2.7848592703    0.3484388344   -0.1865287316
 H   -2.9989869530   -1.3508316399   -0.1571527117
 H    3.0125516541   -1.2430172700    0.0248677783