17

 N   -0.0562056126    1.2863148511   -0.2523750223
 C   -0.0185132282    0.0483203809    0.0080298310
 O    1.1432531709   -0.6160358747    0.3045471687
 C    1.0199757933   -1.9925958762    0.6089673252
 C   -0.0030358460   -2.8387445254   -0.1107988013
 C   -1.0204945638   -2.0280638698   -0.8957345747
 C   -1.2395092713   -0.8362144853    0.0597670507
 N   -1.3019006529   -1.5034397605    1.3822050905
 C   -0.2139762478   -2.4623500248    1.3448121814
 H    0.8831617520    1.6883740628   -0.2091996152
 H    1.9954245343   -2.4048583253    0.8349198374
 H    0.2555787729   -3.8453215399   -0.4154988940
 H   -0.6701670265   -1.7052235582   -1.8795168264
 H   -1.9494046169   -2.5923898902   -1.0177085808
 H   -2.1324339270   -0.2462475098   -0.1409519899
 H   -1.1777346215   -0.8246976292    2.1297013032
 H   -0.1551872789   -3.1671922456    2.1657109365