16

 C    0.0424595300    1.5660510837    0.1818339946
 N    1.4939219543    1.5163917951   -0.1079312105
 C    1.3560074171    0.1644680948   -0.7065426823
 C    2.4213009564   -0.8491878464   -0.3173301659
 N    2.3237336125   -1.3426429543    1.0496525787
 C    1.2347821699   -1.2047545126    1.6693874880
 O    0.0608914445   -0.6385383437    1.2815816137
 C   -0.0041148120    0.0304234044    0.0237903557
 H   -0.2186640081    1.9535513311    1.1712137474
 H   -0.5675666294    2.0702666478   -0.5810558094
 H    1.8469326619    2.2354533776   -0.7291706766
 H    1.2091249379    0.1771627382   -1.7965821058
 H    2.3705820502   -1.7132114374   -0.9948618872
 H    3.4160496612   -0.4087775761   -0.4548132069
 H    1.1223525266   -1.5831911296    2.6838024289
 H   -0.8425043931   -0.3986787126   -0.5260526322