20

 C    1.0910159843    0.1053040128    0.1850506455
 C    0.0431126537   -0.9375691481   -0.1280060767
 O   -0.1915924050   -1.8722932590    0.6072400268
 C   -0.7462392388   -0.7540127186   -1.4288326305
 N   -1.5444859309   -1.9062564421   -1.8106119427
 C   -0.8596012637   -2.8725955038   -2.6808082639
 C    0.4856833703   -3.3565768234   -2.1145955181
 C    0.4777448280   -4.6167301332   -1.2767550410
 O    1.4902206719   -2.6986757015   -2.2921488104
 H    1.9658204629   -0.0942980726   -0.4456270095
 H    0.7394956232    1.1133821103   -0.0571618442
 H    1.3859801532    0.0470513784    1.2335551283
 H   -1.4009875828    0.1182215091   -1.2690278751
 H   -0.0589759923   -0.4810925160   -2.2353218644
 H   -1.8411501951   -2.3702635348   -0.9557460012
 H   -1.5427743571   -3.7112102689   -2.8487599709
 H   -0.6571688999   -2.3920573920   -3.6437996282
 H    1.4847565897   -4.8410003207   -0.9234260772
 H   -0.1854069386   -4.4730163981   -0.4166198150
 H    0.0862369571   -5.4605116175   -1.8563868214