18

 C   -0.1428320291   -1.2352123342   -0.2127688877
 C   -0.0877836854   -0.0404076525   -0.0943835348
 C   -0.0438084367    1.4109719170    0.0608065564
 C   -0.2057741255    1.9193846611    1.5272561620
 C    1.2584589598    2.3704379671    1.3887260465
 O    1.3216799619    1.9168685351    0.0151231335
 C   -0.9126331185    2.0918186218   -0.9847662713
 C   -0.6386202347    3.4915415423   -1.3830634853
 N   -0.3491305133    2.3772538450   -2.3073770496
 H   -0.1847346255   -2.2905637205   -0.3262066741
 H   -0.9363996733    2.7220062793    1.6313916074
 H   -0.3964817016    1.1419924821    2.2657505861
 H    1.4435484062    3.4470450741    1.4677158601
 H    1.9770491474    1.8343128025    2.0181393973
 H   -1.9358157320    1.7217613336   -1.0016044664
 H   -1.4596609642    4.1364399206   -1.6827378776
 H    0.2040864277    3.9953904691   -0.9201083709
 H    0.6525147068    2.1915035165   -2.2735263715