18

 C    0.1030626271    1.1621928519    0.7129780272
 C    0.0245239592    0.0132114843   -0.2695225283
 O    0.9246383032   -0.2526916388   -1.0326705068
 C   -1.2617593646   -0.8139376390   -0.2454769710
 C   -1.3654684162   -1.8396839833   -1.4038337423
 C   -0.8373467931   -2.9495221993   -0.4596982874
 C   -1.1967197662   -2.0397703533    0.7546114103
 C   -0.2980122582   -1.9908896402    1.8951304149
 N    0.4224879664   -1.9397937571    2.7987515076
 H   -0.0251631143    0.7938053294    1.7366683593
 H    1.0679549462    1.6617106270    0.6226664583
 H   -0.7050737889    1.8777332783    0.5222660366
 H   -2.1184367836   -0.1583872739   -0.0707055258
 H   -2.4003953087   -2.0041926521   -1.7121369258
 H   -0.7484289028   -1.6131990502   -2.2724423373
 H   -1.3207067635   -3.9270211904   -0.4835555420
 H    0.2423175349   -3.0742527741   -0.5523854366
 H   -2.2044320171   -2.2592829891    1.1177144791