18

 O   -0.0925768029    1.4370173505    0.0418953758
 C   -0.0083266211    0.0287553648   -0.0053703641
 C   -1.4247765955   -0.5272851211    0.0790334009
 C   -1.4053949071   -2.0597537039    0.1633324229
 C   -0.4120995371   -2.6745376569   -0.7851828229
 C    0.5197483725   -1.9889802615   -1.4433886057
 C    0.6969163007   -0.4867846018   -1.2903774637
 C    0.2201424175    0.2157813061   -2.4905473641
 N   -0.1432889022    0.7443509492   -3.4519896705
 H    0.7936295040    1.8097144176   -0.0136343822
 H    0.5798733609   -0.3586340818    0.8425398897
 H   -1.9260158749   -0.0924575023    0.9479962046
 H   -1.9771844361   -0.2009412262   -0.8094010373
 H   -1.1671430122   -2.3838908089    1.1871661314
 H   -2.4050797855   -2.4612482228   -0.0410132434
 H   -0.4681527235   -3.7516345917   -0.9239814136
 H    1.1994112807   -2.4866092392   -2.1278746565
 H    1.7703480118   -0.2640885801   -1.2072782212