23

 C    0.0307688310    1.3942876012    0.0757590347
 O   -0.0038749723   -0.0021904645   -0.0919126752
 C   -1.3078285487   -0.5750067215   -0.0054504801
 C   -1.2714335180   -1.9038439171   -0.7595978917
 C   -2.5388857099   -2.7314091861   -0.5052011661
 C   -2.5767162213   -3.9987263566   -1.3632243175
 C   -2.6591125668   -3.0572948798    0.9938596485
 C   -2.3230197656   -1.8822930028    1.8736495731
 C   -1.7327973195   -0.7734004516    1.4307263573
 H    1.0680318174    1.7105643346   -0.0625896734
 H   -0.5987059633    1.9090412511   -0.6680647008
 H   -0.2964574858    1.7141777288    1.0767047477
 H   -2.0192673897    0.1073332493   -0.5058373422
 H   -1.1365214913   -1.7119891071   -1.8294200195
 H   -0.3881221687   -2.4593856506   -0.4194786564
 H   -3.4043772483   -2.1091546755   -0.7768696761
 H   -1.7147357797   -4.6417338136   -1.1490633692
 H   -3.4830951805   -4.5827790843   -1.1693010987
 H   -2.5551748724   -3.7574032888   -2.4310777487
 H   -3.6716300213   -3.4171150508    1.2205462997
 H   -1.9917362450   -3.8974230143    1.2434882039
 H   -2.5811334219   -1.9694399239    2.9271521099
 H   -1.5232512385    0.0424196641    2.1176949409