19

 C    0.0049992353    1.5613877579    0.0039455927
 C    0.0105297202    0.0310982764    0.0125065323
 C   -1.4089569982   -0.5487689650    0.0055190181
 N   -1.4356238816   -2.0030034572    0.0049035492
 C   -1.6552717543   -2.8441453392   -1.0612416527
 N   -1.5803363519   -4.1056636446   -0.7236899961
 C   -1.2918446549   -4.1127344379    0.6272882567
 C   -1.2009232257   -2.8229256020    1.0802526058
 O   -0.9484675374   -2.2412311250    2.2814103447
 H    1.0243723972    1.9573525936    0.0113050038
 H   -0.4977628979    1.9548281823   -0.8867013546
 H   -0.5136352059    1.9623306848    0.8817559150
 H    0.5533651415   -0.3522745551   -0.8593834232
 H    0.5344116516   -0.3393480480    0.9000063719
 H   -1.9635353579   -0.1933200580    0.8804754826
 H   -1.9542507436   -0.2150612835   -0.8831726702
 H   -1.8705782647   -2.4558285954   -2.0458558557
 H   -1.1734056303   -5.0293215097    1.1846954357
 H   -0.8516591417   -2.9359723945    2.9398125741