18

 C    0.0371046632    1.6411612297   -0.0143870818
 C    1.5124626698    1.9912995346   -0.1960493472
 C    2.3919371686    1.5612995662    0.9483619884
 O    1.7752763345    1.2447882961    2.1624580200
 C    1.4024095303   -0.1132320716    2.2981600471
 C    0.7248795439   -0.6798656397    1.0744610675
 C   -0.0093343644    0.1142181400    0.0506625775
 N    1.3323874269   -0.4562473284   -0.2530888912
 C    2.2604053611    0.6717713395   -0.2703180308
 H   -0.3892440223    2.1128339273    0.8762062403
 H   -0.5381634298    1.9801103368   -0.8807794583
 H    1.7860392439    2.8509366335   -0.7972626900
 H    3.3382584377    2.0770224695    1.0919959979
 H    2.2841824660   -0.7360087309    2.5257088098
 H    0.7309415179   -0.1584254775    3.1617931427
 H    0.4005886651   -1.7101070046    1.2218419158
 H   -0.8418120416   -0.3718725340   -0.4527556932
 H    3.1236158192    0.5248419738   -0.9091381946