14

 C   -0.0040223733    1.5533861663    0.0872260047
 C    0.0154805787    0.0588380506    0.0302107559
 C    0.0004934993   -0.7410671316   -1.1096588220
 N    0.0288769748   -2.0344014167   -0.6642819179
 N    0.0609303427   -2.1314999614    0.6691143562
 C    0.0529185245   -0.8686014693    1.0931096510
 C   -0.0357098807   -0.4093195077   -2.4785761529
 C   -0.0667804058   -0.1285379044   -3.6498773883
 H    0.8856899177    1.9488429432    0.5896349886
 H   -0.0366318495    1.9788750135   -0.9189349223
 H   -0.8766248815    1.9239645275    0.6363794539
 H    0.0274844796   -2.8678203007   -1.2282250328
 H    0.0743589097   -0.6620497835    2.1536291368
 H   -0.0943899861    0.1222932443   -4.6813416809