19

 O   -0.2709316627    0.0998896693   -0.1372980767
 C   -0.0297068222    1.2613769997    0.0795832231
 C    1.3259237254    1.9055920330   -0.0108581917
 C    1.5548472835    3.1335812754    0.9192188357
 C    1.9182070206    4.0215427612   -0.2987470203
 C    1.5425657068    2.8633401168   -1.2625154444
 C    2.7052715675    2.2026911545   -2.0009734807
 O    3.4521154785    1.5334071750   -0.9957770904
 C    2.4943583907    0.9171961026   -0.1385492952
 H   -0.8478048265    1.9678488791    0.3560811684
 H    0.6390442202    3.4492011769    1.4288397901
 H    2.3358866333    2.9968722575    1.6707115868
 H    1.3245318779    4.9312389529   -0.4097646286
 H    2.9767626628    4.2874893178   -0.3496484060
 H    0.6728003932    3.0429681368   -1.8971769243
 H    2.3293718997    1.4896149540   -2.7531196485
 H    3.3698359211    2.9176288781   -2.4954155863
 H    2.9887783716    0.7034447921    0.8126114657
 H    2.1242909884   -0.0240299126   -0.5677182967