12

 N    0.0060465823    1.4125648766    0.1680271354
 C   -0.0185671874    0.0287983367    0.0479284980
 C   -1.1018662860   -0.8300545566    0.0306705892
 N   -0.5822919038   -2.0914947100   -0.0235027996
 N    0.7425265381   -2.1346815347   -0.0409989690
 C    1.1073781448   -0.8421820490   -0.0002491211
 C    2.4642879932   -0.4317741529   -0.0172461738
 N    3.5441258757   -0.0123961958   -0.0373068826
 H    0.8872559273    1.8244909514   -0.1086826977
 H   -0.7671456602    1.8878008174   -0.2749676691
 H   -2.1633527482   -0.6476958112    0.0576539168
 H   -1.0933207157   -2.9582453218   -0.0502699065