21

 C    0.1019633828    1.4960930730    0.1154499129
 C   -0.0237876157   -0.0243316341    0.0799208746
 O   -1.3845537354   -0.4532927999    0.0861605146
 C    0.6919366579   -0.6290868803   -1.1306902559
 O    2.0940866899   -0.2638924429   -1.1637600643
 C    2.7336039442   -1.5518551365   -1.2672842023
 C    1.8756536891   -2.2936974567   -2.3205986735
 C    0.8151291919   -2.1605818585   -1.1784508479
 C    2.0089107480   -2.3982167907   -0.1958023380
 H    1.1539951195    1.7905436800    0.1442614253
 H   -0.3455165516    1.9420645565   -0.7827034678
 H   -0.4113407151    1.9012925895    0.9916290488
 H    0.4047269954   -0.4428451479    0.9967137272
 H   -1.8395511461    0.0102378909   -0.6259558197
 H    0.2002830127   -0.2452590089   -2.0399264585
 H    3.8126139583   -1.4190448298   -1.3274005692
 H    1.6882784663   -1.7781993157   -3.2660684135
 H    2.1903968526   -3.3244135289   -2.4915146697
 H   -0.1077731254   -2.7348608186   -1.1450438394
 H    2.3281125404   -3.4414367228   -0.1800086245
 H    1.9586965405   -1.9943287277    0.8170765908