15

 N    0.6272479263   -0.5141840683    0.1963910137
 C   -0.1431723747    0.5641022650   -0.1211457145
 O    0.2827133494    1.6539839868   -0.4428441928
 C   -1.6327652808    0.3148809989   -0.0251402601
 O   -2.0758631355   -0.9982564856    0.3401604481
 C   -2.3261450197    0.0671502373    1.2532395830
 C   -1.6055913064    0.0383242385    2.5905064057
 C   -2.2307388664   -0.8959332521    3.5266800852
 N   -2.7323098121   -1.6329087077    4.2610939622
 H    1.6197830976   -0.4495806341    0.0357053878
 H    0.1962588963   -1.4222066525    0.2680412602
 H   -2.1940213494    0.7999878588   -0.8212289502
 H   -3.3748737269    0.3568916840    1.3142753781
 H   -0.5563936424   -0.2361102145    2.4511950133
 H   -1.6264867352    1.0432923453    3.0286227604