13

 O    0.6154954551    1.4930448341   -0.0952476240
 C    0.1149680919    0.1859181835    0.0289797490
 C    0.3709518067   -0.6193053787   -1.1835826047
 N    0.5744459653   -1.2411920859   -2.1352114322
 C    0.6974053129   -0.4936376575    1.2760300745
 C    1.2320396781   -1.8702530998    1.2824070979
 O    2.1017532346   -0.7390072273    1.1985017622
 C    0.2331797914    0.0888647308    2.5234998222
 N   -0.1672938427    0.5433700641    3.5068274277
 H    1.5790820093    1.4384487438   -0.1477971501
 H   -0.9690606641    0.2847588452    0.1503258897
 H    1.2610695917   -2.4085968097    2.2265455666
 H    1.1536166897   -2.4681828127    0.3783897011