20

 C   -0.0316984928    1.6292257764   -0.0443193919
 C    0.0641275723    0.1123475354    0.0414292440
 C    1.1172898691   -0.6641212437   -0.7987714046
 N    1.6669418927   -1.3848267567    0.4102791228
 C    2.1825582964   -0.3380186513    1.2853138187
 C    0.7067599261   -0.5357010794    1.2689738321
 C   -0.0777908480   -1.1081352343    2.3975978716
 C    0.6144717216   -2.1044845326    3.3068256732
 O   -1.2355717909   -0.7773569631    2.5515348646
 H    0.9378887201    2.1133462588    0.1121140774
 H   -0.4012709466    1.9394669375   -1.0276705645
 H   -0.7263016036    2.0094551049    0.7111288997
 H   -0.9280385568   -0.3217108465   -0.1023437921
 H    0.6960110050   -1.3821555774   -1.5038533739
 H    1.8761172402   -0.0609282791   -1.3093735782
 H    2.7329201173   -0.7205107229    2.1388748452
 H    2.5996795888    0.5679244165    0.8498374477
 H    1.2192366839   -2.8056306383    2.7242408047
 H    1.2859013434   -1.5794178356    3.9963156553
 H   -0.1358744082   -2.6377315286    3.8916342285