16

 O   -0.2054910505    1.5320352339    0.3122255247
 C    0.0743266551    0.1712772614    0.0142693589
 C   -1.2551244023   -0.5549324348   -0.1382676074
 N   -2.0076987716   -0.1323814645   -1.3025390352
 C   -2.5971790816    1.1114960215   -1.5413990972
 C   -3.2150386716    1.0201139031   -2.7238130328
 O   -3.0398541170   -0.2452444584   -3.2470560495
 C   -2.2826364318   -0.9784699388   -2.3583105133
 O   -1.9548610427   -2.1261106436   -2.5180771948
 H    0.6127431028    2.0334816565    0.2554689703
 H    0.6545007259    0.0713893280   -0.9140719988
 H    0.6437187229   -0.3071020077    0.8261047837
 H   -1.0836810100   -1.6271221248   -0.2604785470
 H   -1.8536892488   -0.3966048858    0.7664492498
 H   -2.4868686226    1.9288744917   -0.8521973424
 H   -3.7870786662    1.7143485823   -3.3126109087