18

 C   -0.0048988870    1.6101670930   -0.0542092104
 C    0.0487566083    0.0840527577   -0.0182824490
 N    0.8139785213   -0.4846676884   -1.1241642448
 C    1.5580406931   -1.6014917528   -0.8374455069
 O    2.1127232956   -2.3199683748   -1.6370922925
 C    1.5775725104   -1.7284710524    0.6955164364
 O    2.7941810898   -1.1870906127    1.2514438426
 C    2.1072033824    0.0100049090    1.6798213170
 C    0.7389104379   -0.5419226161    1.2131195270
 H    0.9963571174    2.0486137163   -0.0492527627
 H   -0.5194382611    1.9576439869   -0.9561310507
 H   -0.5590279041    1.9914798807    0.8094552336
 H   -0.9869244404   -0.2887861459   -0.0512049227
 H    0.6167886836   -0.2555913672   -2.0869325636
 H    1.3860919510   -2.7533668956    1.0237611450
 H    2.2057096618    0.1648914084    2.7598691494
 H    2.4736418934    0.9009882792    1.1573685630
 H    0.0348141866   -0.7362367053    2.0211460594