15

 N   -0.5488742141   -0.2554723577   -1.3183166404
 C   -0.1537089929    0.3520951517   -0.4194782041
 C    0.3455173818    1.1163569511    0.7252433496
 C    1.6151343175    1.8563964350    0.4156081520
 N    2.7502936058    1.6430377944    0.9499214861
 C    3.6665686113    2.5646177992    0.3181778198
 C    3.8443800976    2.3915503985   -1.1777123208
 C    2.8219730285    3.3596484054   -0.6673994059
 O    1.5033276996    2.8516293653   -0.5061152411
 H   -0.4279678617    1.8301863758    1.0317718798
 H    0.5429428602    0.4409141503    1.5605436779
 H    4.4652841902    2.9610894274    0.9319311231
 H    4.7341157483    2.8315659498   -1.6140170879
 H    3.5117908341    1.4642636817   -1.6322836054
 H    2.8435158438    4.4226776621   -0.8653596628