22

 C    2.2081019734    1.9688037067    0.3977475313
 C    1.0107882231    1.5401318055   -0.4568983904
 C    1.2783874151    0.3918099546   -1.3995190912
 C    2.2436110679   -0.7363371452   -1.1368764490
 C    2.4050714174    0.1137809033   -2.3700386821
 N    1.4702722973   -0.1396006261   -3.5344328786
 C    0.5613575894   -1.2641448926   -3.2168605397
 C    0.3177474667    0.0522312025   -2.5838930451
 C   -0.8509262531    0.9253923422   -2.9445909336
 H    2.5189708897    1.1785958863    1.0878897351
 H    3.0697364182    2.2310607715   -0.2257718515
 H    1.9530459101    2.8475021663    0.9972954417
 H    0.1754870402    1.2714751556    0.2055078759
 H    0.6664077557    2.4058603861   -1.0356382684
 H    2.9886917290   -0.5066985147   -0.3815849604
 H    1.9654587792   -1.7840604516   -1.1442394812
 H    3.3154761275    0.6590764904   -2.5877237454
 H   -0.0732447178   -1.5154495708   -4.0627526226
 H    0.9157603674   -2.1302027332   -2.6718003272
 H   -1.6812177138    0.7847542513   -2.2424336052
 H   -0.5797181857    1.9858514481   -2.9398462393
 H   -1.2090327270    0.6788075037   -3.9479990234