21

 O   -0.1757874682    1.4536096653    0.0113225371
 C   -0.0144349539    0.0439671259    0.0021630893
 C   -1.4037147636   -0.5799992157    0.0120235321
 C   -1.3619854359   -2.1013949019    0.0034500402
 O   -2.6889726774   -2.5852797411    0.0135052581
 C   -2.7710218253   -3.9906877279    0.0067776372
 C   -4.2567078773   -4.3671265374    0.0191908586
 C   -4.4610227223   -5.8091355185    0.0136408900
 C   -4.6001637638   -7.0028494972    0.0082438799
 H    0.6973660321    1.8562277274    0.0048118443
 H    0.5393763839   -0.2879422781   -0.8917983946
 H    0.5562656852   -0.2975239101    0.8817820090
 H   -1.9454899849   -0.2368179738    0.8996454900
 H   -1.9622443485   -0.2273429923   -0.8613850912
 H   -0.8291447755   -2.4708080772   -0.8901879505
 H   -0.8122391873   -2.4803329477    0.8827444972
 H   -2.2833431593   -4.4111081289   -0.8875895961
 H   -2.2661328169   -4.4205841865    0.8869779652
 H   -4.7233688629   -3.9193730550    0.9045667872
 H   -4.7403552733   -3.9100914846   -0.8522273289
 H   -4.7375501648   -8.0554586646    0.0028766857