17

 O   -0.0460520868    1.3688804713    0.0168152316
 N    0.0555881016   -0.0343042278    0.0128731580
 C   -1.0848048222   -0.6087465719   -0.0070510185
 C   -2.4383665508    0.0522213818    0.0165323008
 C   -3.3116937755   -0.6143059189    1.0971068066
 O   -3.3543973355   -2.0215651832    0.9528195763
 C   -2.0728443073   -2.6078939311    1.0920324715
 C   -1.1100023001   -2.1139432356   -0.0019808847
 H    0.8791686034    1.6334253784    0.0422908110
 H   -2.3494167707    1.1241198676    0.1965721791
 H   -2.9216225042   -0.0916797575   -0.9584724433
 H   -2.9271993767   -0.3470995427    2.0955690172
 H   -4.3451033575   -0.2643702910    1.0265767501
 H   -1.6547040721   -2.3774020819    2.0862008311
 H   -2.2172945775   -3.6896127858    1.0249003197
 H   -1.4807690354   -2.4750041259   -0.9704674356
 H   -0.1022007927   -2.5093797958    0.1487906991