21

 C   -0.3148648935    1.3144727051    0.2044342455
 N   -0.0549825529   -0.0962954227   -0.0187441661
 C    0.0227547368   -0.9397360694    1.1696321169
 C   -1.3015460913   -1.0926666397    1.8874010267
 C   -1.3291868692   -1.4423947009    3.3266465345
 N   -1.7555546777   -0.1020168672    2.8834640609
 C    0.0918365471   -0.6870572307   -1.2540371452
 C    0.0065753398    0.2117571387   -2.4810026255
 O    0.2865759024   -1.8856966886   -1.3751713820
 H   -0.2524789202    1.8755091895   -0.7252950519
 H   -1.3087216383    1.4758479238    0.6386842667
 H    0.4280815811    1.7317710159    0.8979920771
 H    0.3802256788   -1.9138696249    0.8317181039
 H    0.7654589887   -0.5172920474    1.8639982147
 H   -2.1066407075   -1.4620710536    1.2555555613
 H   -2.1214578165   -2.0719649610    3.7202063872
 H   -0.3773719873   -1.5393638657    3.8439559349
 H   -1.0063155580    0.5615361280    3.0702378736
 H    0.7867378356    0.9795534179   -2.4808426989
 H    0.1397677171   -0.4268307740   -3.3533112180
 H   -0.9613173950    0.7171342667   -2.5535370664