21

 C   -0.3796866937    1.4880092976   -0.0691694592
 N    0.0616626073    0.1073178220    0.0704014695
 C    1.3605746300   -0.4135946745   -0.3024922896
 C    2.6163400077    0.4712347943   -0.3301959044
 C    2.8953954991    0.8698612388    1.1203449763
 N    1.8904671299    1.7652077984    1.7236083836
 C    1.8219500711    0.3089981413    1.9814924757
 C    0.8560823852   -0.5006705595    1.1225335535
 C    0.2858301595   -1.7498707672    1.7568442870
 H    0.4199204207    2.2298135936   -0.1249787993
 H   -0.9978030663    1.5490419363   -0.9731339606
 H   -1.0099885889    1.7495308671    0.7856846408
 H    1.3427494992   -1.2602246923   -0.9891384673
 H    3.4533590461   -0.1214158761   -0.7147286291
 H    2.5137926881    1.3451616693   -0.9834474650
 H    3.9243212770    0.9546047703    1.4573160263
 H    2.2989263919    2.2259035634    2.5337399321
 H    2.0192360357   -0.0483582717    2.9871772915
 H   -0.4041758156   -1.4976463067    2.5711332512
 H   -0.2686677272   -2.3283629499    1.0147904675
 H    1.0779781333   -2.3820035745    2.1749758594