17

 C    0.1247824439    1.4443122810    0.2022716571
 C   -0.0641162836   -0.0223908628    0.0024209622
 N   -0.6262588882   -0.5929132062   -1.0443557228
 C   -0.5643667164   -1.9459593642   -0.8085588237
 C    0.0384983791   -2.2040068192    0.3961418990
 C    0.3086849745   -3.4838579196    1.1172018399
 C    1.3953783953   -3.4741796290    2.1685147085
 O    1.9176633814   -2.4916773823    2.6381149571
 N    0.3430032681   -0.9581100351    0.9092224079
 H    1.1843488366    1.7116404721    0.2899059064
 H   -0.2925216234    1.9685452178   -0.6582964487
 H   -0.3808867972    1.8024299061    1.1063499661
 H   -0.9611554136   -2.6596745129   -1.5158348973
 H   -0.5828754674   -3.8521404274    1.6575019730
 H    0.5389558768   -4.2863958660    0.4048466285
 H    1.6731348813   -4.4867472432    2.5339821346
 H    0.8919854728   -0.8267908891    1.7451281722