18

 C    0.0211215906    1.6041875807   -0.0543960518
 C    0.0251862646    0.0732630827   -0.0863441083
 C   -1.3650188688   -0.5570179159    0.0523003939
 C   -1.3567069715   -2.1012499603   -0.0048391459
 C   -2.2496159633   -2.5636987209    1.1385924672
 O   -2.6508004104   -3.6722438804    1.3565893490
 C   -2.5653997206   -1.3229778320    2.0053260883
 O   -3.1893238708   -1.2949638629    3.0395497990
 N   -1.9857874188   -0.2761347843    1.3478670185
 H    1.0293709387    1.9990180742   -0.2068393805
 H   -0.6204102935    2.0176274658   -0.8404779426
 H   -0.3325212833    1.9911664391    0.9074255046
 H    0.4517066055   -0.2720213246   -1.0362121731
 H    0.6678135033   -0.3194299442    0.7114775253
 H   -2.0046160822   -0.1616832096   -0.7504031155
 H   -1.6980976208   -2.5037417069   -0.9607111762
 H   -0.3481354007   -2.4935248286    0.1717467672
 H   -2.1198730379    0.6650718382    1.6843102108