20

 C   -0.0230389291    1.5193817391    0.0410526178
 C    0.0296066711   -0.0273588467    0.0305551638
 C    0.6797551584   -0.5440600882   -1.2199845772
 C    1.9141786926   -1.0372195127   -1.2433732482
 C    2.6187087885   -1.5021240961   -2.4865504316
 C    2.7091665686   -1.1340933579    0.0262926899
 O    1.9716504752   -1.0051955775    1.2421632155
 C    0.6947759240   -0.5367360534    1.2952383890
 N    0.0651576842   -0.5043475082    2.3947160360
 H    0.9853332740    1.9453905508    0.0374527925
 H   -0.5468684136    1.8877044612   -0.8467099914
 H   -0.5479613488    1.8677371649    0.9330934914
 H   -1.0048145982   -0.3832963825    0.0815966594
 H    0.1080504621   -0.4582144396   -2.1413585950
 H    3.5610345813   -0.9599070574   -2.6386262583
 H    2.8765862328   -2.5670527973   -2.4259084311
 H    1.9967323397   -1.3514427955   -3.3721712299
 H    3.2114654975   -2.1085510983    0.0850197843
 H    3.5055895228   -0.3736562422    0.0301020563
 H    0.6545356569   -0.8637508725    3.1482605370