18

 C    0.0412534842   -1.1765153901   -0.0795889460
 C    0.0254342534    0.0250085524   -0.0134079141
 C   -0.0132311970    1.4455886638    0.1045806992
 C   -1.2219408470    2.2523199051    0.5784627051
 C   -0.7413500368    3.3652320033   -0.3857121985
 C    0.1146038106    4.4175977353    0.3113137944
 C    1.2905374887    3.5766136930    0.8728702948
 C    1.2148924691    2.3005286540    0.0422815939
 N    0.2427181154    2.4074362788   -1.0640927546
 H    0.0594841450   -2.2358348541   -0.1483921091
 H   -2.1521007852    1.7886738374    0.2463054297
 H   -1.2963009948    2.4845115303    1.6458941135
 H   -1.4817160614    3.7554105190   -1.0828373348
 H    0.4767273896    5.1500487678   -0.4172465254
 H   -0.4376657529    4.9571477505    1.0862567449
 H    2.2547582839    4.0727300096    0.7357779259
 H    1.1815710344    3.3709586704    1.9422096092
 H    2.1301775308    1.7828377836   -0.2253537781