17

 C   -0.0008055680    1.5421230022   -0.0594975662
 C   -0.0960824051    0.0364865024    0.0282646783
 O   -0.2485614778   -0.5383905246    1.0906658526
 C    0.0234295685   -0.7503965507   -1.2572571223
 C    1.4083998269   -1.4866412730   -1.3355181842
 C    0.6968964114   -2.7586899977   -0.8256606141
 O    1.0697440351   -3.7405525584   -0.2594454169
 C   -0.6917138307   -2.1643699064   -1.1593391248
 O   -1.7824362636   -2.3705753553   -0.3364691661
 H    0.9023151006    1.8394393666   -0.6040596980
 H   -0.8539200167    1.9293547462   -0.6293861141
 H    0.0006524551    1.9797173692    0.9392380651
 H   -0.2280410647   -0.1461141188   -2.1296867314
 H    1.7706707741   -1.5875060136   -2.3621036344
 H    2.2174419563   -1.1154043501   -0.7036306369
 H   -0.9716219172   -2.4772158197   -2.1734260310
 H   -1.5042423042   -2.1024876383    0.5518774343