21

 C   -0.2539605169    1.4261120661    0.0875864295
 C    0.0445043494   -0.0778212396   -0.0475754017
 C    0.7899768997   -0.4335700005   -1.3011662310
 C    2.0132342742   -0.9700029726   -1.3752299325
 C    2.4480790980   -1.2259317937   -2.7878015206
 O    2.3415594952   -2.6191713489   -3.2007146018
 C    1.1160363143   -2.3463052202   -3.9116579258
 C    1.2144787505   -0.8283993723   -3.6392609097
 C    0.1891322465   -0.2020069849   -2.6798897192
 H    0.6722437871    2.0094338432    0.0910499055
 H   -0.8751503772    1.7888840030   -0.7371729065
 H   -0.7875397769    1.6314439352    1.0204172503
 H    0.6166673511   -0.4168610629    0.8228389697
 H   -0.9073283285   -0.6275052968   -0.0292194898
 H    2.6294498369   -1.2239230865   -0.5191167997
 H    3.4388452863   -0.8299554098   -3.0382726401
 H    1.1829878232   -2.6531464211   -4.9622750363
 H    0.2491534850   -2.8414419846   -3.4521547449
 H    1.4064734398   -0.2292115634   -4.5293261817
 H   -0.8048406617   -0.6620774028   -2.7696041792
 H    0.0451110440    0.8677300030   -2.8785235947