19

 C    0.1184341228    1.5159559025    0.0176773108
 C   -0.0164680821    0.0292977075    0.0247663709
 C   -1.1369649406   -0.7371491717   -0.0296903479
 C   -0.7256912338   -2.2008138863    0.0677966362
 C    0.7996570903   -2.1354173159   -0.1807120931
 N    1.1270864507   -0.7424158452    0.1556352327
 C   -2.5147674034   -0.2445437972   -0.0739930823
 N   -3.4861451591   -1.2304596912   -0.0270503496
 O   -2.8408251009    0.9324420740   -0.1892439135
 H    0.6387448280    1.8516689607    0.9222544350
 H    0.7197785513    1.8423866813   -0.8405022999
 H   -0.8668677685    1.9745834741   -0.0386236950
 H   -0.9353534905   -2.6130513599    1.0666310284
 H   -1.2251879263   -2.8483184637   -0.6596402453
 H    1.3684601925   -2.8360746965    0.4361043844
 H    1.0266270375   -2.3465081838   -1.2358250096
 H    1.9864399484   -0.3610453797   -0.2135358347
 H   -3.2745599023   -2.1292436823    0.3736079270
 H   -4.4239615643   -0.8882269967    0.1144013755