17

 N   -0.1459872529    1.2898253102    0.0131333911
 C   -0.0474411640    0.0237916930    0.0046963734
 N    1.0986928622   -0.7720875577   -0.0069378904
 C    0.8712178313   -2.1420592492   -0.0145906880
 O    1.7308903549   -2.9867436694   -0.0236882701
 C   -0.6452094703   -2.3337922824   -0.0061176345
 C   -1.2108219553   -0.9201030521    0.0061383577
 C   -2.4584572094   -0.5231518512    0.7656070772
 C   -2.4680923841   -0.5138890355   -0.7321932021
 H    0.7624917403    1.7529274244    0.0105796482
 H    2.0383159174   -0.4030595337   -0.0098438264
 H   -0.9306713693   -2.9141837618   -0.8888553398
 H   -0.9197811959   -2.9251546676    0.8727835298
 H   -2.9918833607   -1.3137592882    1.2828357737
 H   -2.4251264214    0.4330587989    1.2749565109
 H   -2.4412369106    0.4485483427   -1.2300686938
 H   -3.0082052221   -1.2980784803   -1.2522464268