14

 C    0.0028350484    1.4901957984    0.0887491259
 C    1.2978841194    0.7407382137    0.0241339757
 O    1.9801476660    0.4229053027    1.2576222010
 C    1.1348334268   -0.4084735859    1.8756645234
 C   -0.0074100686   -0.7634661322    1.2321528908
 C   -0.6056079151   -1.6330917454    2.1698647701
 N    0.1195656059   -1.7717355036    3.2649994534
 O    1.2780161168   -0.9389743882    3.0690339880
 C   -0.0304467376   -0.0278446487   -0.0563369522
 H   -0.3117494433    1.9190697727    1.0336108630
 H   -0.2361179651    2.0829197449   -0.7879148676
 H    2.0006673421    0.8689097298   -0.7875650442
 H   -1.5345311132   -2.1844521407    2.1173317721
 H   -0.3776794026   -0.4786279475   -0.9781731997