14

 C    0.0407239957    1.6414382027    0.1327077772
 C   -0.0325930042    0.1211690172   -0.0996263861
 C   -1.4301651735   -0.3897392735   -0.1310895505
 C   -2.1703946636   -1.0057382109   -1.1113483748
 N   -3.4232201490   -1.2512929630   -0.5815586776
 N   -3.4952528010   -0.8472423905    0.5942668782
 O   -2.1961450339   -0.2669833371    0.9383718864
 C   -1.7881442588   -1.3515734681   -2.4282630912
 N   -1.4399550898   -1.6190891235   -3.4991653324
 H    1.0852370859    1.9606062275    0.1604409508
 H   -0.4624797481    2.1859178394   -0.6708880012
 H   -0.4296304004    1.9151357160    1.0802167666
 H    0.4474927951   -0.1495185123   -1.0440709378
 H    0.5055413054   -0.4017860340    0.6996553121