18

 C   -0.1568853400    1.5633052755   -0.2905571376
 C   -0.0441095364    0.0910802311   -0.1094331006
 C   -0.0942103359   -1.0993168748   -1.0201855773
 C    1.2825861463   -1.5056876452   -0.5346923080
 N    1.0665406941   -0.6497385632    0.6992674096
 C   -0.0475719004   -1.4238822385    1.3943920682
 C   -0.4140161057   -0.7534030294    2.6960365829
 O   -0.7754873909   -1.3441638433    3.6806237506
 C   -0.9752231814   -1.0339206253    0.2521607556
 H    0.7273459102    1.9690042175   -0.7939186656
 H   -1.0333428820    1.8001883712   -0.9027734114
 H   -0.2649731767    2.0798426607    0.6691624914
 H   -0.5482020652   -1.1728361027   -2.0011307209
 H    1.5046444951   -2.5580332889   -0.3269379372
 H    2.0879011183   -1.0713060854   -1.1326160549
 H    0.1660217700   -2.4815931657    1.5772332610
 H   -0.3378431144    0.3570387756    2.6767360040
 H   -2.0564119251   -1.0671821991    0.1959000801