20

 C   -0.0286451380    1.6643442042    0.0173772876
 C    0.0247024650    0.1454775932    0.0157080941
 C    1.0483833658   -0.6082142762   -0.8785723560
 C    2.4517223186   -0.2695987286   -0.3413887046
 C    2.2087891875   -0.2799463401    1.1290990179
 C    0.7079685740   -0.6224746197    1.1815591434
 C    1.1310086140   -1.7595963441    0.1853564884
 C    0.5770222861   -3.1424286854    0.0841750158
 N    2.6361031823   -1.5413873715    0.4354559210
 H    0.9660785208    2.0901863081    0.1847100848
 H   -0.4021105334    2.0494688025   -0.9378923302
 H   -0.6904465655    2.0374251397    0.8067863847
 H   -0.9732266448   -0.2795688021   -0.1521578285
 H    0.9066518066   -0.7624193019   -1.9472862171
 H    3.2824761448    0.2240622364   -0.8303659879
 H    2.8370159759    0.2050406617    1.8660317245
 H    0.2302686222   -0.7907762556    2.1456617053
 H   -0.5033147089   -3.1204908809   -0.0969481420
 H    1.0518697971   -3.6894890974   -0.7376347053
 H    0.7587567499   -3.7002110622    1.0093641541