29

 C    0.0614139597    1.8176418886   -0.7449877511
 C    0.5635736992    0.3893994976   -0.4426764891
 C    1.6257040738    0.0449642261   -1.5025056348
 C    1.0131521334    0.2420630270    1.0497190359
 C   -0.1524453021    0.6649340707    1.9696509729
 C    1.6052269361   -1.1627793045    1.4721900762
 C    3.0795944663   -1.3034629797    1.0292487666
 C    1.6284943813   -1.3071385350    3.0126958182
 C    0.7720599054   -2.3313164883    0.9089981354
 H    0.8231288632    2.5644768591   -0.4883851393
 H   -0.1520998575    1.9233157905   -1.8134469761
 H   -0.8537150540    2.0744591373   -0.2087947343
 H   -0.2860807590   -0.2905772643   -0.5960345760
 H    2.5444538441    0.6235931490   -1.3518448819
 H    1.8918931486   -1.0126485375   -1.5201538035
 H    1.2456464114    0.2930864608   -2.4993442853
 H    1.8240912732    0.9701401578    1.2074805761
 H    0.1383437605    0.6743676148    3.0205200499
 H   -0.4995591971    1.6717218523    1.7351001028
 H   -1.0101020770   -0.0106033007    1.8663379331
 H    3.6918823127   -0.5116056071    1.4757056584
 H    3.4845859975   -2.2620024553    1.3731046572
 H    3.2199100215   -1.2606725813   -0.0493959082
 H    0.6286076828   -1.4000027022    3.4437671411
 H    2.1850590954   -2.2097138910    3.2869027015
 H    2.1275227047   -0.4567652392    3.4908463753
 H    0.8163062844   -2.3907509137   -0.1814510981
 H    1.1416342960   -3.2844778639    1.3030615467
 H   -0.2817595546   -2.2476377081    1.1960198403