17

 C    0.1221385480    1.7240936857    0.1929612198
 C   -0.0056232438    0.2119099317    0.0611747271
 C   -1.3881554003   -0.2768650987    0.3900294767
 O   -1.9499722349   -1.1818147425   -0.1788388709
 C    0.5797469854   -0.4597799627   -1.1889566121
 O    1.9880276610   -0.1736691069   -1.2049232635
 C    1.5186758888   -1.2804956563   -0.4156659498
 C    1.0651646806   -0.6680226173    0.9142927130
 O    2.0226816666    0.0141549297    1.6568860047
 H    1.1252683421    2.0495232660   -0.0896717894
 H   -0.5935371419    2.2408821061   -0.4554149396
 H   -0.0594229130    2.0405744082    1.2247016306
 H   -1.8698176953    0.2494990367    1.2463520190
 H    0.0970550093   -0.6672683663   -2.1348143560
 H    1.9508922678   -2.2537872917   -0.6148915829
 H    0.5680337149   -1.3780068044    1.5790460219
 H    2.5844801649    0.4762130527    1.0210088513