18

 C   -1.0691622507    1.0835982531    0.1857000516
 C   -0.0069541547    0.0062865702    0.0170981081
 C    0.8534938517   -0.0623275845   -1.2887246137
 C    2.1289362687   -0.3192386722   -0.4480682773
 O    3.2664697690    0.4115557537   -0.8437619405
 C    4.3415054392    0.3436648906   -0.0206435576
 N    5.3912548461    0.9719871796   -0.3237082195
 C    1.3203168683    0.1835200349    0.7735297743
 O    1.6366095801    0.6986312118    1.8059039335
 H   -0.6616262123    2.0734949057   -0.0414622631
 H   -1.9201145097    0.9039303223   -0.4782920817
 H   -1.4367860426    1.1017939386    1.2156893277
 H   -0.4218351051   -0.9828399685    0.2495070360
 H    0.5910317200   -0.8240660195   -2.0223429246
 H    0.9200464408    0.9129672602   -1.7765943262
 H    2.3525237713   -1.3918286560   -0.3593339358
 H    4.1773813272   -0.2782156228    0.8668922918
 H    6.1023985928    0.8218174327    0.3888807570