14

 O   -0.6265639893    0.1308569298   -1.0452199180
 C   -0.0077785030    1.0212360171   -0.5233784181
 C    1.3925591591    1.4555690123   -0.9083928107
 C    2.4204018102    0.9842150360    0.1109968128
 C    3.6296192563    1.8024326502    0.3780302939
 N    2.5878214818    1.6589980938    1.4055314752
 C   -0.6028105033    1.7840677547    0.6001424436
 N   -1.0528955314    2.4149023833    1.4587799594
 H    1.6052861413    1.0250540318   -1.8913832991
 H    1.4198272291    2.5495231755   -0.9832833144
 H    2.5022643531   -0.0986482541    0.1783035297
 H    4.5728688884    1.3162218567    0.6085439904
 H    3.7244442765    2.7495421168   -0.1477848735
 H    2.0146829812    2.4976691662    1.4590892888