15

 C   -0.0000259639    1.5428073205    0.0661647242
 C    0.0409962180    0.0460788967   -0.1389483004
 C    0.6732421684   -0.6690096394   -1.2606609926
 C    1.9566074437   -0.0281303561   -1.7672838936
 O    1.8340455248    1.1650041421   -2.4974072002
 C    2.3880530287   -0.0054746447   -0.2804999525
 O    3.3261185154    0.4066346410    0.3282142471
 N    1.2553881352   -0.7856095952    0.1749735890
 H    0.8146329510    2.0579942523   -0.4432952633
 H   -0.9425531329    1.9336772772   -0.3306119313
 H    0.0405621014    1.7773034450    1.1344885311
 H   -0.8339615557   -0.4667417558    0.2555495918
 H    0.2172416854   -1.5389149960   -1.7180917659
 H    2.5654308184   -0.7759280514   -2.2982844810
 H    2.7212636921    1.5032036238   -2.6632280226