18

 C   -0.2690041034    1.7442837071   -0.3024860464
 C   -0.0090444616    0.2579945188   -0.1521380191
 C   -1.2546627650   -0.5546314502    0.2335001110
 C   -1.9076387584   -0.0977340905    1.4537094092
 C   -2.4444244540    0.2838472584    2.4586045196
 C    0.8657252156   -0.4051820253   -1.2465835348
 C    1.8683563322   -0.5763711620   -0.1275136044
 N    3.0180211829   -1.0692008044   -0.0408304876
 O    1.0723884857    0.0177561411    0.8277072647
 H    0.6557205054    2.2700369125   -0.5541772193
 H   -0.9985248386    1.9233929465   -1.0994925898
 H   -0.6670020529    2.1581501590    0.6271435505
 H   -1.9614892785   -0.5115022066   -0.6059762767
 H   -0.9622824796   -1.6056884031    0.3433095008
 H   -2.9171025359    0.6132087011    3.3506138780
 H    0.4834825802   -1.3375773448   -1.6667836789
 H    1.1880920132    0.2532725855   -2.0547181138
 H    3.3796047524   -0.9943685830    0.9117699071