21

 C    0.0217584166    1.3459414498    0.0916942322
 O   -0.0269515389   -0.0665718863    0.0748010619
 C   -1.2986723390   -0.6156731569    0.0413846123
 C   -2.1870611924   -0.6570296336   -1.2507354911
 C   -2.8326002520   -1.8552959627   -0.4978466197
 C   -1.4143814000   -2.1581535950    0.0628619404
 C   -3.5029263925   -1.1451566041    0.6952543869
 C   -2.3346536924   -0.1920798353    1.1095994639
 O   -1.7971218879   -0.4250384179    2.3994431559
 H    1.0731888736    1.6266400243   -0.0042591461
 H   -0.5369412931    1.7866165951   -0.7472647122
 H   -0.3674944527    1.7562054091    1.0328926701
 H   -2.8216712502    0.2018953045   -1.4911359584
 H   -1.6037715688   -0.9602338097   -2.1224276221
 H   -3.4123356093   -2.6123578335   -1.0235980680
 H   -0.7552597193   -2.6167513018   -0.6766541667
 H   -1.3267620479   -2.6565610260    1.0299531604
 H   -4.4121513354   -0.6063413640    0.4110122113
 H   -3.7435160888   -1.8308491775    1.5137468398
 H   -2.6160539405    0.8646049332    0.9995558169
 H   -2.4798596292   -0.2281849916    3.0481642624