16

 C   -0.0210581682    1.4808287850    0.0093523271
 C   -0.0099070132    0.0265728014   -0.0332423282
 C   -0.0014498753   -1.1764588877   -0.0684544290
 C   -0.0163429389   -2.6356013433   -0.1086413915
 N   -1.3643848735   -3.2167439545    0.0117499325
 C   -2.1086674686   -3.3970800464   -1.1631587559
 O   -3.2279327848   -3.8170091823   -1.2395533701
 C   -1.8582911287   -3.4675869026    1.3001685486
 O   -2.9417345759   -3.8976256003    1.5761185202
 H    0.5755685248    1.8575082938    0.8468644578
 H    0.3875632158    1.9076354635   -0.9126774983
 H   -1.0414337795    1.8601065113    0.1291929911
 H    0.4246969610   -2.9988316460   -1.0430751021
 H    0.6014384130   -3.0485395717    0.6959996100
 H   -1.5091283429   -3.0997445425   -2.0468224009
 H   -1.0916499253   -3.2172885577    2.0606479487