19

 C   -0.2143814878    1.3506871726   -0.1607677497
 O   -0.1010712559   -0.0514394030   -0.0694254525
 C    0.7278965194   -0.6116840017   -1.0700652917
 C    0.7082368240   -2.1205054190   -0.8948982653
 N   -0.6586513233   -2.5999076595   -0.9550840585
 C   -0.9447496353   -3.9268431160   -1.1020035355
 N   -0.0596220534   -4.8143948580   -1.3582579585
 C   -2.4192455744   -4.2471634193   -0.9760259520
 O   -2.8565076415   -5.3598600369   -1.1039109041
 H    0.7623967864    1.8438958400   -0.0427062021
 H   -0.6432216522    1.6626893417   -1.1256594210
 H   -0.8754372195    1.6787719616    0.6447060219
 H    0.3541404009   -0.3380442612   -2.0703041688
 H    1.7593918017   -0.2362377644   -0.9796331655
 H    1.2827226173   -2.6059152516   -1.6881666063
 H    1.1822653825   -2.3926105889    0.0593275235
 H   -1.3347621622   -2.0083522552   -0.4954458600
 H   -0.5343300180   -5.7116163528   -1.4755156756
 H   -3.0864641787   -3.3829588084   -0.7544907984