23

 C   -0.0745559834    1.5520494811   -0.0582071539
 C    0.0019448288    0.0225287763   -0.0161143628
 C    0.7097544057   -0.5314230163    1.2271591784
 C    0.0089889129   -0.2178821934    2.5703282104
 C    0.4421977655   -1.3390765570    3.5456396664
 O   -0.5294887439   -1.6447198536    4.5380817956
 C    0.7009625603   -2.5448032000    2.6640491203
 C   -0.3459093361   -2.8765250382    1.6303131360
 C    0.8582238663   -2.0529700647    1.2436733311
 H    0.9251347173    1.9996862327   -0.0160306849
 H   -0.5544139520    1.8994711479   -0.9784943258
 H   -0.6501002684    1.9495872231    0.7842751875
 H   -1.0095239768   -0.4009724039   -0.0679498448
 H    0.5282358228   -0.3382227343   -0.9094341782
 H    1.7231285758   -0.1044234685    1.2573319212
 H    0.2494375980    0.7787837463    2.9512623445
 H   -1.0804297506   -0.2643232599    2.4590781921
 H    1.3923985322   -1.0585042072    4.0289370694
 H   -0.6230539625   -0.8743626376    5.1074020983
 H    1.3123366973   -3.3461805090    3.0627461614
 H   -0.3732800871   -3.9016821020    1.2781023511
 H   -1.3233604238   -2.4118346232    1.6988392202
 H    1.5883358116   -2.5002634588    0.5769583064