14

 C   -0.3043402720    1.5246499365   -0.0445367336
 C    0.0049127334    0.0378517441   -0.0512796062
 C    1.3166028977   -0.4412204896   -0.7129199899
 O    1.7220565500   -1.1423398397    0.4884651923
 C    0.6011299771   -0.6321834611    1.2285983393
 C    1.0053444566    0.2748029722    2.3099682893
 N    1.3090562333    0.9980745186    3.1588258457
 H    0.5440478064    2.1081707569    0.3246124776
 H   -0.5385095241    1.8659436016   -1.0581238802
 H   -1.1668773022    1.7481941728    0.5908726879
 H   -0.8593269203   -0.5329252870   -0.3986560238
 H    1.2219870831   -1.1221752521   -1.5645832025
 H    2.0191451245    0.3627031470   -0.9656340525
 H   -0.0005647435   -1.4395078404    1.6620286468