23

 C   -0.0658950902    1.5756880022    0.0248439142
 C    0.1238888679    0.0606218144    0.0219388505
 C    0.8160768347   -0.5025266395   -1.2337162950
 C    1.2287384180   -1.9373741823   -0.8450746930
 C    2.6018189501   -2.4094707342   -1.3581567276
 C    3.5339092240   -2.0002372915   -0.2113338598
 O    2.7842094691   -2.2270309868    0.9738456041
 C    1.4187550889   -1.9042093904    0.7089980342
 C    1.0163621474   -0.4800293138    1.1537584771
 H    0.8990620266    2.0894527041   -0.0599766141
 H   -0.6923176009    1.9017576707   -0.8124887543
 H   -0.5435933091    1.9166292908    0.9494989506
 H   -0.8644753197   -0.4151034184    0.1061391180
 H    0.1833749815   -0.4697014279   -2.1260771110
 H    1.7078047290    0.1024651515   -1.4511317247
 H    0.4385819075   -2.6392451317   -1.1235053191
 H    2.6172224251   -3.4972787254   -1.4769437485
 H    2.8791881302   -1.9589893690   -2.3155132384
 H    4.4507675752   -2.5928179185   -0.1477823675
 H    3.8220452641   -0.9391988962   -0.3014764052
 H    0.8179256517   -2.6623269285    1.2210703662
 H    1.9260355710    0.1292292993    1.2307261872
 H    0.5322572281   -0.4621911389    2.1343704061