19

 C   -0.3509325983    1.6107285691   -0.0461597088
 C    0.0161437839    0.1307967008    0.0131355760
 C   -1.1957766900   -0.7657159443   -0.2235638966
 C    1.2655687049   -0.2489296051   -0.8579596203
 N    1.9704214363   -0.5899227326    0.3766098257
 C    0.8644219595   -0.2640604468    1.2712896073
 C    3.2178190955   -1.0224096241    0.6535397796
 O    3.6399648492   -1.2386234593    1.7721077917
 H    0.5243614860    2.2460394556    0.1238980587
 H   -0.7726691789    1.8723281249   -1.0231290785
 H   -1.0978004488    1.8580021003    0.7163478486
 H   -1.6417157899   -0.5725251651   -1.2057066725
 H   -0.9225991846   -1.8250770625   -0.1804213407
 H   -1.9671554145   -0.5872184880    0.5337069152
 H    1.1137895191   -1.0948828102   -1.5387704717
 H    1.7110896339    0.5823997894   -1.4170954125
 H    1.0875078015    0.5519174163    1.9672453064
 H    0.4923967223   -1.1217781686    1.8421486539
 H    3.8216323029   -1.1605171699   -0.2680266217