17

 N   -0.0743454799    1.2968822652   -0.3084814348
 C   -0.0357737612    0.0633426418   -0.0472471103
 O    1.1139280137   -0.6380145845    0.2272000087
 C    0.8336496359   -2.0189860498    0.4732849921
 C    0.3924607745   -2.3491223230    1.9210202259
 N   -1.0478761239   -2.4810388748    1.5159335718
 C   -1.7356485470   -1.1470184843    1.4717680875
 C   -1.2287494478   -0.8565665705    0.0224178501
 C   -0.6348611378   -2.2781848269    0.0656931468
 H    0.8631045567    1.7017100310   -0.2775406411
 H    1.6421952984   -2.6077100225    0.0392224250
 H    0.7761946674   -3.3092702831    2.2782918627
 H    0.6018462418   -1.5778505481    2.6684640308
 H   -2.8197613933   -1.2771971652    1.5177052876
 H   -1.4317271588   -0.4401669444    2.2497767714
 H   -1.9849707313   -0.5957955565   -0.7145163075
 H   -0.8925379274   -3.0342965644   -0.6755560666