23

 C   -0.1235634632    1.6860629974   -0.0679845400
 C    0.0309339991    0.1580925630   -0.0226707835
 C    0.7113236142   -0.3954414931   -1.2871646977
 C   -0.0559535864   -0.1648336326   -2.5847254965
 O    0.6280054404   -0.8688356973   -3.6116840685
 C    0.8120238873   -0.3031273899    1.2235732325
 C    0.1338843336    0.0239401462    2.5664832581
 C    0.8409675990   -0.6483677537    3.7209814837
 O    1.2952785205   -0.0817865236    4.6809724212
 H    0.8561338846    2.1736744186   -0.1409455432
 H   -0.7186941909    2.0065573399   -0.9275969488
 H   -0.6206303954    2.0696929498    0.8273864975
 H   -0.9753543336   -0.2841269553    0.0391225509
 H    1.7149509571    0.0369293131   -1.3915492785
 H    0.8506913195   -1.4781622583   -1.1819043861
 H   -1.0911361936   -0.5299764881   -2.4732895528
 H   -0.1123651846    0.9091200728   -2.8168808387
 H    0.1837208117   -0.6910439679   -4.4456664690
 H    0.9605171172   -1.3893131125    1.1602042572
 H    1.8152305547    0.1434136090    1.2084344664
 H    0.0982397995    1.0973185195    2.7668207181
 H   -0.8985271125   -0.3570459828    2.5480260668
 H    0.9260017318   -1.7570566443    3.6193480410