21

 C   -0.3344600428    1.4052954362    0.0781871725
 C   -0.1132177993   -0.0867831547    0.0280015266
 C   -0.4429467389   -0.9520241101    1.1970996927
 N    0.9598404553   -0.6495009302    0.8784611390
 C    1.6280449213   -1.7141991763    0.1007538713
 C    0.7214880875   -2.0752106148   -1.0997084519
 C   -0.0981664381   -0.8045455868   -1.3082121915
 C   -1.1914819845   -0.6858594812   -2.2997493586
 N    0.1221848741   -0.0662546499   -2.5645667043
 H    0.4495088938    1.9466943672   -0.4627378637
 H   -1.3051022735    1.6818080879   -0.3503225858
 H   -0.3156370287    1.7538271985    1.1132015393
 H   -0.8059435917   -0.4935791204    2.1132879259
 H   -0.8231059392   -1.9550161018    1.0193599326
 H    2.5823483486   -1.3059132897   -0.2475507333
 H    1.8476915322   -2.5684705257    0.7481412322
 H    1.2878207788   -2.3240685831   -1.9987603910
 H    0.0704614909   -2.9250343573   -0.8710918372
 H   -1.4386958351   -1.5290476781   -2.9398145848
 H   -2.0342267033   -0.0403336192   -2.0630048311
 H    0.0637280328    0.9367660491   -2.4072633491