19

 C   -0.0379586140    1.5193915671   -0.1056439969
 C    0.0088776536    0.0194870618    0.0476580535
 N    1.3497628336   -0.6259731580   -0.0914747866
 C    0.6648192285   -0.6601617575    1.1719101490
 C    1.1620966040   -0.1689425992    2.5626614746
 N   -0.1348070390   -0.7539598400    3.0622272166
 C    0.1784498128   -1.8385437321    2.0644665436
 C    1.5390690770   -2.3867931607    2.5454517875
 C    2.1956829929   -1.2690469588    2.8757765890
 H    0.8504534231    1.9779539662    0.3361740203
 H   -0.0743327467    1.8040727194   -1.1626621545
 H   -0.9243598370    1.9298119980    0.3894788152
 H   -0.8329842869   -0.5130754249   -0.3950686830
 H    1.2880841185   -1.5182559626   -0.5754847568
 H    1.3844138681    0.8712557488    2.7961946414
 H   -0.0255895224   -1.1036765429    4.0163150482
 H   -0.6185421068   -2.5260171580    1.7788804623
 H    1.8632103661   -3.4176355262    2.5463364936
 H    3.2105360746   -1.1278943706    3.2184803931