22

 C    0.0432407309    1.5651677441    0.0073307435
 C    0.1421005530    0.0373754559   -0.0094060821
 C    0.6373830622   -0.5498091341    1.3177702699
 C    0.7443916634   -2.0692421376    1.3109211236
 C    1.8441247406   -2.7497496336    0.4423761304
 C    2.0240001962   -3.7882386455    1.5804484462
 O    3.2938289584   -4.3147445434    1.8698547828
 C    1.3469018204   -2.7870033121    2.5524162713
 H    1.0179538162    2.0227693791    0.2107650883
 H   -0.3128485804    1.9544080711   -0.9516688838
 H   -0.6494481407    1.9083510434    0.7839770195
 H   -0.8401896637   -0.3914077781   -0.2486283257
 H    0.8144600476   -0.2780648272   -0.8177446086
 H    1.6203967276   -0.1209539747    1.5609601586
 H   -0.0376828738   -0.2375394179    2.1272683436
 H   -0.2335173982   -2.5043066470    1.0718469683
 H    1.5892840828   -3.1116363040   -0.5564245147
 H    2.7302584874   -2.1061755544    0.3673248942
 H    1.3810335784   -4.6579273599    1.4132777399
 H    3.8909718207   -3.5755113774    2.0260639754
 H    2.1009276716   -2.1540781341    3.0376589847
 H    0.6727256794   -3.1773952027    3.3186557248