21

 C   -0.0729299695    1.5761643477   -0.0746578988
 C    0.0366620846    0.0639417617    0.0078925701
 C   -1.2047509744   -0.6395459361   -0.5166861450
 C    1.3510137013   -0.6725956756   -0.2432934557
 C    2.6200906605    0.1054019520   -0.1121299783
 C    2.8176529134    0.5272353355    1.1379354682
 C    1.7165080098    0.0607809550    2.0801572653
 O    1.1657261874    1.0898801730    2.8957924916
 C    0.7346135826   -0.6619988617    1.1467038223
 H    0.8634220219    2.0814437022    0.1717397556
 H   -0.3473562102    1.8818415426   -1.0913042342
 H   -0.8602772853    1.9465365595    0.5932678351
 H   -1.3985551235   -0.3650608520   -1.5603108829
 H   -1.1027031573   -1.7279811337   -0.4695634214
 H   -2.0893992967   -0.3620507992    0.0687125774
 H    1.3267249503   -1.5515454829   -0.8796693347
 H    3.2677044855    0.3137656041   -0.9572437250
 H    3.6335502417    1.1502995363    1.4866929247
 H    2.1177950275   -0.6560994134    2.8081709328
 H    0.7875292590    1.7537041085    2.3109519736
 H    0.2332270314   -1.5390648135    1.5397968393