17

 C   -0.1731741900    1.5428980005    0.0169343405
 C    0.0278160765    0.0359311031    0.0534313489
 C    1.1519376011   -0.6107312139   -0.7995898940
 C    2.1843766759   -0.2036967792    0.2726049279
 C    0.9609571282   -0.5490291960    1.1957454429
 O    0.8634557650   -0.2341792427    2.5279202995
 C    0.8244699560   -2.0188085518    0.8410247873
 O    0.6328367755   -2.9546295169    1.5638052814
 O    0.9575378234   -2.0440626326   -0.5122993919
 H    0.7576330997    2.1090777028    0.0987806583
 H   -0.6662164865    1.8399551934   -0.9145327952
 H   -0.8170354843    1.8473844298    0.8474299301
 H   -0.9358284743   -0.4733087574   -0.0511647783
 H    1.2788319919   -0.4741996331   -1.8692405814
 H    3.0832684156   -0.8177388606    0.3563520107
 H    2.4360501344    0.8554716720    0.2696111425
 H    0.6938252519   -1.0638162876    2.9994023008