18

 C   -0.0872787944    1.5263232981    0.0367391180
 C   -0.0151315623    0.0394598075   -0.0344091847
 C   -0.0284471089   -0.7929948931   -1.0815131585
 C    0.0746641859   -2.1734235771   -0.4710758761
 O    0.0853720501   -3.2624989393   -1.3136201873
 C   -0.7775270713   -2.1678570381    0.8573182003
 N    0.2262133445   -3.1266572838    1.4567727635
 C    1.0579955816   -2.0740601923    0.7594036476
 C    0.0970216838   -0.9039788177    1.1641182663
 H    0.7989792236    1.9472797965    0.5289738072
 H   -0.1635616380    1.9699730777   -0.9598110101
 H   -0.9539186156    1.8577151585    0.6233035023
 H   -0.0957575299   -0.5799290941   -2.1389008119
 H    0.1557197392   -4.0365917487   -0.7361669794
 H   -1.8570355824   -2.2971304398    0.9773526509
 H    0.2737529111   -2.9983172233    2.4709005019
 H    2.1516633285   -2.0922853391    0.7635163521
 H    0.1314261844   -0.5142139018    2.1824670580