19

 O    0.1463189169    1.3621966640   -0.1626282910
 C    0.0415043989   -0.0344172261    0.0072252582
 C   -1.4289005085   -0.5206272624    0.0485353132
 C   -2.1175502150   -0.1169638814   -1.1756810763
 C   -2.6459431622    0.2497954485   -2.1926885721
 C   -1.4862519948   -2.0351983845    0.2928388501
 C   -2.8296962313   -2.7731559601    0.1051858807
 C   -2.0769986015   -3.5629846173   -0.9846455150
 O   -0.8735708916   -2.7911959949   -0.7732831557
 H   -0.2924757903    1.5798981701   -0.9935887112
 H    0.5700855539   -0.5901883175   -0.7790877712
 H    0.5171900909   -0.2654673381    0.9658370830
 H   -1.9160757388   -0.0290229630    0.9027562874
 H   -3.1293846416    0.5623750629   -3.0853635284
 H   -0.9895637073   -2.2419772718    1.2518330249
 H   -3.1707416108   -3.3514881277    0.9645656858
 H   -3.6425204151   -2.1457169819   -0.2624737268
 H   -1.9178129865   -4.6270867121   -0.7728564954
 H   -2.4546121753   -3.4508777667   -2.0067133401