22

 C    0.2248664819    1.8078085953   -0.3879514577
 C    0.2972362940    0.2800913026   -0.2628953868
 C    0.8500205789   -0.4097395422   -1.4866731010
 C    2.2038143824    0.0479322808   -2.0771132944
 C    2.7011838089   -0.7644010910   -3.2436273831
 C    1.5010386242    0.1247304710   -3.4116333695
 N    0.1636387338   -0.2895731785   -2.8391840793
 C    0.2061645025   -1.5927949682   -2.1096884336
 C    0.7594864635   -2.9339269628   -2.5806107287
 H    1.2168625945    2.2573805081   -0.4949629883
 H   -0.3677582263    2.0871961452   -1.2638116994
 H   -0.2424167496    2.2467695665    0.4986146597
 H    0.9168285968    0.0027246717    0.6018930052
 H   -0.7062724911   -0.1122732541   -0.0631805350
 H    2.8201534726    0.7890409897   -1.5861188742
 H    3.5900847230   -0.3307934608   -3.6961174442
 H    2.6845583064   -1.8409436444   -3.2894258905
 H    1.4685386759    0.9222534764   -4.1430108473
 H   -0.7952820894   -1.7185440615   -1.6986087667
 H    1.7124068456   -3.1914703470   -2.1119284642
 H    0.0472604565   -3.7216314948   -2.3187350630
 H    0.8871178950   -2.9629763621   -3.6659174380