16

 C   -0.0108694953    1.4394831735   -0.0904795901
 N   -0.0076902036   -0.0211104873    0.0213817016
 C   -0.0197124376   -0.6275815790    1.2660008811
 N   -0.0326825800    0.0416595982    2.3470861770
 C    0.0078953108   -0.7826019887   -1.1233908288
 C    0.0183795825   -2.1306161740   -1.3806136432
 C    0.0321492608   -2.1777357450   -2.7948847446
 N    0.0305883162   -0.9951880119   -3.3567065001
 O    0.0147096822   -0.0924288884   -2.2720245421
 H    0.8819219152    1.7818930678   -0.6195811908
 H   -0.8936063027    1.7765159547   -0.6395016275
 H   -0.0234109901    1.8376902409    0.9215878100
 H   -0.0170058699   -1.7178718476    1.1979907684
 H   -0.0403286379   -0.5828841499    3.1494084177
 H    0.0171117600   -2.9557562191   -0.6914523921
 H    0.0434913494   -3.0525223441   -3.4307721465