18

 C   -0.1088011679    1.5188598693   -0.0806404525
 N    0.0655946304    0.0829629528    0.0320002601
 C    0.7329722914   -0.5559299896   -1.1367659803
 C    1.3933019872   -1.8777990880   -0.6214259557
 C    1.5355620636   -1.4890227282    0.8104201096
 C    0.7699244846   -0.4223922480    1.1385733893
 C    0.8509819939   -0.2762798318    2.5586211427
 C    1.6617206721   -1.3014749616    2.9632390705
 O    2.0760179595   -2.0700617353    1.9127518606
 H    0.8445828627    2.0630337872   -0.2092654650
 H   -0.7489697758    1.7441461099   -0.9394338231
 H   -0.6054449090    1.9010172524    0.8156523432
 H    0.0145926006   -0.7235976786   -1.9436778035
 H    1.5248050481    0.1114728356   -1.5152653720
 H    0.7245464583   -2.7398325283   -0.7562713066
 H    2.3235336318   -2.0962761056   -1.1544479043
 H    0.3976583121    0.4628735082    3.1999666456
 H    2.0456491364   -1.5905098704    3.9278046614