23

 C   -0.0899482636    1.5540697735   -0.0659369099
 C    0.0235264373    0.0235148415   -0.0310959726
 C    0.7203127500   -0.4827305385   -1.3044162071
 C    0.7547734655   -0.4934478565    1.2386948135
 C    0.1031873233   -0.0212852218    2.5547516038
 C    0.8618043475   -0.4650294773    3.8020588711
 O    0.1936425417    0.0939620182    4.9222262759
 C    0.7593375014   -2.0109448148    1.2265513962
 O    1.7359036049   -2.7153883056    1.2422371854
 H    0.8991434117    2.0227916023   -0.0019167200
 H   -0.5469624665    1.8756343772   -1.0073135143
 H   -0.7039838398    1.9486210712    0.7469788274
 H   -0.9959225874   -0.3898751731   -0.0130043252
 H    1.7414353050   -0.0896780262   -1.3712022719
 H    0.7881157568   -1.5744777621   -1.3349803577
 H    0.1782188534   -0.1566462360   -2.1973957464
 H    1.8023385379   -0.1677566925    1.2070730129
 H    0.0455715613    1.0701705829    2.5720557196
 H   -0.9287907758   -0.3904603297    2.6181499376
 H    0.8936853862   -1.5638998149    3.8650042014
 H    1.9058833125   -0.1170124330    3.7418208429
 H    0.6468006295   -0.1973343554    5.7187394533
 H   -0.2663209428   -2.4566840893    1.2130767642