21

 C   -0.4916548433    1.3825927334    0.1407738924
 C    0.0805660448   -0.0081570193   -0.0285232379
 C    0.9729265401   -0.2318469543   -1.2518528366
 C    1.7925139332   -1.4872731213   -0.8971884228
 C    2.0787012880   -1.3212433306    0.6091113902
 C    0.8091124061   -0.6761763034    1.1837205072
 O    1.0271491124    0.1705303809    2.2865127240
 C   -0.4322875734   -1.5924506955    1.2461134306
 O   -0.9607177186   -1.0320800290    0.0284079086
 H    0.3075616260    2.1282950596    0.1885645885
 H   -1.1432153658    1.6246815833   -0.7053454683
 H   -1.0772183444    1.4519526225    1.0604871796
 H    0.3795181411   -0.3428898004   -2.1639240718
 H    1.6339961589    0.6338126460   -1.3829892807
 H    1.1877049790   -2.3828567496   -1.0717323526
 H    2.7056191122   -1.5879406491   -1.4894058917
 H    2.3432579290   -2.2619413715    1.1048115086
 H    2.9059528741   -0.6168322035    0.7596478407
 H    1.5763625500   -0.2953818723    2.9253160625
 H   -0.2640832523   -2.6742413102    1.1645324343
 H   -1.0739034670   -1.3839495155    2.1118924550