16

 O   -0.7379428203    1.1222730434    0.3060455013
 C   -0.2060168567   -0.0948137738    0.1113071751
 N   -0.2117417891   -0.6805883208   -1.0596333032
 O    0.4286657495   -1.9051973408   -0.8484259620
 C    0.7914830534   -1.9824594394    0.4419404045
 C    0.4212765426   -0.8737663364    1.1348635945
 C    0.5954243506   -0.5090813566    2.5547778337
 C   -0.4327671828   -0.9172545408    3.5931873882
 C    0.9335216699   -1.5487455129    3.5945024294
 H   -1.0827368169    1.4316087770   -0.5423646213
 H    1.3104064336   -2.8844724456    0.7277549990
 H    1.0308478664    0.4743497246    2.7073907734
 H   -0.6764287017   -0.2028567910    4.3712559397
 H   -1.2673560254   -1.5213441691    3.2560285889
 H    1.0098862606   -2.5834075962    3.2791300826
 H    1.6329241763   -1.2726625816    4.3752084563