14

 N    0.0462236316    1.3124641560   -0.1522663700
 C   -0.0320872069   -0.0296621689   -0.0682755974
 C   -1.1595008433   -0.7890910404   -0.0266152750
 C   -0.9985566722   -2.2040109904    0.0383396667
 O   -2.1334827624   -2.9349574554    0.0748058633
 N    0.1147154456   -2.8638585789    0.0649462326
 O    1.2854665949   -2.0693788514    0.0278544615
 C    1.2747063097   -0.7154452289   -0.0300898334
 N    2.3479914570   -0.0279902569   -0.0491029482
 H    0.9705126677    1.7140459669   -0.1000192159
 H   -0.7692723209    1.8938503290   -0.0849596186
 H   -2.1580293514   -0.3721758320   -0.0453989482
 H   -1.8672029083   -3.8648096883    0.1161260445
 H    3.1730115189   -0.6257787205   -0.0145829418