19

 C   -0.0176508301    1.5493406899   -0.0610491920
 C   -0.0120772028    0.0324423354   -0.0149176564
 O    0.6585837994   -0.4453523357   -1.1727683678
 C    0.7519543613   -1.7929038083   -1.2853562273
 C    0.2999390847   -2.8017508322   -0.4567838307
 N    0.6744743575   -3.9602702292   -1.0700710136
 N    1.3309771799   -3.7635861087   -2.2250908156
 C    1.3882945883   -2.4413879386   -2.3747303580
 C    2.0482016579   -1.8047537185   -3.5534927851
 H    1.0045926496    1.9371716913   -0.0778320717
 H   -0.5353341654    1.9048389849   -0.9562028141
 H   -0.5279871411    1.9518939490    0.8188225054
 H    0.5035158838   -0.3328624174    0.8864411156
 H   -1.0382928259   -0.3652418487    0.0067637499
 H   -0.2347890861   -2.7935086774    0.4775546200
 H    0.5159699562   -4.8998149615   -0.7523892722
 H    1.3445316191   -1.1833890032   -4.1184014084
 H    2.8733161381   -1.1527851629   -3.2460630131
 H    2.4426379856   -2.5766351184   -4.2175758650