21

 C   -0.0583099725    1.5035902187    0.0796884793
 C   -0.0096756608   -0.0182546558   -0.0550493354
 C    0.7883448949   -0.5524723466   -1.2592282153
 C    1.8641128093   -1.1845491377   -0.3188504371
 C    1.1026772096   -0.6314819114    0.8442000405
 O    1.3548342182   -0.4989031884    2.0104984725
 C    0.9677982028   -2.0338775414   -1.2292537678
 C   -0.0674116801   -2.9960593890   -0.6698497384
 C    1.7188461297   -2.6078047495   -2.4228892660
 H    0.9328552515    1.9467282286   -0.0640717618
 H   -0.7365223325    1.9409861316   -0.6598536107
 H   -0.4082662890    1.7829085630    1.0771929000
 H   -1.0132634174   -0.4376076903    0.0674538146
 H    0.9925696859    0.0318661688   -2.1490643882
 H    2.9433894294   -1.2354076665   -0.4068972215
 H   -0.5799287475   -2.6106212656    0.2130318375
 H   -0.8260681386   -3.2252838291   -1.4273241161
 H    0.4109271029   -3.9396546645   -0.3857343302
 H    2.2457420733   -3.5279745345   -2.1486553512
 H    1.0206370339   -2.8521826000   -3.2312556363
 H    2.4554205569   -1.9006642005   -2.8158590185