18

 C    0.0304527633    1.4889391783   -0.0759370110
 N    0.0458875526    0.0342217128    0.0405582106
 C    0.8464636821   -0.4046973749    1.1780334604
 C   -1.2747284670   -0.5382574708   -0.0098695864
 C   -1.4260220192   -2.0885723170   -0.1598210622
 N   -2.2566584856   -2.0598530182    1.0448127572
 C   -2.1273417202   -0.7150955543    1.3010221847
 O   -2.5163627057   -0.0096966620    2.1942692522
 H    1.0589756264    1.8545247757   -0.1598609823
 H   -0.5069335582    1.7806660342   -0.9837854831
 H   -0.4439411803    1.9918051282    0.7832704950
 H    0.4523623645   -0.0537403157    2.1467231335
 H    0.9011958864   -1.4966813218    1.2074518340
 H    1.8669278778   -0.0264504853    1.0651424461
 H   -1.8556011485   -0.0085599157   -0.7699905993
 H   -1.9460518087   -2.4207035163   -1.0637634698
 H   -0.4917263163   -2.6466692844   -0.0510975913
 H   -2.7504999232   -2.7890855327    1.5370026518