19

 C    0.0442679542    1.5153218226   -0.0123229126
 C    0.0153880784    0.0123552799    0.0155213497
 C    0.5923083059   -0.9698591579   -1.1108224811
 C   -0.0334352405   -1.8530936245   -0.0054313089
 C    0.6534865987   -0.9370581151    1.0580392524
 O   -0.4884620397   -3.1443957874    0.2493705154
 C   -1.6675668709   -2.8943177661    1.0542713541
 O   -1.9701030470   -1.4829053104    1.0782558511
 C   -1.2328088570   -0.9533992028   -0.0121285789
 H    1.0723412680    1.8885389155   -0.0715913563
 H   -0.5072181574    1.9066879817   -0.8737287670
 H   -0.4108737996    1.9267734026    0.8945085981
 H    0.0921721559   -0.9534607495   -2.0823939929
 H    1.6795480171   -0.9750599932   -1.2080427878
 H    1.7450821303   -0.9592658643    1.0908313343
 H    0.2092989624   -0.9309292514    2.0532733325
 H   -2.4952488667   -3.4615526658    0.6098808901
 H   -1.4933045032   -3.2119598170    2.0884042169
 H   -1.8445393890   -0.9037165769   -0.9209323593