17

 O    0.3716960009    0.9434874812   -0.9111953956
 C    0.0784317211   -0.2092502911   -0.1498919739
 C    0.5995423540   -0.1987024413    1.2791900230
 C   -0.2998729527   -0.6133590046    2.1716559887
 C   -1.6371130904   -0.9414582862    1.5524981449
 C   -2.7323727490    0.1573483771    1.7774697693
 C   -2.2328239995    0.7892672990    0.4748174274
 O   -2.2775497582    1.8990173407    0.0160481068
 C   -1.4326076050   -0.4648373923    0.0764094605
 H   -0.2603292975    1.6340351624   -0.6702237776
 H    0.5338640719   -1.0397652792   -0.7055676888
 H    1.6175987496    0.1041596464    1.4974679606
 H   -0.1283714212   -0.6968740991    3.2400778395
 H   -1.9641686156   -1.9692414127    1.7222298294
 H   -3.7499553533   -0.2333139020    1.6673286946
 H   -2.6814830058    0.7790304551    2.6748932627
 H   -1.9163737193   -1.0480346334   -0.7093764013