20

 C   -0.2565841278    1.3532241267   -1.1377544361
 C    0.1210170938   -0.0718056778   -0.7441783076
 C    1.4689637740   -0.5765643435   -1.3373520518
 C    2.1443577059   -0.5002012404    0.0668118563
 C    3.0940499582    0.6547487662    0.2365044385
 O    4.1044470904    0.6199610602    0.8929418481
 C    0.7108037334   -0.2845863007    0.6914165423
 C    0.5064122877    0.7572054772    1.7847434397
 H    0.5680685561    2.0584738949   -0.9870841485
 H   -0.5275512624    1.3933708635   -2.1984185169
 H   -1.1132601200    1.7166170762   -0.5606193262
 H   -0.7290449394   -0.7277311283   -0.9556781704
 H    1.4295957978   -1.5979095123   -1.7213119250
 H    1.9118167397    0.0611515283   -2.1092258638
 H    2.6560388403   -1.3997260695    0.4148209470
 H    2.8041855981    1.5881956009   -0.3027738068
 H    0.3763787489   -1.2549170324    1.0715835005
 H    0.7874015619    1.7652389991    1.4658516852
 H   -0.5433914915    0.7905504731    2.0957279656
 H    1.1065080948    0.5121687186    2.6674437397