20

 C   -0.1278375663    1.5432418314   -0.0351201619
 C    0.0846802107    0.0344458390    0.0642140526
 C    0.6773848876   -0.6036293181   -1.2146481116
 C    1.3977482697   -1.8915608906   -0.7713763832
 O    2.7500896789   -1.8351678897   -1.2261526456
 C    1.3510246728   -1.8806830540    0.7931308919
 O    2.5110531299   -2.4410052780    1.3746784978
 C    1.0678126580   -0.4155365834    1.1556405138
 H    0.8202997110    2.0584255763   -0.2286733947
 H   -0.8154260772    1.7953792308   -0.8497511850
 H   -0.5467211020    1.9500592198    0.8913288922
 H   -0.8863758918   -0.4382601473    0.2705775017
 H   -0.0757201264   -0.7810701227   -1.9869134479
 H    1.4345285805    0.0610489518   -1.6459811246
 H    0.9155287254   -2.7938804004   -1.1688395096
 H    3.1443605049   -2.6923583805   -1.0286543655
 H    0.5199532466   -2.5086382875    1.1334277921
 H    3.2515651952   -1.9339239032    1.0193224769
 H    1.9994753772    0.1630105921    1.0753295313
 H    0.6886349254   -0.2929416759    2.1737962694