16

 C    0.0393261402    1.3622880239    0.0429369710
 O   -0.0335969584   -0.0593719380   -0.1365455393
 C   -1.2536606274   -0.5787588386   -0.0835304303
 N   -2.3439352172    0.0677723450    0.1083591265
 C   -3.4048074215   -0.9496829854    0.0590538967
 C   -2.6758427834   -2.3374775677    0.1249129759
 N   -1.3298104580   -1.9453935074   -0.2982233888
 C   -4.3826563135   -0.7854988017    1.1404121932
 N   -5.1602842759   -0.6880887394    1.9891185475
 H    1.0988246742    1.6106408455   -0.0165820748
 H   -0.5226136502    1.8735935083   -0.7421603956
 H   -0.3714423038    1.6459100948    1.0148325177
 H   -3.9514127322   -0.8600794823   -0.8899094763
 H   -2.6886842155   -2.7398944915    1.1450493242
 H   -3.1196860419   -3.0723129284   -0.5496894468
 H   -0.5437496154   -2.4984437471    0.0127028695