17

 C    0.5343841196    1.4992841398   -0.3404455154
 C   -0.0471272584    0.2046290183    0.1633019246
 O    0.7832766542   -0.9712092097    0.1476443116
 C    0.3151273258   -0.4997160310    1.4064429155
 C    1.3474074725   -0.1085578467    2.4291969589
 C    2.3939023540   -1.1933092724    2.7719625150
 C    3.3878314946   -0.1732080611    2.2230105882
 O    4.5577546132   -0.0738502950    2.0560038604
 O    2.4185691568    0.7634292777    1.9395580428
 H    1.5448640019    1.6609506363    0.0293374448
 H    0.5499957633    1.4908545034   -1.4353217711
 H   -0.0978127409    2.3368401146   -0.0253349646
 H   -1.0589085047    0.0020081595   -0.1966945762
 H   -0.4596788288   -1.1246142682    1.8629349101
 H    0.8651710601    0.3538749462    3.2955553778
 H    2.5275837056   -1.4329917374    3.8274358834
 H    2.3296108714   -2.1073468843    2.1797442843