18

 C   -0.1127703828    1.6642353175    0.1778220392
 N   -0.2350476682    0.3218465020   -0.3914550969
 C   -0.1875983962   -0.7868353573    0.5605358579
 C   -1.4689078952   -0.3939240001   -0.0878841088
 C    1.3218733967    2.0914670003    0.1830331181
 N    1.8932472859    2.9303519869    1.0199224133
 C    3.1988260551    3.0372747364    0.5937319282
 C    3.4145711768    2.2499846894   -0.5061522632
 N    2.2004155758    1.6532320710   -0.7615438350
 H   -0.7102223210    2.3415631645   -0.4473207791
 H   -0.5040726914    1.7447916234    1.2041476758
 H    0.3471899280   -1.6722534547    0.2299598049
 H   -0.0621167299   -0.5438324881    1.6137018477
 H   -2.2078662971    0.1092175250    0.5330418224
 H   -1.8831177215   -0.9872199561   -0.8979256740
 H    3.9071873425    3.6696847132    1.1070466432
 H    4.2864872327    2.0554080076   -1.1079575550
 H    1.9740441198    0.9741037591   -1.4696503689