18

 C    0.0036391551    1.5189374623    0.0889054756
 C    1.4221841315    2.0760109428   -0.0417203005
 N    2.3917179635    1.8434163979    1.0423287645
 C    2.5640915753    1.1396973381   -0.2436323330
 C    2.1741440120   -0.3494379887   -0.3034844613
 O    0.9249281166   -0.4305164133   -1.0044697283
 C   -0.0220007107   -0.0313201807   -0.0109906391
 C    0.5194719558   -0.6915497244    1.2507078896
 C    1.8192139524   -0.8881030883    1.0746499647
 H   -0.4651652149    1.8574084015    1.0201563681
 H   -0.5865517016    1.9230461880   -0.7407157791
 H    1.4796214017    3.0383693355   -0.5455245240
 H    3.0399504531    2.6254089500    1.0940699395
 H    3.3777740609    1.4511297499   -0.8929009271
 H    2.9101599515   -0.9342183407   -0.8603330682
 H   -1.0104161867   -0.3842695587   -0.3188628407
 H   -0.0658579550   -0.8695952642    2.1429603729
 H    2.5441980094   -1.2467066771    1.7917675663