19

 C    0.0110546063    1.5792804418   -0.0110419080
 C   -0.0266958839    0.0800115813    0.0340885410
 C   -1.3175362594   -0.7617454430    0.0055101376
 C   -0.6727217216   -1.7034472471    1.0337831036
 C   -1.2885984841   -2.5069087663    2.0849754134
 O   -0.6871476708   -3.1309498143    0.9400935415
 C    0.6034402241   -0.9058351574    1.0712618860
 C    1.1296780687   -0.8011914465   -0.3329694225
 O    1.0173815147   -1.8365325273   -1.2674343327
 H    1.0224586260    1.9573082909    0.1702048155
 H   -0.3091641678    1.9479462273   -0.9929310180
 H   -0.6518979283    2.0215675367    0.7414131540
 H   -2.1850407971   -0.2298464474    0.4053391341
 H   -1.5668133566   -1.2135607214   -0.9573940232
 H   -0.7662418229   -2.6604005807    3.0291414673
 H   -2.3739357408   -2.5859397285    2.1393051000
 H    1.2175285934   -0.7213483003    1.9457423984
 H    2.0789006251   -0.2705134132   -0.4075075452
 H    0.9346757549   -2.6674874347   -0.7875710431