16

 C   -0.0476130556    1.4384917664    0.0858480762
 C   -0.0254066184   -0.0476321560    0.0021803385
 C   -0.0319466269   -0.8985289473   -1.0350075698
 C    0.0543879224   -2.2481388452   -0.3423520075
 O   -0.8758942348   -2.0891750778    0.7934094396
 C    0.0613886530   -1.0217026297    1.1768310908
 C    1.2124498855   -1.9889511234    0.6964911886
 O    1.5200748745   -3.0390344610    1.5493894735
 H    0.8337291187    1.8223470605    0.6149015679
 H   -0.0682307216    1.8931603488   -0.9083097198
 H   -0.9245954689    1.7934392084    0.6414395914
 H   -0.0496840769   -0.7054120835   -2.0978268034
 H   -0.0603751300   -3.1800135721   -0.8942246413
 H   -0.0415288006   -0.6740883100    2.2048670919
 H    2.1445927756   -1.5508781988    0.3342653231
 H    0.6694203241   -3.3961425594    1.8417691403