20

 C    0.2965880111    1.5766614688    0.2864340626
 C   -0.1158286492    0.1420836766   -0.0459223417
 C   -0.0201641467   -0.7850044102    1.1877409796
 C   -1.5356445671    0.0696596047   -0.5924242506
 O   -2.3337837601    0.9727885119   -0.4386942110
 C   -1.9262403200   -1.2074314828   -1.3338820638
 C   -3.2088530012   -1.8856580251   -0.8188933375
 N   -4.2858731874   -1.0572958214   -0.7425470893
 O   -3.2342814356   -3.0713540487   -0.5586873565
 H    1.3175658593    1.5975805539    0.6788843726
 H    0.2544759409    2.2184494637   -0.5979203318
 H   -0.3728132019    2.0064369304    1.0360590419
 H    0.5475912830   -0.2671586040   -0.8204132282
 H   -0.6495477630   -0.4057381885    1.9992631662
 H   -0.3356464340   -1.8083761610    0.9646619943
 H    1.0118945557   -0.8207357171    1.5479267706
 H   -2.0967497508   -0.9167165189   -2.3784156917
 H   -1.1342481836   -1.9550003822   -1.3149715994
 H   -4.1211125160   -0.0594075986   -0.7308362556
 H   -5.1113717336   -1.4233388313   -0.2948370608