19

 C   -0.0153394995    1.6178332579   -0.0050144670
 C    0.0068767120    0.0879115679   -0.0207741393
 C   -1.4010182873   -0.5356650471    0.0546508523
 C   -1.4112567473   -2.0347621920    0.0280440516
 C   -1.4253420960   -2.9001114058    1.1074965047
 O   -1.4663808769   -2.7112837049    2.4460306639
 N   -1.3988520068   -4.1615106202    0.6259185975
 N   -1.3683558437   -4.1980766320   -0.7320935518
 C   -1.3742244025   -2.9185607768   -1.0810800129
 H    0.9957536468    2.0324212442   -0.0620075374
 H   -0.5860179067    2.0142677463   -0.8523193687
 H   -0.4801673552    2.0004593902    0.9110724721
 H    0.5018011542   -0.2707390019   -0.9311320377
 H    0.6104471751   -0.2875024516    0.8154012276
 H   -1.9021997355   -0.1707823300    0.9649195841
 H   -2.0057608353   -0.1503534331   -0.7760015062
 H   -1.5022217096   -1.7648243772    2.6191914877
 H   -1.4134529866   -5.0152427902    1.1568589967
 H   -1.3573310091   -2.6535004036   -2.1295022972