18

 C    0.0790383982    1.4583976659   -0.0147074691
 O    0.2309308933    0.0637532670    0.1129150345
 C    0.5480779336   -0.5604295388   -1.1127533848
 C    0.6350550406   -2.0367570843   -0.8850986712
 N    1.5825257774   -2.7378236975   -1.4589631889
 O    1.3524043208   -4.0577921689   -1.0757070476
 C    0.2740314466   -4.1076520642   -0.2691744917
 C   -0.1116727271   -5.4467872215    0.2511321811
 C   -0.2314094744   -2.8559320772   -0.1084194291
 H    1.0045448773    1.9392073343   -0.3677504721
 H   -0.7309828793    1.7185973889   -0.7147459572
 H   -0.1679342157    1.8500895085    0.9746361495
 H   -0.2333031410   -0.3434417462   -1.8624993241
 H    1.5023663689   -0.1957988099   -1.5214984665
 H   -0.3271320214   -6.1391603708   -0.5692052777
 H    0.6969470482   -5.8836900625    0.8463324472
 H   -1.0001170646   -5.3644202180    0.8797235217
 H   -1.0782880815   -2.5481876248    0.4804655760