20

 C   -0.0167683589    1.3420844921    0.0138508645
 O    0.0392103286   -0.0685851876   -0.0637222923
 C    0.6782162008   -0.5475408087   -1.1849311394
 C    2.1656806504   -0.3468149545   -1.6197036207
 C    1.5249378806   -1.3094858586   -2.6685550465
 C    2.2035492295   -1.9315616040   -3.8574448884
 C    0.8524952488   -2.0523064886   -1.4682572046
 C    0.2825342599   -0.3642357252   -2.6854968392
 H    0.9877870777    1.7874644927    0.0436169232
 H   -0.5651118881    1.7741940522   -0.8352617113
 H   -0.5421640483    1.5909028172    0.9384099805
 H    2.4549925358    0.6429292117   -1.9848824602
 H    2.9290034576   -0.7764782092   -0.9645589422
 H    3.0511258871   -2.5525171363   -3.5475450872
 H    1.5105409327   -2.5674047243   -4.4190973332
 H    2.5830593745   -1.1644480378   -4.5413859657
 H    1.5187118255   -2.6020195940   -0.7973852273
 H   -0.0578004340   -2.6166124755   -1.6896538020
 H   -0.6659649309   -0.8097120865   -2.9991580882
 H    0.4328281108    0.6242167349   -3.1293757896