23

 O   -0.0662410328    1.5049459659   -0.0949730699
 C    0.0447820434    0.0902973354   -0.0530329513
 C   -1.3622987526   -0.4904904736   -0.0074191527
 C   -1.3777363215   -2.0211519194    0.0371227862
 C   -2.7935055122   -2.6057788095    0.0862713189
 C   -2.8130089737   -4.1375359756    0.1277732688
 C   -4.2370969688   -4.7176810294    0.1908007293
 C   -4.2339164571   -6.2266096074    0.1185443991
 O   -4.7195737362   -6.9632249092    0.9376008175
 H    0.8203798937    1.8761129420   -0.1192907768
 H    0.5770407635   -0.2945272222   -0.9388784397
 H    0.6117972149   -0.2392431953    0.8334755028
 H   -1.8777328024   -0.0817986268    0.8704503449
 H   -1.9133710656   -0.1323852744   -0.8858321796
 H   -0.8516752237   -2.4202859261   -0.8413249532
 H   -0.8124100391   -2.3693301429    0.9127376147
 H   -3.3200483588   -2.2115791350    0.9656291803
 H   -3.3621752841   -2.2599081152   -0.7877803451
 H   -2.2973244995   -4.5335152187   -0.7577291639
 H   -2.2421603940   -4.4886979483    0.9969719122
 H   -4.7577572510   -4.4113139497    1.1028953105
 H   -4.8124686781   -4.3473281867   -0.6708125138
 H   -3.7193648042   -6.6367899679   -0.7837620894