18

 C   -0.1713319268    1.5831004044    0.0634366294
 C    0.0128016822    0.0722378811    0.0239908591
 C    1.1122616949   -0.5278524667   -0.9275712430
 O    2.0057386598    0.3564983553   -1.5629442528
 C    1.7796091047   -1.2385242204    0.2779230942
 N    2.7739128390   -0.4340072567    0.9845581052
 C    1.8599478490    0.1911203407    1.8203048195
 O    1.9748989703    1.0760043219    2.6242439282
 C    0.6976820617   -0.6406650955    1.2405299402
 H    0.7764665566    2.1038281170    0.2167857978
 H   -0.6105381622    1.9442454842   -0.8739010045
 H   -0.8449052100    1.8708171112    0.8763833807
 H   -0.9473296038   -0.4104579188   -0.1830688837
 H    0.6854770581   -1.2453498188   -1.6416687282
 H    1.5299027263    0.8326717723   -2.2506698407
 H    2.0197655239   -2.2982752127    0.1910341441
 H    3.6219852239   -0.0347391973    0.6044056559
 H    0.0800688923   -1.2218570110    1.9218262486