14

 O   -0.0195543216    0.3168712426    0.7396625269
 C    0.0418191506    1.3781224062    0.2134094656
 O   -1.0038967734    2.1780407980   -0.1935139706
 C   -0.1052516446    3.2319814889   -0.6817016545
 C   -0.0468726296    4.4427538047    0.2388281315
 C    0.8857362429    3.9608111785    1.3681006046
 O    1.8214423557    3.0805627145    0.7334273516
 C    1.1246658222    2.3882032328   -0.2649654448
 H   -0.2964820250    3.4341835357   -1.7344309058
 H    0.4044858977    5.2808746666   -0.3013610518
 H   -1.0340448307    4.7452196746    0.5944235260
 H    1.4561517876    4.7585631350    1.8463833117
 H    0.3189114768    3.4222075695    2.1403084395
 H    1.8242671114    2.0107094725   -1.0109154099