20

 C   -1.5790516468   -1.1613566103    2.6224818165
 C   -0.6822225804   -1.2306593263    1.4137913492
 O   -0.5874841388   -0.0800676583    0.5529078426
 C    0.5944999774   -0.5270641339    1.2010660189
 C    1.3423388258    0.4291643674    2.1368771720
 C    2.1990324839   -0.3982725606    3.1222133311
 C    2.2450404573    1.3398711176    1.2663318751
 C    0.4414618440    1.3080786154    2.8973115346
 N   -0.2052297125    2.0354713994    3.5205271521
 H   -1.4790559273   -0.2257679250    3.1702012462
 H   -2.6229922829   -1.2637829260    2.3081272140
 H   -1.3551573722   -1.9953848032    3.2970126092
 H   -0.7843357301   -2.1615288402    0.8499917358
 H    1.3072602479   -1.0200185098    0.5328484355
 H    2.8625209333   -1.0643345444    2.5618384978
 H    2.8152184223    0.2569562968    3.7429053593
 H    1.5708150038   -1.0066115845    3.7772076458
 H    1.6449054267    1.8995832813    0.5451073561
 H    2.7943120574    2.0498449825    1.8895787394
 H    2.9672908411    0.7256882923    0.7198954389