20

 O    0.2951927813   -0.0605794610   -0.2928834303
 C    0.1105330718    1.1142148112   -0.1010086111
 C   -1.1032169099    2.0420840328    0.1437894962
 C   -0.0520703238    3.1827479949    0.2642328784
 N    0.9773163307    2.1759926923   -0.0131045899
 C    2.4218409246    2.2298836125   -0.0652065728
 C    3.0832677574    2.3301070772    1.2952087887
 C    3.2180652570    1.0896272043    2.1400076675
 C    4.4399223968    1.7060196530    1.5047390219
 H   -1.7894298269    2.1212724717   -0.7010713545
 H   -1.6641494298    1.8181455855    1.0527141212
 H   -0.1179818233    3.9707635071   -0.4942654514
 H    0.0226604467    3.6405813028    1.2567146689
 H    2.7409735551    1.3075467010   -0.5627924590
 H    2.7267260637    3.0693676117   -0.7040838761
 H    2.8953070856    3.2609671601    1.8240348043
 H    3.0956899425    1.1812728348    3.2134340824
 H    2.8387150126    0.1617399730    1.7248357914
 H    4.8932352489    1.1864108108    0.6666418662
 H    5.1502882692    2.2216769043    2.1411572380