15

 N   -0.0124350637   -3.8004669240   -0.1521554282
 C   -0.0032769761   -2.6395166177   -0.1054963285
 C    0.0067167929   -1.2760762770   -0.0465304160
 C    0.0118517176   -0.0677233230    0.0073687441
 C    0.0235373621    1.3764086827    0.0843852985
 C   -0.2460582936    2.0555363621    1.4687148016
 C    1.1479842023    2.6572704875    1.3372710656
 C    2.1685692004    1.6150431416    1.1362479120
 N    1.3842022395    2.0467044251   -0.0397280450
 H   -0.6217269843    1.7851514175   -0.6976316674
 H   -1.0544688822    2.7845413255    1.4067958900
 H   -0.4173762458    1.3980668698    2.3240186358
 H    1.4006135088    3.6924018209    1.5388669775
 H    3.2043825798    1.9312497906    1.0700267256
 H    2.0235813822    0.6140469483    1.5355797445