22

 C    2.8928190113   -0.5997527873    0.1607338285
 N    1.5386372847   -1.1176393336    0.3101734486
 C    1.3088756147   -2.1594689533    1.3007961169
 C    0.7635702577   -0.7846472366    1.5018912070
 C    1.2796234008    0.1204106690    2.6030916024
 O    1.3628068311    1.4764826377    2.1522418219
 C    0.4200285503   -0.0061702154    3.8656717202
 C    0.9153477145    0.8642381037    5.0133550850
 O    0.0334437970    0.6739433921    6.1107902163
 H    3.5184142350   -0.6893115645    1.0623158383
 H    3.3873896488   -1.1520195798   -0.6444563963
 H    2.8454635966    0.4569275879   -0.1143368181
 H    0.6607030499   -2.9798241016    1.0033806971
 H    2.1472407927   -2.4524939085    1.9340373786
 H   -0.2951774701   -0.6229886445    1.2845563241
 H    2.3134957536   -0.1441983805    2.8494365741
 H    0.4914716765    1.7282669365    1.8247484488
 H   -0.6174529608    0.2714089618    3.6346159583
 H    0.3989845533   -1.0529363482    4.1902410366
 H    1.9470793184    0.5763563506    5.2765087443
 H    0.9426966536    1.9139464507    4.6905305424
 H    0.3070519003    1.2635260238    6.8192774551