18

 O   -0.0653568743    1.4420991396    0.0017255907
 C    0.0576655872    0.0257456806    0.0605293635
 C   -1.3494650997   -0.5523940531   -0.0493011826
 C   -2.0438682986   -0.3131076543   -1.3735783794
 C   -2.7697016115   -1.3685048127   -1.7453687684
 C   -2.6822704717   -2.4859033228   -0.7285166040
 C   -1.4275228246   -2.0991800352    0.0927791764
 O   -0.2627741158   -2.7452706023   -0.4124882680
 H    0.8191863529    1.8188875496    0.0047378154
 H    0.6889985345   -0.3523638799   -0.7553724917
 H    0.5191185538   -0.2988577070    1.0058564179
 H   -1.9412246583   -0.0878415992    0.7541666661
 H   -1.9623385701    0.6281212303   -1.9036461078
 H   -3.3847515287   -1.4276180158   -2.6365729557
 H   -3.5823263106   -2.5142238554   -0.0982218583
 H   -2.5663974044   -3.4859217420   -1.1604628309
 H   -1.4903480078   -2.4147454063    1.1371688089
 H   -0.2248426122   -2.5626748843   -1.3587758821