16

 C   -0.0750519296    1.4363465697    0.0237888663
 C    0.0028642359   -0.0593925227    0.0154997005
 O   -1.1544887993   -0.7103710557   -0.4477599892
 C   -0.7858332316   -2.0531562121   -0.3398992498
 C    0.6948490289   -2.2611007420   -0.5933310925
 C    0.1448013583   -2.2976945056    0.8322787212
 C    0.7026164159   -0.8844554275    1.0844451754
 C    1.2532109830   -0.8478954129   -0.3421954206
 H    0.8608130967    1.8625319451    0.3951109104
 H   -0.2513590906    1.8212846450   -0.9853083321
 H   -0.8889211089    1.7789622809    0.6701420238
 H   -1.5450177646   -2.7578116209   -0.6508940602
 H    1.1210795989   -3.0404979728   -1.2090982148
 H    0.0607258868   -3.1110476439    1.5391655719
 H    1.1043039178   -0.4883760306    2.0069724771
 H    2.1634127624   -0.4180648640   -0.7372475375