21

 C   -0.0018661749    1.5815448720   -0.1816375582
 C    0.0247687765    0.0718964645    0.0885836986
 C   -1.3795066820   -0.5334006528    0.1655553846
 C   -1.5105733588   -2.0740917222    0.2461350677
 C   -0.7588598439   -2.4339157847    1.5542477199
 C   -1.9036577642   -1.6730791794    2.2409137067
 C   -2.8667639372   -2.0999213838    1.1160289125
 O   -3.5035476288   -0.8221413960    1.0533105901
 C   -2.1932997975   -0.3204582524    1.4661083062
 H    1.0112058823    1.9923746502   -0.2317509719
 H   -0.5003714380    1.8039890566   -1.1313151169
 H   -0.5393606561    2.1215530773    0.6052302128
 H    0.5881492096   -0.4281571239   -0.7097262053
 H    0.5809417217   -0.1145543938    1.0136833604
 H   -1.9821016889   -0.1441465467   -0.6619426050
 H   -1.3837569862   -2.6514357492   -0.6686283885
 H   -0.8299604229   -3.5017609307    1.7833591919
 H    0.2761707175   -2.1106493417    1.6765915698
 H   -2.1464537924   -1.7202478023    3.3009820726
 H   -3.5249928462   -2.9675141070    1.0983534670
 H   -2.2290206597    0.6565517760    1.9464624650