20

 C    0.2743320279    1.5325404017    0.0974520462
 C   -0.2400710740    0.1238970553   -0.1847119621
 N    0.5245981676   -0.4981076595   -1.2630547214
 C    1.7230769621   -1.2544633118   -0.8863173615
 C    0.4984141406   -1.9372490033   -1.3730800227
 C   -0.3288372340   -3.0059398737   -0.5942635036
 C   -0.4714426819   -3.7453951145   -1.9365269953
 O   -1.1332895331   -2.8533785754   -2.8358313537
 C    0.2863680336   -2.7093690119   -2.6611759169
 H    1.3155549322    1.5094485671    0.4358399834
 H    0.2271640020    2.1456680370   -0.8067628609
 H   -0.3242084113    2.0131131269    0.8774329889
 H   -0.2126280004   -0.4771674241    0.7413473023
 H   -1.2866123678    0.1636147134   -0.5085577255
 H    2.5906220612   -1.1246050725   -1.5289199481
 H    1.9537300841   -1.3592088367    0.1744331960
 H    0.2606048116   -3.5435380700    0.1524303537
 H   -1.2759047278   -2.6805508049   -0.1574221847
 H   -0.5604064143   -4.8086294006   -2.1221831608
 H    0.9060880816   -2.7581461423   -3.5486118534