13

 N    0.0071265979    1.4294964221    0.1687432434
 C    0.0028283684    0.0567888370    0.0486947628
 C   -1.0478489438   -0.8166028602    0.0132736452
 O   -0.5937110653   -2.1183397050   -0.0358324334
 C    0.7364990925   -2.0939721017   -0.0316116665
 C    1.1672989065   -0.7962040223    0.0150792650
 N    2.5352598825   -0.3953093873   -0.0037943682
 O    3.3921073693   -1.2715961306   -0.0016792108
 O    2.7732609890    0.8162021032   -0.0295479121
 H    0.8901771589    1.8490691048   -0.0856518516
 H   -0.8018674773    1.9052902951   -0.1994236355
 H   -2.1160950090   -0.6928505708    0.0228413070
 H    1.2652572305   -3.0302148441   -0.0708448353