20

 C    0.0113541346    1.5125440376   -0.0407240914
 C    0.0189834728    0.0061234152   -0.0346570625
 C    0.6075131532   -0.9466506312   -1.1070109635
 C    0.0258181184   -1.8797124077   -0.0220604330
 C    0.6000481489   -0.9360553770    1.0801071705
 C   -0.3451881433   -0.9301446033    2.2820346899
 C   -1.7136803195   -0.9400506093    1.5397913952
 C   -1.2216744853   -0.9492581049    0.0920410219
 H    1.0311744304    1.9125927295   -0.0702068679
 H   -0.5243781794    1.9013134752   -0.9141029012
 H   -0.4772715355    1.9139872634    0.8545950140
 H    0.1116070729   -0.9543337833   -2.0831572755
 H    1.6961867300   -0.9428525728   -1.2237120239
 H    0.0258477475   -2.9714898716   -0.0075236180
 H    1.6780428410   -0.9302926365    1.2594137781
 H   -0.2057887377   -1.8065319074    2.9232234647
 H   -0.2113115614   -0.0434196085    2.9105900011
 H   -2.3173211672   -1.8218032573    1.7779907356
 H   -2.3234174479   -0.0586954623    1.7650043792
 H   -1.9598795424   -0.9566594379   -0.7137225333