16

 O   -0.5438089097    0.7897118688    0.7027749372
 C    0.2256356254    0.9903411803   -0.2055987983
 C    1.3794635039    1.9040914325   -0.1141313947
 C    1.8033641561    2.7320163457    1.1085956161
 C    2.0818452952    3.8996684957    0.1412845071
 C    1.9234787535    5.3355950901    0.3536147721
 O    3.2199892637    4.7424128861    0.1727969128
 C    1.6902630052    3.0698377030   -1.0649843982
 N    2.4291145324    1.8264859179   -1.1248002408
 H    0.1160307485    0.5072904459   -1.1999993989
 H    0.9785912673    2.9264259055    1.7965283578
 H    2.6609843504    2.3421539810    1.6640914941
 H    1.5872388700    5.9736261222   -0.4627599513
 H    1.7153856990    5.7104951289    1.3545355100
 H    1.1566343626    3.3977469356   -1.9499119587
 H    3.3604917565    1.8928328805   -0.7179245563