17

 C    0.1105545493    1.5711400226   -0.5404210955
 C   -0.0416944938    0.1428087746   -0.0821064408
 N    1.1648860681   -0.6652575216    0.0169125448
 C    0.4331894668   -0.3583539374    1.2619907052
 C    1.0969851352    0.5313899677    2.2568544495
 O    1.9467837834    1.3546765381    1.9840446285
 C    0.6399223179    0.3934525107    3.7045362601
 O    1.2777297536    1.3197111029    4.5269553336
 H    1.0228947779    2.0093795217   -0.1351559410
 H    0.1617337976    1.6039668999   -1.6338244627
 H   -0.7480627654    2.1727929770   -0.2244649158
 H   -0.9454219156   -0.3566589791   -0.4324843575
 H    0.9864117385   -1.6304092692   -0.2480980528
 H   -0.1686640331   -1.1484232539    1.7078512581
 H   -0.4565213470    0.5135398383    3.7369614057
 H    0.8427679418   -0.6438648090    4.0254983814
 H    1.8896155647    1.7928802168    3.9385856192