21

 C    0.0365508217    1.4757170150   -0.0219611004
 C   -0.0283000022   -0.0528005604   -0.0901607282
 C   -1.4612695439   -0.6278089314    0.0967662175
 C   -2.3833036247   -0.3581243599   -1.1005754958
 C   -3.8502380172   -0.7127509841   -0.8357601018
 C   -1.3147032256   -2.1129181055    0.3603006120
 O   -1.4331331268   -2.9872768045   -0.4683822534
 C   -0.9575121368   -2.5525133065    1.7919234247
 O   -0.8746697449   -1.8014528314    2.7276895937
 H    1.0699230490    1.8191721643   -0.1304684746
 H   -0.5514625946    1.9496893249   -0.8131286432
 H   -0.3372405179    1.8406775009    0.9404605897
 H    0.3660295907   -0.4087367245   -1.0499720194
 H    0.6269710145   -0.4627837743    0.6869455394
 H   -1.8723156777   -0.1786001098    1.0099358801
 H   -2.3110261291    0.7001806875   -1.3709551142
 H   -2.0141687076   -0.9319352283   -1.9576550460
 H   -3.9694939337   -1.7779106212   -0.6157539863
 H   -4.2497171882   -0.1450704634    0.0121528944
 H   -4.4701124223   -0.4857197768   -1.7082603149
 H   -0.8024649628   -3.6499340604    1.8708792163