17

 O    0.1638144366    0.1144171510   -0.8159564536
 C    0.0864421896    1.1795203126   -0.2764013228
 C   -1.0588980872    1.9452595123    0.4191733054
 C   -0.0755086401    3.1225170584    0.6584133606
 C    0.7442887654    3.0640227205    1.9856497181
 O    0.4601064110    1.9329832834    2.8336974113
 C    1.5808608324    1.1837504781    2.2875018393
 C    1.8959847108    2.3066629476    1.2817011499
 C    1.0835179964    2.3346665294   -0.0604872176
 H   -1.8786807073    2.1742440012   -0.2687682476
 H   -1.4618624025    1.4646399094    1.3136740320
 H   -0.3939530225    4.1116979592    0.3321136690
 H    0.8543420748    3.9933760646    2.5507347790
 H    2.3561723632    1.0327665413    3.0478120760
 H    1.2782572834    0.2117570381    1.8828664082
 H    2.9214383659    2.6673522169    1.2249820733
 H    1.6228061501    2.6908560059   -0.9391461005