18

 C    0.1339216135    1.5027861117    0.0350559684
 C   -0.0968855265    0.0229245098   -0.0377740475
 C   -0.9993854485   -0.7434351143    0.8477027558
 N    0.4772371979   -0.9180527820    0.9846599094
 C    1.0330493957   -1.7583631664   -0.1373802293
 C    0.1365728824   -2.2431271991   -1.2601438208
 O   -1.1643150384   -2.7655550611   -1.2117716991
 C    0.5054836300   -0.8019533497   -1.2091509541
 O    1.2096528742   -0.1714745047   -2.2204858278
 H    1.1517832141    1.7555135157   -0.2752757165
 H   -0.5612956351    2.0412803057   -0.6199281138
 H   -0.0180341087    1.8560656336    1.0586921891
 H   -1.4051635162   -0.2021258378    1.6993645002
 H   -1.6124634598   -1.5457751136    0.4663719650
 H    2.0162118921   -2.1848188579    0.0234511843
 H    0.7668550010   -2.7331336602   -2.0083281377
 H   -1.1084324972   -3.6528533008   -0.8388124173
 H    0.6155854196   -0.0441900186   -2.9691299083