20

 C   -0.0876484019    1.5053047580    0.0690656924
 C    0.0870865871    0.0192996152   -0.0385360800
 C   -0.0390480420   -0.7862437168   -1.3298152871
 C   -0.6345244043   -1.9090841890   -0.4467867911
 C    0.4130189401   -2.9386248798   -0.0339996753
 O    0.8943041400   -3.6130548191   -1.1826319453
 C    1.4623272792   -2.0693574222    0.7129719056
 C    0.6789928857   -0.8097922635    1.0458202830
 N   -0.7757589236   -0.9631618661    0.7370953777
 H    0.7829353211    2.0308929980   -0.3413107941
 H   -0.9734031222    1.8372578546   -0.4835562363
 H   -0.2065082617    1.8101052057    1.1131735705
 H   -0.7887898182   -0.3502821561   -1.9943226874
 H    0.8621581155   -1.0114388859   -1.9065582308
 H   -1.5831514514   -2.3401611845   -0.7641827226
 H   -0.0455665275   -3.6492513401    0.6700529104
 H    1.5135316937   -4.2914416777   -0.8976012750
 H    1.8365119750   -2.5561149286    1.6182241006
 H    2.3185889332   -1.8755706966    0.0581458957
 H    0.8692492121   -0.3053311853    1.9884004893