18

 C    0.0616047210    1.5004413390   -0.2035746197
 N    0.0369124228    0.0578499624    0.0181744005
 C   -1.0553682121   -0.4983982858    0.8817071415
 C   -0.1446384821   -1.7574315633    1.1331864513
 C   -0.4113572967   -2.2702630519    2.5363814289
 O    0.5764158518   -1.8601716053    3.5024069228
 C   -0.5823837409   -1.0296360491    3.2924892686
 C   -0.3899210110    0.0296105516    2.2186120926
 C    0.7324094886   -0.4759039132    1.2466810944
 H    1.0395327520    1.7733317652   -0.6137362943
 H   -0.6929704677    1.7504836238   -0.9569203127
 H   -0.1221375669    2.1296470488    0.6812929808
 H   -2.1061483984   -0.4680590236    0.5824792558
 H    0.0372780384   -2.4368151306    0.3036010178
 H   -0.9259152135   -3.2026031442    2.7417485679
 H   -1.2429639817   -0.9049244188    4.1442071812
 H   -0.4540183755    1.0795262111    2.4922276396
 H    1.8122232519   -0.4192984462    1.3813435631