18

 C    0.4313081927    1.1373337435   -0.2426961395
 N    0.1688179185   -0.2674399561   -0.0139073195
 C    0.4550321600   -0.8177250700    1.0954629069
 C    1.1159809612   -0.1383184773    2.2045542633
 N    1.6649331850    0.4141091208    3.0596453668
 N    0.0886761234   -2.1225265512    1.4114460785
 C    0.0271866753   -3.1453135354    0.3841723555
 C    1.0465874689   -3.2369714376    1.4768966935
 C    2.5141908641   -3.0271062138    1.1905174792
 H    1.0446556137    1.2382628500   -1.1449572143
 H   -0.5176245970    1.6454851325   -0.4498217412
 H    0.9328014009    1.6540771028    0.5861877836
 H   -0.8591491717   -3.7725221403    0.4048583052
 H    0.3701432557   -2.8583734434   -0.6062373314
 H    0.8342250001   -3.9134987746    2.3020963423
 H    2.6636616791   -2.3535510117    0.3416528757
 H    3.0313788456   -2.6069096354    2.0585724257
 H    2.9853019146   -3.9855565628    0.9503181197