15

 O    0.0367769380    1.3514969692    0.3918512596
 C    0.0405108160   -0.0208525096    0.1426642607
 C   -0.3943964761   -0.8450869574    1.3121024200
 O   -0.7120695700   -0.1981835011    2.4846716095
 C   -1.3179603009   -0.7411531808    0.0711992556
 C   -2.4945627982    0.0551577629    0.1019099271
 C   -3.4738164844    0.7719142704    0.1145978252
 C   -4.5791375519    1.5626405970    0.1334015032
 C   -5.5586265971    2.2698073946    0.1464520111
 H   -0.6875492211    1.7559408566   -0.1029525550
 H    0.8312014601   -0.3611694565   -0.5218756545
 H    0.0554958908   -1.8194170221    1.4742579589
 H   -0.5830623021    0.7471773612    2.3135958156
 H   -1.3513290197   -1.6223700144   -0.5635392139
 H   -6.4225708434    2.8866584900    0.1620057571