20

 C   -0.0178015417    1.5371482790    0.1484642925
 C   -0.0817158811    0.0039836446    0.0855991416
 N    0.5441828855   -0.6615140372    1.2354178804
 C   -1.5380268105   -0.5155248965   -0.0773079524
 C   -1.6874487289   -2.0692761986    0.0236090187
 C   -2.3322056238   -1.8303501381    1.4091313119
 N   -2.4309032213   -0.3827047228    1.1000681140
 C   -2.1245090694    0.0682125910   -1.2960998745
 N   -2.5690013185    0.5067837435   -2.2691020379
 H    1.0224492717    1.8653060321    0.2344928344
 H   -0.4525654593    2.0022332758   -0.7403869101
 H   -0.5570760068    1.9173853427    1.0251271044
 H    0.4576726934   -0.3341702309   -0.8080409978
 H    1.5529667195   -0.5743460697    1.1681245848
 H    0.2825881994   -0.1866391509    2.0952082749
 H   -2.3658949960   -2.4835139253   -0.7218696475
 H   -0.7416752732   -2.6076587602    0.0237647935
 H   -3.3055361593   -2.2993521873    1.5835370315
 H   -1.6574448372   -2.0783994477    2.2342891639
 H   -2.1282912425    0.2679038367    1.8161621234