23

 O    1.1713042199   -1.9033167755   -2.7940618857
 C    0.6564096220   -1.6795354116   -1.4893053026
 C   -0.7579182164   -2.2424462061   -1.4375335450
 C   -1.4119866299   -2.0597215178   -0.0637178898
 C   -2.8650611243   -2.5544545746    0.0346277566
 C   -2.9620265446   -4.0803382164    0.0434663591
 O   -4.3355421428   -4.4420362656   -0.0375324649
 C   -3.5607435589   -1.9709571001    1.2754532761
 O   -3.6168612522   -0.5499566066    1.2652535277
 H    2.0602083107   -1.5388911230   -2.8325741808
 H    1.2807796443   -2.1722528279   -0.7253655886
 H    0.6368428365   -0.6044177644   -1.2464112912
 H   -1.3574060711   -1.7423166504   -2.2083483779
 H   -0.7102982785   -3.3005970772   -1.7196398851
 H   -0.8082438844   -2.5643722187    0.7051407053
 H   -1.4131369407   -0.9960699925    0.1995511193
 H   -3.4188595135   -2.2052949777   -0.8503194819
 H   -2.3980569814   -4.4988845284   -0.8024467561
 H   -2.5025376389   -4.4697677586    0.9681068618
 H   -4.3972025026   -5.4010167507   -0.0115045610
 H   -4.5600445576   -2.4114148625    1.3754866109
 H   -2.9901205432   -2.2350522675    2.1746193014
 H   -4.2193305323   -0.2888045962    0.5614962626