19

 C   -0.2142023466    1.5358176545   -0.0566732953
 C   -0.0186527830    0.0245827104   -0.0190154294
 O   -1.2445118177   -0.6616861458   -0.1845432731
 C    1.1744049176   -0.4741646399   -0.9092958246
 C    2.0019370012   -0.6076226636    0.3738897491
 C    3.2682706197   -1.3246948450    0.6084531160
 N    3.2170712654    0.1551436186    0.6721993382
 C    0.7441635104   -0.4811012222    1.2371860639
 H    0.7275580512    2.0608595677    0.1297983141
 H   -0.5859922819    1.8564348837   -1.0386035336
 H   -0.9383738870    1.8432264098    0.7041643482
 H   -1.6925463596   -0.2948578222   -0.9546017942
 H    0.9379210229   -1.4405436650   -1.3636622544
 H    1.5482644641    0.2102281862   -1.6784275087
 H    3.4517631983   -1.8142002382    1.5616375281
 H    3.7590813995   -1.7936211065   -0.2413581721
 H    3.6006397904    0.5418117337   -0.1879288263
 H    0.8038004207    0.1958059302    2.0923132244
 H    0.3519003944   -1.4504013364    1.5559972397