21

 O   -0.0746507172    1.4835697430   -0.0191368194
 C    0.0444224325    0.0819487169   -0.0053688084
 C    1.0397104805   -0.5738274666   -1.0014521869
 O    1.6316727345   -1.3487037706    0.0596880696
 C    0.9678688653   -0.5594776789    1.0664118545
 C   -1.3505890320   -0.5124876046   -0.0497650226
 C   -2.4023686725   -0.0447718313    0.9981222815
 C   -3.4728972631   -0.0725394185   -0.1261101336
 C   -2.3271452057   -0.0587307806   -1.1738103449
 H    0.8078744492    1.8672873895    0.0084714703
 H    0.6293027410   -1.2017788470   -1.7999570705
 H    1.7514675483    0.1449267881   -1.4366904907
 H    1.6480721052    0.1656180468    1.5398546871
 H    0.5027918585   -1.1765541297    1.8431317841
 H   -1.2541141635   -1.6031928688   -0.0393326469
 H   -2.5644686564   -0.6791365315    1.8730385915
 H   -2.1906372921    0.9743641563    1.3296372717
 H   -4.0233906961   -1.0177362594   -0.1390775690
 H   -4.1930167883    0.7481388136   -0.1563407573
 H   -2.0924520196    0.9562079170   -1.5027322046
 H   -2.4285916087   -0.7042040039   -2.0497347355