20

 C   -0.0046015697    1.5927905671   -0.0906477960
 C   -0.0546961508    0.0610218158   -0.0290504627
 C   -1.4710054618   -0.5184999776    0.0840509964
 O   -2.2935138852   -0.1132451680   -0.9908792119
 C   -1.4581854280   -2.0252223165    0.3062534369
 C   -1.4531861558   -1.8571676632    1.7803234157
 C   -2.0674853271   -0.4305984533    1.5360751725
 C   -3.4030458118   -1.1695773398    1.3830638862
 N   -2.6483668733   -2.4458692277    1.1208837216
 H    1.0312078579    1.9427130915   -0.1217102205
 H   -0.4928544670    1.9844469341   -0.9909978129
 H   -0.4827251025    2.0518624640    0.7813289028
 H    0.4147829479   -0.3519799269   -0.9303316335
 H    0.5372831135   -0.2882522074    0.8237446926
 H   -2.2367483327    0.8440779569   -1.0779619623
 H   -0.9970551526   -2.7881507732   -0.3079954135
 H   -0.8846084466   -2.3248121065    2.5720870742
 H   -1.9435805546    0.4670124120    2.1405259995
 H   -3.9460997897   -1.2856603256    2.3241442950
 H   -4.0743025201   -0.8503447756    0.5814039799