19

 C   -0.0055181740    1.0282269963   -1.1726648323
 C   -0.0946075046   -0.0174228735   -0.0844436065
 C    1.1046392219   -0.7432690901    0.3572092671
 O    0.5687559075    0.3304781309    1.1472454011
 C   -1.4619236811   -0.6374588748    0.1017590763
 O   -1.9704349775   -1.2507217201   -1.0557497022
 C   -1.8096607438   -1.3184467593    1.4051738515
 C   -2.4224433697    0.0209034669    1.0660171319
 O   -2.0967487602    1.1867770474    1.7565408037
 H    1.0031899592    1.4436682656   -1.2292383316
 H   -0.2559711041    0.5914143964   -2.1440614158
 H   -0.7051856695    1.8445207014   -0.9641836948
 H    1.0015056155   -1.7357181622    0.7907542175
 H    2.0666848281   -0.5279044666   -0.1038616667
 H   -2.3835006795   -0.5707918489   -1.5991359649
 H   -2.4349528386   -2.2013118284    1.3383981860
 H   -1.0515515177   -1.3334282639    2.1809773356
 H   -3.4701458948    0.0269553099    0.7799869095
 H   -1.1729786370    1.1177905130    2.0288620448