18

 C    0.6477590760    1.3753104214   -0.2128397506
 O    0.9053453162   -0.0024302402   -0.3469322871
 C   -0.1602061849   -0.7031434042   -0.9456235782
 C    0.2119707176   -2.1516084162   -1.0315012513
 C    1.0711868710   -2.9229527663   -0.0856879343
 C    1.4079419553   -2.9024915725   -1.5684688322
 C    0.3760032410   -3.7334120308   -2.3205479311
 O   -0.7235391241   -3.0151384730   -1.6900085902
 H    0.4781736661    1.8557541440   -1.1891864869
 H   -0.2328473363    1.5654058013    0.4205560718
 H    1.5253282188    1.8267204897    0.2558355833
 H   -1.0874069694   -0.5974616775   -0.3541925252
 H   -0.3749338164   -0.3125990042   -1.9545842120
 H    1.7292111934   -2.3167473712    0.5268064928
 H    0.6834569626   -3.8245738867    0.3820521679
 H    2.3502454627   -2.5425925291   -1.9575905729
 H    0.3717020535   -3.5610317479   -3.4027554519
 H    0.3368563167   -4.8104955468   -2.1173179119