19

 C    0.2697549952    1.4219660307   -0.1209260984
 C   -0.0290763604   -0.0570325992   -0.0650672298
 C   -0.3776401140   -0.7885979597   -1.3804507146
 C   -0.6454499688   -2.1821228213   -0.8320994523
 C   -0.7985500959   -2.1229764400    0.5058132438
 C    0.4456243408   -2.3965685093    1.3513657736
 C    0.5691415954   -0.8237575897    1.2363410303
 O    1.2905577864   -0.0914590128    2.1676303769
 C   -0.8928332714   -0.6640679419    0.9929243169
 H    1.1544596406    1.6210532349   -0.7383818735
 H   -0.5691327989    1.9665598984   -0.5706542084
 H    0.4552482641    1.8324752285    0.8735489145
 H   -1.2046563972   -0.2740637986   -1.8941169111
 H    0.4510814273   -0.8401057695   -2.0996037580
 H   -0.2379401799   -3.0571035931   -1.3313349522
 H    0.2933992563   -2.6345766707    2.4107878361
 H    1.2115547890   -3.0472291768    0.9181370606
 H    2.2167406473   -0.0948781201    1.9006416662
 H   -1.6620904157   -0.2129540798    1.6078178197