19

 N    0.0165851782   -1.1791930387   -0.0960599652
 C   -0.0014681004   -0.0246518979   -0.0415456363
 C   -0.0143727538    1.4355479082    0.0417071406
 C   -0.7847762584    1.9353238186    1.2800727119
 C   -0.9075451110    3.4656289398    1.2070980728
 N    0.3200088468    4.2074686157    0.9248350314
 C    1.4965962537    3.9881681624    1.7517320052
 C    1.4666921879    3.4981801278    0.3410172046
 C    1.4292106457    1.9948498949    0.0591460560
 H   -0.5300525562    1.8086891720   -0.8535654714
 H   -1.7851119555    1.4941251767    1.3153040488
 H   -0.2617213060    1.6116100704    2.1870849286
 H   -1.6162350900    3.7143930130    0.4062536350
 H   -1.3314229074    3.8566760687    2.1379837659
 H    2.0510317628    4.8837128908    2.0208397122
 H    1.4625791621    3.2293428883    2.5327021783
 H    1.9868757090    4.0848838347   -0.4126046901
 H    2.0004852863    1.4476616718    0.8163134575
 H    1.9095808663    1.7900273028   -0.9009251156