20

 C   -0.0785624707    1.5337445734   -0.0793179802
 C    0.0036004507    0.0027195756   -0.0225910157
 C    0.6680884840   -0.4617148932    1.2833733493
 O   -1.3011428019   -0.5654209999   -0.1430487405
 C    0.8001792992   -0.5441293158   -1.2196759020
 C    0.7032609647   -2.0796908091   -1.4470661607
 N    0.1466436915   -2.2368720754   -2.8013865274
 C   -0.0530510755   -1.0625118450   -3.2254024760
 O    0.2748967436    0.0048642437   -2.4578632294
 H    0.9162880107    1.9891603950   -0.0404928137
 H   -0.5714295281    1.8491981069   -1.0000281894
 H   -0.6495136655    1.9123012902    0.7766182849
 H    0.0955850501   -0.0982442913    2.1438405561
 H    0.7041200034   -1.5529492116    1.3408520377
 H    1.6872861248   -0.0725363345    1.3760297981
 H   -1.8503857535   -0.2022716228    0.5588281039
 H    1.8358220195   -0.1990025003   -1.1336002932
 H    1.6775371454   -2.5736239000   -1.3848906190
 H    0.0332213257   -2.5526818814   -0.7244886710
 H   -0.4728189282   -0.8029554445   -4.1910038818