21

 C   -0.0216245935    1.3652986358    0.2020912605
 C   -0.0105905285   -0.1593294391   -0.0426572322
 C   -1.4177757763   -0.7534184957    0.0645291194
 C    0.6034080658   -0.4229527351   -1.4194682636
 O   -0.0766435673   -0.5219041931   -2.4160809019
 C    2.1144054942   -0.5638876828   -1.4630705254
 C    2.6307161384   -2.0115901534   -1.1989282418
 O    3.1980531111   -2.0939167021   -2.5130519055
 C    2.7586803142   -0.7570536515   -2.8466092041
 H    0.9795527326    1.8027901263    0.1349746227
 H   -0.6599567754    1.8641959955   -0.5338702220
 H   -0.4154190776    1.5832303984    1.1992062136
 H    0.6450207874   -0.6157331215    0.7113934207
 H   -2.0583618111   -0.3541452529   -0.7255518181
 H   -1.3999291731   -1.8419728408   -0.0433670378
 H   -1.8638016854   -0.5131797753    1.0343500253
 H    2.5870992092    0.1827767472   -0.8213197428
 H    3.3870823510   -2.0997599906   -0.4093255160
 H    1.8522542213   -2.7681612122   -1.0340559968
 H    2.0407188608   -0.7520500662   -3.6723246918
 H    3.6020926023   -0.0954081508   -3.0746119024