18

 C    0.0274130093    1.6231273858   -0.0960338329
 C    0.0265596543    0.0978569701    0.0914621269
 C   -1.3627210753   -0.4012451537    0.5122563483
 C    0.5602126973   -0.5772778329   -1.1686673492
 C    0.5382440565   -2.1115012849   -1.3142399299
 C   -0.4121002842   -1.8275334563   -2.4773617639
 O   -1.0161820461   -2.4408992099   -3.2962541824
 O   -0.3716278234   -0.4662173493   -2.3113509355
 H    1.0275584143    1.9964940217   -0.3397133735
 H   -0.6463770397    1.9104072429   -0.9096594636
 H   -0.3074489424    2.1276074970    0.8151221130
 H    0.7449341875   -0.1523619582    0.8860209650
 H   -2.1009202447   -0.1979995413   -0.2688811710
 H   -1.3774514921   -1.4747462241    0.7230157171
 H   -1.6859743887    0.1125901238    1.4221935853
 H    1.5155629356   -0.1299771233   -1.4598134454
 H    1.4780652719   -2.5796017287   -1.6114383418
 H    0.0920411600   -2.6778267389   -0.4961211563