14

 N    0.0162680020    1.4482773168    0.1002691034
 C   -0.0563821645   -0.0157494260   -0.0060897745
 C   -1.4474875625   -0.4645420889    0.0886352687
 C   -2.5856386265   -0.8405273475    0.1501749985
 C    0.5935783651   -0.5733035157   -1.2516149045
 C    1.6472028882   -1.4114894820   -1.4510029506
 N    1.8241628106   -1.5158196623   -2.8105146493
 N    0.9828145515   -0.8203358153   -3.4266714660
 O    0.1446792824   -0.1774876209   -2.4395886467
 H    0.9849831021    1.7437235415    0.0113878307
 H   -0.4916494141    1.8653668457   -0.6748786858
 H    0.4993429097   -0.4310763451    0.8441719341
 H   -3.5938800716   -1.1701771557    0.2084383859
 H    2.2709388776   -1.9360492045   -0.7479713838