18

 C   -0.0414740573    1.4905011835    0.0225406518
 C    0.0302575414   -0.0331424923    0.0372440889
 C    0.8408073197   -0.6114895806   -1.1148104001
 N    2.1219788773   -0.5788194816   -0.3639518493
 C    1.1825905887   -0.6085892224    0.8968194804
 C    1.0712069816   -2.1397546769    0.7967329402
 C    1.4484548446   -1.9169347660   -0.6541602151
 C    2.0626818199   -2.8669925977   -1.5972139105
 O    2.0874793147   -4.0619859750   -1.4274529626
 H    0.9473613621    1.9289638849   -0.1436644985
 H   -0.7073962258    1.8452376808   -0.7709549037
 H   -0.4279043369    1.8675146389    0.9750729508
 H   -0.9609128050   -0.4660974263    0.2173877042
 H    0.7982985710   -0.3489503961   -2.1674637842
 H    1.5124017260   -0.1110250185    1.8072143185
 H    1.8758221952   -2.6535888633    1.3266100544
 H    0.1099451563   -2.6035820144    1.0354240644
 H    2.5187161665   -2.3905040170   -2.4942680596