23

 C   -0.3199644711    1.4884559665    0.0033106384
 C    0.0402213955    0.0039468731   -0.0209422338
 C    0.9625372997   -0.3959761129   -1.1871548337
 C    1.5352063867   -1.7522244695   -0.7508683356
 O    2.7165962574   -2.1530901133   -1.4250036945
 C    1.8427830471   -1.5383263554    0.7365059131
 C    0.7782071262   -0.5465739293    1.2256927644
 C    1.0610803366    0.2966990114    2.4451877738
 C    0.0236773279   -0.7963419091    2.5060173723
 H    0.5753559345    2.1127067279    0.0926778538
 H   -0.8373280670    1.7739485630   -0.9188046267
 H   -0.9856096068    1.7327987060    0.8384619591
 H   -0.8945639563   -0.5655875244   -0.1261948509
 H    0.4419080902   -0.4307706709   -2.1505110418
 H    1.7949040405    0.3140333545   -1.2801591719
 H    0.7544172187   -2.5233471684   -0.8593574661
 H    2.4956928992   -2.3033704378   -2.3493754902
 H    1.8535404794   -2.4744903466    1.3018208762
 H    2.8475361399   -1.1039877454    0.8026929533
 H    2.0054182742    0.1348628194    2.9556696714
 H    0.7192176612    1.3253640419    2.4665604477
 H   -1.0207273711   -0.4993382105    2.5463105731
 H    0.2503765473   -1.6951346702    3.0710001887