13

 O   -0.5380689092    0.5071130569   -0.6063380570
 C    0.0518639711    1.0969901814    0.2621739675
 C    1.2667720181    1.9147925882    0.0029498788
 O    1.5140545719    3.0118635694    0.9290113262
 C    2.2168232700    3.6422557022   -0.1459451596
 C    3.1305148770    2.6085562437   -0.8133830023
 C    1.6275254396    2.8223820893   -1.2221120067
 C    2.7188234633    1.3128511131   -0.2024368947
 O    3.1809858320    0.2183233268   -0.1133689158
 H   -0.2520026319    1.0625709683    1.3297123451
 H    2.4644063687    4.6928441241   -0.0738989381
 H    4.0223733145    2.8576517242   -1.3702694903
 H    1.1928120648    2.9736737025   -2.1978294630