16

 O   -0.1693065311    1.3311457524    0.1519501416
 N    0.0192670851   -0.0675893877    0.1393632290
 C   -1.1026401709   -0.6534152255    0.0949576381
 C   -2.5534581838   -0.2011447607   -0.0422776125
 O   -2.8304149251    0.6756348113   -1.1058696839
 C   -2.9367515926   -1.6888961838   -0.3244885054
 C   -1.4788543262   -2.0970744382   -0.0363133232
 C   -0.6860549720   -3.2530765701   -0.4653139325
 O   -1.1076787733   -3.1038492035    0.8936911973
 H    0.7345370355    1.6643892174    0.1630051486
 H   -2.9626812760    0.1647233745    0.9111144880
 H   -2.2430059697    1.4334128498   -0.9980893480
 H   -3.6757763574   -2.1233127994    0.3500862065
 H   -3.2399286099   -1.8372598308   -1.3627233773
 H   -1.1726860628   -4.0522992094   -1.0231501202
 H    0.3814585803   -3.1313316963   -0.6403860162