19

 O    0.0361403476   -0.0736181512    0.0675385793
 C   -0.0010515080    1.1306250530    0.0064639386
 C   -1.2958189907    1.9269032278   -0.0133997795
 C   -1.7294404322    2.2806325529    1.4330787016
 C   -0.7789930216    3.1878069684    2.2351357786
 C    0.6272185183    2.5998115647    2.4822807491
 C    1.5313614476    2.7429287681    1.2729758484
 O    2.3144750371    1.6079184504    0.8733132876
 C    1.2391738408    2.0015635782    0.0382645956
 H   -1.1671183267    2.8483802929   -0.5949140703
 H   -2.0724043954    1.3185340794   -0.4847601404
 H   -2.7099936751    2.7659601833    1.3766251407
 H   -1.8772982342    1.3418988464    1.9809152797
 H   -0.6862502649    4.1621407556    1.7357663138
 H   -1.2511772968    3.3896239772    3.2030007475
 H    1.0933320543    3.0946009852    3.3407552634
 H    0.5525832475    1.5357493427    2.7334155594
 H    2.0527106593    3.6959982622    1.1771880713
 H    1.5152862631    2.4395808628   -0.9240246845