18

 C    0.0025069172    1.4100233433   -0.2993197970
 C    0.0052105765   -0.0793998300    0.0455051700
 N    0.5614934353   -0.8563762500   -1.0818000171
 C    1.6064015494   -1.4201543429   -0.6470948352
 O    1.9705940492   -1.2641844068    0.6535732925
 C    0.8805882147   -0.5210093318    1.2675692746
 C    1.4721712940    0.5714591318    2.1549899177
 C    0.1341986016   -1.5111069212    2.1664435990
 O   -1.0232562674   -1.3980844511    2.4697089561
 H    1.0127521907    1.7819022519   -0.4948700383
 H   -0.5892804435    1.5625274813   -1.2052333871
 H   -0.4413430415    2.0032734400    0.5053843022
 H   -1.0262987538   -0.3957728682    0.2268929382
 H    2.2818229184   -2.0391620938   -1.2273156284
 H    2.0851929885    1.2540690891    1.5625763399
 H    0.6728136513    1.1372029785    2.6401729384
 H    2.1049713878    0.1319854781    2.9321077966
 H    0.7716136617   -2.3423527981    2.5407998679