19

 O    0.0633427141    1.3659344730   -0.1346041574
 C    0.0658001557   -0.0340242052    0.0059375357
 C   -1.3605797029   -0.6383543679    0.0039709228
 C   -1.3365749421   -2.1738763582    0.1077905762
 N   -2.6783371270   -2.7186191887   -0.0019354229
 C   -3.1416264628   -3.0517042303   -1.3468200707
 C   -2.7804527954   -4.1231395058   -0.3774963995
 C   -2.1290009435   -0.0303969076    1.0936566883
 N   -2.6612568081    0.5098686379    1.9664168904
 H   -0.3616492675    1.7445490647    0.6441125317
 H    0.6105450170   -0.4306530647   -0.8562048787
 H    0.5934197123   -0.3580295662    0.9159995178
 H   -1.8427828845   -0.3530007011   -0.9387470840
 H   -0.6558201403   -2.5584670140   -0.6738098376
 H   -0.9228655380   -2.4704003165    1.0781136767
 H   -4.1816108638   -2.8227834001   -1.5579030736
 H   -2.4580332709   -2.8864867875   -2.1789956467
 H   -1.8576925686   -4.6703779594   -0.5651311020
 H   -3.5516738736   -4.6916527026    0.1333470134