17

 C   -0.1165789771    1.5389711299    0.1808728680
 N    0.0359899652    0.1000113202    0.1311650292
 C   -1.1654442409   -0.7262951290    0.3947143215
 C   -0.3386024234   -1.6166284954    1.3519854426
 O    0.4670371505   -2.6113396814    0.7002485833
 C    1.6355188637   -1.7404509364    0.6868727776
 C    0.8014461367   -0.5599022030    1.2057514201
 C   -0.9416704141   -2.0717441127    2.5888478580
 N   -1.4272445613   -2.4073888870    3.5829644183
 H    0.8605632529    2.0181948081    0.0647042343
 H   -0.7484658619    1.8661545433   -0.6508228059
 H   -0.5729823362    1.9041882546    1.1196431257
 H   -1.9584247449   -0.1863975495    0.9326637232
 H   -1.5859166815   -1.2329971274   -0.4787964893
 H    2.4010948222   -2.1084737210    1.3799362859
 H    2.0465268378   -1.6182325380   -0.3184654522
 H    1.1794261525    0.0723555847    2.0110811897