21

 C    0.1282008659    1.5508968284   -0.0752486598
 C   -0.0231842387    0.0556769792    0.0777154066
 C   -1.4135436935   -0.5441308353   -0.1140214108
 C   -1.4183183256   -1.8988051093    0.6366384851
 C   -0.2720909511   -1.8129667466    1.6769081100
 C    0.6681778111   -0.7379717663    1.1584605428
 C    1.1730612367   -0.8293510244   -0.2820840091
 C    1.1038073287   -2.0081830075   -1.0937174855
 C    1.0896547864   -2.9839211944   -1.7993079374
 H    1.1478692740    1.8775659606    0.1523044366
 H   -0.1023085978    1.8719617639   -1.0977717030
 H   -0.5523034025    2.0832829795    0.5999203046
 H   -2.1427866439    0.1475907000    0.3255413900
 H   -1.6802268106   -0.6592368711   -1.1702246115
 H   -2.3835286269   -2.0985901023    1.1098834583
 H   -1.2270810033   -2.7137993641   -0.0620584450
 H   -0.6531998024   -1.4978784373    2.6553654426
 H    0.2222537205   -2.7793518504    1.8210448756
 H    1.3374450027   -0.2525519964    1.8621068893
 H    2.0839522124   -0.2587199750   -0.4499876618
 H    1.0705800179   -3.8458686911   -2.4186911975