17

 C    0.2163348369    1.3371302652    0.5478556130
 C   -0.0910561206    0.2399568168   -0.4880165085
 C   -1.4255495338   -0.3270982381   -0.3389857928
 C   -2.5320436870   -0.7801480504   -0.1956997362
 C   -3.8623890962   -1.2861043086   -0.0229350135
 C   -4.2763558318   -2.5862029471   -0.6213348258
 O   -4.0346311811   -2.4912282142    0.7647696020
 C   -4.9819244629   -0.3044843149    0.2178719007
 O   -4.8947123516    0.8856219460    0.0953807908
 H    1.2236408184    1.7335194103    0.3908893263
 H   -0.4977188990    2.1602189612    0.4635326001
 H    0.1554019046    0.9393254888    1.5641446056
 H    0.0130101783    0.6481095214   -1.5014817406
 H    0.6510862233   -0.5645903777   -0.4088361940
 H   -5.3151019379   -2.7378077731   -0.9156002425
 H   -3.5315914312   -3.1241607725   -1.2042958398
 H   -5.9202830684   -0.8137503231    0.5310432851