21

 C   -0.2288548948    1.3519897108    0.0236022721
 O   -0.1772904765   -0.0475473709   -0.1552523684
 C    0.6485508337   -0.5534331707   -1.2016137656
 C    0.1763616403   -0.0906677403   -2.5914014523
 C    2.1357235539   -0.2253100196   -0.9796820547
 C    0.4857224590   -2.0805417873   -1.1312745193
 O    1.0738033432   -2.8061340021   -1.9066362203
 C   -0.4216997250   -2.6936513634   -0.0793384631
 O   -0.4351559404   -4.0872950077   -0.1803394436
 H    0.7507022093    1.7802864741    0.2742761318
 H   -0.6249431153    1.8742277839   -0.8574059511
 H   -0.9066471130    1.5281644939    0.8621367245
 H    0.3836646829    0.9715998375   -2.7457640039
 H    0.7024309752   -0.6598980066   -3.3605526228
 H   -0.8989011976   -0.2567794029   -2.7062706600
 H    2.4384527944   -0.4865480968    0.0386913424
 H    2.7421018926   -0.7996478383   -1.6831071087
 H    2.3341570586    0.8376637820   -1.1407105280
 H   -0.0762670547   -2.3572058541    0.9100142104
 H   -1.4275499155   -2.2638238570   -0.2008685228
 H    0.1589848499   -4.2947883045   -0.9190162564