21

 C   -0.0757795712    1.4637597270   -0.0935969130
 C    0.0830628477   -0.0350412484   -0.0108061635
 C    1.4366561484   -0.6673075021   -0.1903371646
 C    0.7407711091   -0.7099744340    1.1825784032
 C    1.3205646611    0.0770218143    2.3415865589
 C    0.1269186923   -2.0144011998    1.5492157260
 C   -0.7519601356   -2.6365703586    0.7653086386
 C   -1.1917238166   -2.0266580303   -0.5354327454
 O   -1.0792746104   -0.6116060806   -0.5512500015
 H    0.8027159711    1.9863293448    0.2883644708
 H   -0.2243523337    1.7601369863   -1.1366998288
 H   -0.9519805631    1.7871135420    0.4769550882
 H    1.5267596422   -1.6060050926   -0.7251718067
 H    2.2888787196   -0.0040345742   -0.3055587532
 H    1.8262523033    0.9876745769    2.0123014075
 H    0.5436883759    0.3654784661    3.0586808541
 H    2.0593201006   -0.5292091574    2.8799901235
 H    0.4260995615   -2.4497970673    2.4999072119
 H   -1.1749038775   -3.5982148543    1.0389356175
 H   -0.6356585278   -2.4651107369   -1.3830764702
 H   -2.2515711568   -2.2335916711   -0.7210325034