21

 C   -0.2015800020    1.3989152292   -0.0991413633
 C   -0.2983453801   -0.0945934041   -0.3554823277
 O   -1.2993306830   -0.6309604941    0.5010588916
 C   -1.4815295605   -2.0004534022    0.3405037696
 C   -2.7431293219   -2.5824252219    0.9037861975
 C   -2.5556699026   -2.4955021548   -0.5858892014
 C   -3.3558045371   -1.6813946560   -1.5939372379
 O   -3.1761863119   -2.7133846537   -2.5925378132
 C   -2.4992505285   -3.5799064695   -1.6546221986
 H    0.5713017910    1.8442010398   -0.7325501039
 H   -1.1544511089    1.8894220824   -0.3174982889
 H    0.0512230441    1.5923536646    0.9470928896
 H   -0.5475828921   -0.2972251862   -1.4079167964
 H    0.6664898049   -0.5867935959   -0.1509142523
 H   -0.5663827712   -2.5928890715    0.4157506500
 H   -2.6933723460   -3.5530302499    1.3871807304
 H   -3.4416887067   -1.8832329308    1.3529291026
 H   -4.4157588918   -1.5341534275   -1.3458945165
 H   -2.9265038642   -0.7212232872   -1.9044893558
 H   -1.5004310156   -3.8713228089   -2.0061528303
 H   -3.0829834359   -4.4864182818   -1.4417225152