21

 C   -0.3245715461    1.3326961359    0.1602448934
 C   -0.1022305727   -0.1517108481   -0.1380208997
 C    0.9232698112   -0.4221540404   -1.2706964529
 O    2.1507520897    0.2117953360   -0.9837647348
 C    1.0779173314   -1.9276915922   -1.5438768315
 C   -0.1310783124   -2.2929606745   -2.4413721657
 C   -0.3698585063   -1.0452872819   -3.3216635313
 C    0.3733302989    0.0819958911   -2.6137101375
 O    0.6055933508    1.1870519759   -3.0426771444
 H    0.6173080231    1.8091898589    0.4440275527
 H   -0.7249078404    1.8681200374   -0.7059862100
 H   -1.0291126286    1.4558951915    0.9879214415
 H    0.2867323282   -0.6541197761    0.7559010953
 H   -1.0565438947   -0.6369283649   -0.3772070324
 H    2.1433152306    1.0387263815   -1.4885622601
 H    2.0194682069   -2.0788095594   -2.0828837293
 H    1.1200279578   -2.5220836439   -0.6274819894
 H    0.0579287421   -3.1895807826   -3.0356190429
 H   -1.0112789722   -2.5013857225   -1.8261525898
 H    0.0611746639   -1.1459098298   -4.3236763880
 H   -1.4244748309   -0.7899350217   -3.4633301832