17

 C   -0.4322203815    1.5214686911   -0.4573758082
 O   -0.4970307505    0.0946864440   -0.5929291597
 C   -0.9577292133   -0.5582547071    0.4832700135
 O   -1.3073346840   -0.0285213365    1.5079861531
 C   -1.0373166207   -2.0505919130    0.2569273836
 C   -0.9803725575   -2.9001387632    1.5090853111
 O    0.3369674215   -2.9407383805    2.0224708255
 C   -1.6852269105   -2.5426081642   -0.9765897514
 O   -0.2717584604   -2.5802463726   -0.8337468032
 H   -0.0315297144    1.8892253811   -1.4015572804
 H   -1.4263114664    1.9365737571   -0.2728023736
 H    0.2233791446    1.7965975569    0.3721345725
 H   -1.6080668810   -2.4566764167    2.2846538408
 H   -1.3585225677   -3.9067345653    1.2775179800
 H    0.8980390105   -3.2852102968    1.3177382927
 H   -2.1918287343   -3.5063566398   -0.9535295438
 H   -2.0582131545   -1.8243517345   -1.7035137723