20

 C    0.0705652534    1.5914745537    0.2397641108
 C    0.0539610310    0.0708546344    0.0005168847
 C    0.5186022524   -0.6762563246    1.2637402946
 C   -1.3525846565   -0.3896269946   -0.4038348844
 N    0.9472250060   -0.2619756992   -1.1274033214
 C    2.2716740321   -0.0299522211   -1.1931289507
 O    2.9855571286    0.4916738290   -0.3498064626
 C    2.8911696789   -0.5038393153   -2.5141318837
 O    2.2660043754   -1.0275647482   -3.4003442194
 H    1.0796045369    1.9278875910    0.4842378161
 H   -0.2708851487    2.1267420980   -0.6516871637
 H   -0.5952000819    1.8473236256    1.0697549150
 H   -0.1431864273   -0.4407285159    2.1028761385
 H    0.4967756438   -1.7585518026    1.1026695890
 H    1.5361039010   -0.3827286047    1.5276154238
 H   -1.6925889664    0.1257385100   -1.3086886222
 H   -1.3774783051   -1.4690728085   -0.5885982622
 H   -2.0642637929   -0.1691076794    0.3959683834
 H    0.5555081913   -0.7085521307   -1.9459164000
 H    3.9811617980   -0.3106613570   -2.5636000557