16

 C   -0.1799475210    1.3807878952   -0.0242600908
 N   -0.0666371171   -0.0611893240    0.0227408104
 N   -0.1462943322   -0.7996456838   -1.1033439546
 C   -0.0003370545   -2.0459350657   -0.6605027942
 C   -0.0214552730   -3.2264462306   -1.5718354593
 N    0.1679945399   -2.1462237080    0.6845439292
 C    0.1222623283   -0.8816643608    1.0909747687
 C    0.2460010374   -0.4118350015    2.4192043207
 C    0.3490507233    0.0066728002    3.5426781001
 H   -0.0872062175    1.7674276421    0.9908868174
 H    0.6125161579    1.7974081109   -0.6508833008
 H   -1.1495569444    1.6659532106   -0.4399131523
 H    0.9180823269   -3.7833753523   -1.5036466588
 H   -0.8268445950   -3.9135256620   -1.2946763087
 H   -0.1691065037   -2.9029884641   -2.6034309876
 H    0.4417724545    0.3609037940    4.5399073006