17

 O   -0.0055573539   -0.0194601673    0.0757495570
 C    0.0004650382    1.1856488702   -0.0259329401
 N   -1.1033333782    2.0196174222   -0.0844808945
 C   -0.6575593899    3.4135485287    0.0440251413
 C   -0.0755842922    3.6262914427    1.4665172363
 C    1.2121083845    2.7413025231    1.4246077699
 C    1.1922998522    2.1539333063   -0.0236980251
 C    0.6201063325    3.3451161022   -0.8171675277
 H   -1.9892863022    1.6950552756    0.2742277587
 H   -1.4288552361    4.1190801880   -0.2650989715
 H    0.1597533494    4.6803197856    1.6420030932
 H   -0.7825855148    3.3111047067    2.2380319779
 H    2.1131055219    3.3438814623    1.5680196747
 H    1.2157679823    1.9545552539    2.1820630912
 H    2.1241281813    1.6993631325   -0.3525370388
 H    0.4091138239    3.1185482871   -1.8644655460
 H    1.2323264112    4.2482950502   -0.7464804566