19

 C   -0.0427040158    1.5370829247   -0.0363303663
 C    0.0299708091    0.0141153320   -0.0110811145
 N    0.6939724606   -0.4969610472   -1.2045325224
 C    0.7090453860   -1.9576282721   -1.2373607247
 C    1.4622189318   -2.4519093184   -0.0080269080
 O    0.8688366713   -1.9442026145    1.1891834812
 C    0.7977264964   -0.5316047827    1.2133678839
 C    2.1478606989    0.0693397419    1.3349509546
 N    3.1955490686    0.5399429937    1.4613676571
 H    0.9554881681    1.9728312909   -0.1281703893
 H   -0.6443271329    1.8718310698   -0.8877553908
 H   -0.5139109614    1.9226195264    0.8730473130
 H   -0.9919032299   -0.3972127504    0.1011198860
 H    0.2565269279   -0.1182237424   -2.0368811569
 H   -0.3051617593   -2.3975117070   -1.2359023828
 H    1.2242530300   -2.2947795327   -2.1427000411
 H    1.4153617776   -3.5397703599    0.0788651728
 H    2.5149226841   -2.1421509155   -0.0649967861
 H    0.2436521088   -0.2794721766    2.1237745843