19

 C   -0.2114140311   -1.2363974208   -0.0558856238
 C   -0.1516863059   -0.0355098186   -0.0101642069
 C   -0.0621668624    1.4072718493    0.0475978968
 C   -0.0858321563    2.0065131959    1.5222963331
 C    1.4144127943    2.1066681316    1.3958564780
 C    2.5726458737    1.7602495665    1.9444572682
 C    3.5921752366    1.4970566678    0.8376074905
 C    2.7008690039    1.2403274972   -0.4250353882
 C    1.4096273327    2.0096930245   -0.1027043299
 H   -0.2780389028   -2.2952824161   -0.0977245766
 H   -0.7960833166    1.8586708230   -0.6259403073
 H   -0.6008446525    2.9725782880    1.5317077648
 H   -0.4927252460    1.3716064761    2.3111016465
 H    2.7806880592    1.5922717216    2.9948094643
 H    4.2682598041    2.3506492911    0.6862888014
 H    4.2307562615    0.6377414539    1.0696821862
 H    3.1818694395    1.5539931169   -1.3556614057
 H    2.4833125691    0.1699775374   -0.5030423599
 H    1.3383636892    2.9730182345   -0.6212764815