23

 C   -0.0035894628    1.5465414437    0.0302681769
 C   -0.0214997139    0.0140339255   -0.0537030501
 C   -1.4515954751   -0.5271880722    0.0098299071
 O   -2.0176238915   -0.1455719308    1.2566434675
 C    0.6948560005   -0.4938211955   -1.2879234774
 C    0.3327742927   -0.2429396332   -2.7921443305
 C    1.6115949614   -1.1238450796   -2.8131108379
 C    2.1778832623   -0.2112083436   -1.6910563813
 C    0.9619981687   -1.9816781421   -1.6939045216
 H    1.0205619355    1.9286784551    0.0747524975
 H   -0.4895943124    1.9908727276   -0.8463902448
 H   -0.5390617745    1.8829396071    0.9204069745
 H    0.5047622038   -0.3866612910    0.8246308579
 H   -2.0360980585   -0.1204416783   -0.8319472562
 H   -1.4392165944   -1.6229477636   -0.0958711215
 H   -2.9329317735   -0.4386495823    1.2736472951
 H   -0.5869328947   -0.7061754411   -3.1625028787
 H    0.4375609206    0.7819439416   -3.1596462509
 H    2.1415238292   -1.4876588864   -3.6939181620
 H    2.4243499569    0.8167931208   -1.9718710516
 H    2.9485382596   -0.6439371215   -1.0456921708
 H    1.6412222823   -2.5480995941   -1.0493957924
 H    0.0922696181   -2.5809201061   -1.9795388388