19

 O   -0.0939329335    1.3869547423   -0.0594022013
 C    0.0385281365   -0.0169194555   -0.0117574420
 C    0.8049004089   -0.6437960477   -1.1888547955
 C   -0.3149275252   -1.1383446024   -2.1324619670
 C   -1.4072547985   -1.6824984311   -1.1804742338
 C   -1.3689442949   -0.7055666566    0.0056117100
 C   -1.0487304226   -1.2150774711    1.4263704936
 O    0.1554183472   -1.9955182143    1.3461801168
 C    0.2713994541   -0.5710299142    1.4246997799
 H    0.7894336019    1.7701871643   -0.0207992990
 H    1.4827857029    0.0706097066   -1.6667248804
 H    1.3946322373   -1.4943228021   -0.8344173905
 H   -0.7123145699   -0.2895606919   -2.7017926481
 H    0.0317487494   -1.8828931057   -2.8551975474
 H   -2.3883272704   -1.7438813197   -1.6588873079
 H   -1.1339614233   -2.6868037720   -0.8420390931
 H   -2.1616112354    0.0454713241    0.0026237680
 H   -1.7242499418   -1.4421629209    2.2430503748
 H    0.8653103672   -0.1522486319    2.2306418828