20

 C   -0.1973936835    1.6286814210   -0.0245083929
 C    0.0250769801    0.1265090651    0.0199872272
 C    1.1805749547   -0.5975115746   -0.7245604117
 C    2.4735651085    0.0973538082   -0.2408908729
 C    2.1162090265    0.0885024232    1.2600798402
 C    3.0734753271   -0.0683418553    2.3707117400
 N    2.3239218806    1.1979746864    2.1928693454
 C    0.7538905576   -0.5987876095    1.1820600784
 O    1.0548032488   -1.6857200414    0.2460825647
 H    0.7036204137    2.1971026091    0.2151472855
 H   -0.5417040738    1.9368691936   -1.0179911119
 H   -0.9672601241    1.9226174881    0.6962654805
 H   -0.8998625470   -0.4168819329   -0.1903821294
 H    1.1154211847   -0.9146491987   -1.7656654593
 H    3.3557303163   -0.5024702740   -0.4761145608
 H    2.6079332265    1.1035299002   -0.6512641999
 H    2.8029243579   -0.6385154270    3.2558424275
 H    4.1342311689   -0.0807558104    2.1325437996
 H    2.9317556774    1.8988528875    1.7750338071
 H    0.2706887391   -0.9075670087    2.1086054326