15

 O   -0.1039771051   -0.0052214654    0.2421507020
 C   -0.0255104215    1.1841398120    0.2630967802
 O    0.9896315908    1.8579006897   -0.3172131265
 C    1.0002405438    3.2920264920   -0.2219689505
 C    2.2076771021    3.8134948803    0.5712110956
 C    2.8565946730    4.8672128532   -0.3425603656
 O    3.7456031676    5.6223677849   -0.0376012198
 C    2.1723425194    4.7698312116   -1.6589793315
 C    1.1687371722    3.8908214983   -1.5991986456
 H   -0.7623866707    1.8544757605    0.7485973032
 H    0.0495245159    3.6175369957    0.2227975524
 H    1.9572094552    4.2411181688    1.5443198541
 H    2.9179819415    2.9978076225    0.7356702191
 H    2.4803250260    5.3544074359   -2.5162124810
 H    0.5084775197    3.6085492301   -2.4113667760