19

 C   -0.4384191533    0.9176044020    0.1448595836
 O    0.7246548440    0.1074606254    0.0865255838
 C    0.9383472503   -0.4803903464   -1.1614932342
 C    2.2427300885   -1.2971927726   -1.2224317038
 C    1.4797210155   -2.4346865143   -1.9681141127
 C    1.6979871503   -3.8004478026   -1.5413079971
 N    1.8220219444   -4.8881003202   -1.1661653026
 C    0.1048881548   -1.7656630648   -1.5135344059
 N   -0.5786688221   -2.2985672997   -0.3640387827
 H   -0.3957633117    1.7259678659   -0.6005510197
 H   -1.3462761467    0.3242752981   -0.0164729454
 H   -0.4686084190    1.3588957335    1.1434815170
 H    0.8677578543    0.2672374845   -1.9655649276
 H    3.0972228779   -0.8580429206   -1.7382967504
 H    2.5463329686   -1.6007499115   -0.2188465747
 H    1.6075149803   -2.3663588969   -3.0518458760
 H   -0.6005220403   -1.6664522088   -2.3432786625
 H   -0.7890124488   -3.2849739384   -0.4779626515
 H   -0.0205391370   -2.1886530825    0.4761440426