20

 C   -0.2538138318    1.4376029572    0.1668173720
 N    0.0384083797    0.0133062553    0.2117066616
 C    1.3590731562   -0.5295822236   -0.1694648165
 C    2.5352578072    0.3889183982   -0.1789543756
 C    2.7636545146    0.8997928568    1.0345266563
 C    1.8004377114    0.3553446552    2.0657534790
 C    0.8782549397   -0.5684004749    1.2585064512
 C    0.2817645183   -1.7881028527    1.9161875240
 O   -0.7480736307   -1.4369374599    2.8310003173
 H    0.6012479037    2.0988284078    0.3625297891
 H   -0.6524704604    1.6806484034   -0.8234005733
 H   -1.0322889786    1.6561224255    0.9053068824
 H    1.3215793702   -1.3825356900   -0.8420727363
 H    3.0930462611    0.6207680336   -1.0787295050
 H    3.5214246173    1.6376012579    1.2753913668
 H    2.3199002346   -0.2103182503    2.8497677510
 H    1.2499999322    1.1513554262    2.5829309122
 H   -0.0910243936   -2.4707469184    1.1391558490
 H    1.0389673130   -2.3200803460    2.5025633887
 H   -1.4294635440   -0.9976239112    2.3096202260