16

 C   -0.2137315797    1.4708373124   -0.2151403295
 N   -0.2457245763    0.0413708691   -0.4595501922
 C    0.8661077829   -0.6585216091   -0.7760209916
 O    1.9868686084   -0.1942255744   -0.8810510736
 C    0.6373648319   -2.1491973317   -1.0356678082
 C    1.5653729580   -2.7880304192   -2.0115258389
 O    1.7280817914   -2.9948396498   -0.6309765058
 C   -0.6734701172   -2.8447644750   -0.8509820353
 O   -1.7449749900   -2.3138756911   -0.6718622662
 H    0.8119296263    1.8118320463   -0.3569616095
 H   -0.8708591035    2.0020558698   -0.9119619251
 H   -0.5298961026    1.7023779793    0.8077258779
 H   -1.1224313226   -0.4637982643   -0.4232961672
 H    1.2325395517   -3.6494269942   -2.5900722430
 H    2.2904304820   -2.1219528007   -2.4730235000
 H   -0.5706547007   -3.9491095674   -0.8817100617