16

 C   -0.1102920649    1.5650952882    0.0080445387
 C    1.4296443197    1.2514072700    0.0009942187
 C    1.2571532951    0.0286179215    0.9534581793
 C    1.8694716046   -1.0226917508    0.0008219968
 N    1.1092623662   -2.2804215233    0.0054872130
 C   -0.1545389400   -2.1814451176    0.0113696241
 O   -0.8871225421   -1.0159899580    0.0138917120
 C    0.0166449746    0.0486593375    0.0087110732
 C    1.2481316747    0.0270182850   -0.9477307726
 H   -0.5102837869    2.0332170594    0.9122463079
 H   -0.5188553397    2.0317044324   -0.8931013489
 H    2.2508627467    1.9635471849   -0.0035024853
 H    1.2205923510    0.0320773682    2.0423472014
 H    2.9420798699   -1.2184046363   -0.0040996683
 H   -0.8087777264   -3.0484378766    0.0152615753
 H    1.2012403774    0.0286468754   -2.0362281154