17

 O    0.4454756560    0.7596955523   -0.7689820554
 C   -0.0243149721   -0.2412359578    0.0753428246
 C   -0.0847517745    0.0066168500    1.6135251281
 C   -1.4302149128   -0.7120914662    1.6191920297
 C   -1.8863562537   -1.8311135667    2.4434238923
 O   -2.4633643963   -0.5194324269    2.5529253689
 C   -1.5794782251   -0.5637016377    0.0855669856
 C   -2.3683296234    0.5800327969   -0.3232456773
 C   -2.9502586307    1.5745656914   -0.6716362344
 H   -0.2176499537    1.4632329806   -0.7884912616
 H    0.5392407153   -1.1473696172   -0.1598169309
 H    0.7222794939   -0.3932248893    2.2303941765
 H   -0.2115749492    1.0725846519    1.8272394774
 H   -2.5388964158   -2.5914146088    2.0159222417
 H   -1.2915712478   -2.1511653177    3.2979544195
 H   -1.8828392843   -1.4630453718   -0.4575232852
 H   -3.5096694559    2.4274563272   -0.9683822895