16

 C   -0.5290772887    1.4536013999   -0.1996323015
 C    0.0660674588    0.0529317535   -0.0542527839
 C   -0.9901083973   -0.9801850160    0.3663204049
 O   -2.1268105536   -0.6996689950    0.6365839559
 C    0.7726667286   -0.4605692804   -1.2738408621
 N    1.5784626935   -1.5100940887   -1.3151515956
 C    1.9131985910   -1.5904365355   -2.6327789354
 N    1.3742842747   -0.6663035802   -3.4091756740
 N    0.6390738934    0.0453448198   -2.5198915483
 H    0.2433029832    2.1852542842   -0.4512489454
 H   -1.3076108985    1.4753415141   -0.9687983359
 H   -1.0059479814    1.7553954594    0.7342822610
 H    0.8114418208    0.0370222724    0.7540830741
 H   -0.6103937921   -2.0219646533    0.4024997412
 H    2.5746363901   -2.3466533217   -3.0280694083
 H    0.1111768074    0.8431865275   -2.8327670467