17

 O    0.0888010842    1.3822438015    0.0002343821
 C    0.0308651770   -0.0098988918   -0.0243740290
 C    0.2526821535   -0.7247456461   -1.3850728207
 N   -0.8930689725   -1.6173693349   -1.0713476688
 C   -1.3403629035   -0.7340205947    0.0346826127
 C   -1.3652145372   -1.4389244993    1.3857448039
 O    0.0152627468   -1.5118624623    1.8160885975
 C    0.7802645669   -0.6163857133    1.1484117170
 N    1.9513135605   -0.2537413756    1.4551166414
 H    0.9265853813    1.6062720619    0.4306774522
 H    0.0737277909   -0.0127779327   -2.1999146517
 H    1.2044384222   -1.2396646410   -1.5462840623
 H   -1.5640049943   -1.7280676328   -1.8219020790
 H   -2.2191868282   -0.1139102850   -0.1603959071
 H   -1.9299122132   -0.8781977727    2.1396591004
 H   -1.7455449483   -2.4600561269    1.3199129573
 H    2.2773874537   -0.7057366642    2.3095960939