18

 C    0.0734370334    1.5072470215   -0.2856701752
 C   -0.0150860934    0.0271787722    0.1314376368
 C   -1.4076399677   -0.5137198553    0.1792649328
 C   -2.1980199216   -0.8921879499    1.2403177249
 C   -3.4607272742   -1.3070636748    0.7158960890
 O   -4.5625706968   -1.8345465623    1.3619205984
 C   -3.3971835076   -1.1739071345   -0.6474824355
 O   -4.3023976356   -1.4452129022   -1.6207741243
 N   -2.1576389189   -0.6995700312   -0.9742744424
 H    1.1135384066    1.8490236097   -0.3017942376
 H   -0.3444678711    1.6664663827   -1.2854936264
 H   -0.4868130814    2.1394797403    0.4095966371
 H    0.6045463897   -0.5737617794   -0.5498653724
 H    0.4253323794   -0.0967349570    1.1260557703
 H   -1.9058948834   -0.8786694379    2.2797159637
 H   -4.8789948849   -1.1926844800    2.0060784974
 H   -5.0815160671   -1.7962526212   -1.1725976651
 H   -1.8480277253   -0.5330807806   -1.9158662715