16

 C    0.1719435900    1.4023509620    0.2325009214
 O   -0.2469745009    0.0871996533   -0.1264609794
 C    0.4872622787   -0.4873512994   -1.1247516315
 C   -0.0344908517   -0.9888371645   -2.3035974777
 N   -1.3305910364   -0.9226101384   -2.8165732235
 N    0.9964636054   -1.5710201485   -2.9638452005
 N    2.1901104273   -1.4422180766   -2.2997926872
 C    1.8674632036   -0.8042820047   -1.1905179886
 O    2.7803561802   -0.5064887974   -0.2386756068
 H    1.2023274103    1.4013472304    0.6041997131
 H    0.1010618515    2.0870972331   -0.6229432488
 H   -0.5009201568    1.7380118189    1.0248420074
 H   -1.9372481625   -0.4680106693   -2.1433944626
 H   -1.7164004363   -1.8346794964   -3.0369026294
 H    1.0028884451   -1.8851034116   -3.9176130350
 H    3.6302532127   -0.8414926111   -0.5522883209