22

 C   -0.0371429916    1.5721721703    0.0219143563
 C    0.0643645570    0.0458995720    0.0110184226
 C    0.8438610362   -0.5458936390   -1.1841020365
 C    1.3817646364   -1.8890144759   -0.6452085094
 C    2.6306305207   -2.4304460751   -1.3413695805
 O    3.7430679675   -1.5464028044   -1.3146811697
 N    1.5625643366   -1.7395676234    0.8204541649
 C    2.2650180264   -0.5024915334    1.2305583105
 C    0.7828360310   -0.5536191408    1.2182383432
 H    0.9575086100    2.0307325672    0.0323629810
 H   -0.5667428008    1.9390142222   -0.8634503627
 H   -0.5794943124    1.9290797840    0.9039667529
 H   -0.9525875827   -0.3695559960    0.0039407236
 H    0.2140276937   -0.6801543662   -2.0675059236
 H    1.6728338778    0.1060986831   -1.4766643171
 H    0.6048362285   -2.6578672951   -0.7600411345
 H    2.8913507296   -3.4032051871   -0.9013780687
 H    2.4018812059   -2.5975566760   -2.3999270769
 H    4.1073943601   -1.5726526726   -0.4253186176
 H    2.7977938371   -0.5903026274    2.1732234025
 H    2.7702016955    0.0965761227    0.4798461217
 H    0.2391042975   -0.6239677092    2.1568778779