18

 O   -0.0896962456    1.4235096880   -0.0694333771
 C    0.0060821214    0.0001643599   -0.0083527339
 C    0.6115039772   -0.5872862996   -1.2964431055
 C   -0.1825086438   -0.1722432734   -2.5268609079
 O    0.4460105191   -0.7569484814   -3.6678786384
 C    0.1194315065   -0.2397845888   -4.8670097387
 N    0.5535863419   -0.7729823901   -5.9254278298
 C    0.7494665092   -0.4420153062    1.1732181422
 C    1.3994136282   -0.7773845634    2.1270235523
 H    0.7896746024    1.7802254883    0.0997961665
 H   -1.0339149791   -0.3406306518    0.0791515679
 H    1.6489099646   -0.2498943446   -1.3994564948
 H    0.6349167052   -1.6791831617   -1.2219323875
 H   -1.2203638370   -0.5275663611   -2.4542807416
 H   -0.2036001652    0.9199965586   -2.6126104575
 H   -0.5203071077    0.6519119592   -4.8003040621
 H    0.2309596101   -0.2470871696   -6.7349637597
 H    1.9565900626   -1.0796561223    2.9795072256