16

 C    0.3958894126    1.4083753579   -0.0290466726
 C   -0.0664480653   -0.0145524500   -0.0639670408
 C   -1.0547165686   -0.5375998131   -0.8325405226
 O   -1.1958102546   -1.8843256628   -0.5919040049
 C   -0.2720702990   -2.1969155438    0.3473348398
 N   -0.2733332728   -3.5356975295    0.7146955842
 C    0.5614147326   -4.1009133091    1.6412248642
 O    1.4123433720   -3.5071785024    2.2636009469
 C    0.4536253973   -1.1092951537    0.7178098687
 H    1.4553820607    1.4899851553   -0.2963188637
 H   -0.1745751927    2.0274552222   -0.7268398861
 H    0.2834938724    1.8396465936    0.9719500146
 H   -1.7269375363   -0.1264868172   -1.5663341946
 H   -0.9508283554   -4.1220011803    0.2506492658
 H    0.3603019239   -5.1826987917    1.7533096261
 H    1.2453009333   -1.0976868853    1.4458745052