16

 C    0.0819363555    1.4824100867    0.1920906062
 C    1.5434879697    1.8003842148   -0.0228436418
 C    2.1678814271    0.7394203372   -0.5578388560
 C    3.2244356769    0.0644773851    0.2943144488
 O    2.9057400999    0.2505401948    1.7020596847
 C    2.3802630075   -0.8934055237    1.0352658184
 C    0.9758526878   -0.9836605680    0.3743043677
 C    1.1039692129   -0.2979273428   -0.9352658152
 N   -0.0465072141    0.0408308247   -0.1116564050
 H   -0.1863373335    1.7051208932    1.2315125922
 H   -0.6328870714    2.0119098389   -0.4519170338
 H    2.0440951222    2.5769390191    0.5441057838
 H    4.2737446779   -0.0839556006    0.0649967858
 H    2.7520434669   -1.8458463723    1.4085598312
 H    0.4916967843   -1.9481690823    0.4871999627
 H    0.9810034304   -0.7246181148   -1.9267920696