18

 N   -0.2518263862    1.1889515013    0.2400685341
 C   -0.1219265392   -0.0650599844    0.2296321950
 O    0.9788373342   -0.7403326270    0.6704935914
 C    0.8815196052   -2.1428803125    0.3739941582
 C   -0.5943457890   -2.4420551763    0.0669186480
 C   -1.4583062021   -2.9264538877    1.2600424766
 C   -2.2308397953   -1.6641664500    1.6785801460
 O   -2.4045210046   -0.9287423709    0.4735930476
 C   -1.1955450313   -1.0460542538   -0.2506586562
 H    0.5848448154    1.6353054631    0.6211283811
 H    1.5255403423   -2.3602610985   -0.4864200893
 H    1.2659293952   -2.6921678280    1.2377007801
 H   -0.6730445255   -3.1303543202   -0.7749664123
 H   -2.1550968239   -3.6984353134    0.9238023416
 H   -0.8605523718   -3.3460709120    2.0734117453
 H   -3.2219334202   -1.8647795667    2.0912005103
 H   -1.6606392194   -1.0757525454    2.4136915939
 H   -1.4255320537   -0.8649064875   -1.3023270915