21

 C    0.1682686594    1.5171444157   -0.5491143479
 C    0.0228176153    0.0484981254   -0.2121578329
 C   -1.3682206039   -0.5566959127   -0.3121142188
 C   -2.3700454311    0.0413585378    0.6729468183
 C   -3.0982423927    1.3615534367    0.3211018435
 O   -4.3908831440    0.7499571993    0.4931298043
 C   -3.7977828795   -0.5503016104    0.6819978117
 C    1.1938998868   -0.8344092494   -0.3248907674
 O    0.7543494088   -0.3687507847    0.9539474153
 H    1.2103453961    1.8306266179   -0.4514368129
 H   -0.1622315572    1.7176989409   -1.5738838581
 H   -0.4314829726    2.1361473422    0.1257964871
 H   -1.7445170454   -0.4482172019   -1.3384648730
 H   -1.2857755382   -1.6320142209   -0.1156490255
 H   -1.9261531211    0.0636463530    1.6714076847
 H   -2.9495618852    2.2070219540    1.0035715088
 H   -2.9468235566    1.7097403924   -0.7108126245
 H   -4.0160380161   -1.2256123402   -0.1581440329
 H   -4.1300590964   -1.0248529151    1.6127007134
 H    1.0554607283   -1.8995646995   -0.5082426135
 H    2.1454400751   -0.4288188204   -0.6674494096