16

 C   -0.0507645791    1.4991984693    0.0031819830
 C    0.0262813725   -0.0195575083   -0.0049692660
 O    1.0932823257   -0.6012386622   -0.0394953993
 C   -1.2425476791   -0.7688547494    0.0308017729
 C   -2.5137642062   -0.2770194480    0.0589455896
 O   -3.4133259346   -1.3007738160    0.0838215247
 C   -2.6983483395   -2.4630910216    0.0665187562
 N   -3.4610943367   -3.6143246625    0.1667321221
 C   -1.3649091008   -2.2059167760    0.0316173145
 H    0.9589119276    1.9092958724   -0.0302078403
 H   -0.6214282919    1.8616291474   -0.8586340671
 H   -0.5601719600    1.8541666624    0.9055104405
 H   -2.9366268683    0.7132008444    0.0601093764
 H   -4.3487061599   -3.5449948273   -0.3148495789
 H   -2.9579472306   -4.4421998994   -0.1200156153
 H   -0.5510941491   -2.9105376653    0.0059722269