21

 C   -0.3058714935    1.6029238609   -0.0684840922
 O   -0.1463353037    0.2453207243   -0.4084130349
 C   -1.2476785766   -0.5833910495   -0.0528588597
 C   -1.0080773413   -1.9360808631   -0.7314340852
 O    0.1788744502   -2.6004904203   -0.3652120819
 C    0.1659265571   -3.2238204880    0.9016986707
 C    0.3770418111   -2.2601466635    2.0736018332
 C   -0.7735267008   -1.3222360466    2.3453079784
 C   -1.4799368885   -0.6329281583    1.4483368609
 H    0.5615874730    2.1359939152   -0.4657202466
 H   -1.2183404857    2.0309583640   -0.5155064874
 H   -0.3486230919    1.7585933045    1.0187632046
 H   -2.1651408720   -0.1761613903   -0.5159395815
 H   -1.8887089236   -2.5749797770   -0.5532971997
 H   -0.9211007018   -1.7549525224   -1.8073704393
 H   -0.7733195001   -3.7836730810    1.0442410476
 H    0.9885558301   -3.9469169553    0.8808229041
 H    0.5736221099   -2.8594380920    2.9703896921
 H    1.2901961940   -1.6818322582    1.8791331546
 H   -1.0403176869   -1.1972925716    3.3932959998
 H   -2.2800743290    0.0041972583    1.8185426023