18

 C   -0.1454323860    1.4947524462   -0.1678911536
 C   -0.0388493232   -0.0021196799    0.0345492615
 N   -1.2053108617   -0.6617653967    0.8921013928
 C   -0.2874262516   -1.8899538280    0.8601435855
 C    0.7428456834   -0.7599777793    1.0956757024
 C   -0.3248190507   -0.2385206243    2.1118719289
 C    2.0380895705   -0.8175571201    0.2685208809
 C    1.0412515344   -0.6239847232   -0.9728481058
 O    1.1454353516   -0.8074939492   -2.1417382990
 H    0.8355451547    1.9528181876   -0.3402879844
 H   -0.7517570315    1.6866441205   -1.0595695183
 H   -0.6202794891    2.0056441329    0.6727701625
 H   -0.4613077382   -2.5930932339    1.6788756675
 H   -0.2890862263   -2.4046005601   -0.1060016772
 H   -0.3496579337    0.8255414567    2.3444402650
 H   -0.5345617221   -0.8436424809    2.9972287637
 H    2.6821290972    0.0632697526    0.3559137619
 H    2.6503737524   -1.7219138508    0.2773616957