21

 C   -0.1256578027    1.5298785769   -0.0994558818
 C    0.0186213835    0.0155118015   -0.0078852413
 C    1.1882755227   -0.6184668030   -0.8218055979
 C    2.0972472666   -0.4059005417    0.4189315742
 C    0.7795798552   -0.5727208526    1.2333270537
 C    0.6226068143    0.0011327617    2.6200374226
 O    0.4259718355   -1.9689436701    1.2930849002
 C    0.9398908606   -2.7100190966    0.2084974111
 O    0.9012504931   -2.0044818354   -1.0144971625
 H    0.8174426768    2.0591370957    0.0708806595
 H   -0.4870969775    1.8186228001   -1.0925592547
 H   -0.8483872804    1.9009274218    0.6346256296
 H   -0.9415126925   -0.4761171732   -0.1856470880
 H    1.4691755974   -0.2058957720   -1.7929090514
 H    2.9304560506   -1.0871716813    0.5998077297
 H    2.4632809232    0.6201149537    0.4705624436
 H    0.8082109683    1.0787882675    2.6174766637
 H   -0.3909323344   -0.1776919345    2.9926820796
 H    1.3259132144   -0.4716966630    3.3125014521
 H    1.9748925818   -3.0199238678    0.4247712255
 H    0.3163568435   -3.6009312278    0.0944841527