20

 C   -0.1683730081    1.5591912292   -0.0765317093
 C    0.0100662986    0.0489936490    0.0011007540
 C    1.1575205443   -0.6029941610   -0.8470893188
 C    2.1294971497   -0.2209395837    0.3119111874
 C    0.8710651026   -0.5573081952    1.1565950510
 C    0.6967057353   -0.2452836813    2.6152180063
 O    0.7191347468   -1.9774666833    0.9231945080
 C    0.9185742804   -2.0765926798   -0.5054346701
 H    0.7720783986    2.1115005216    0.0023986851
 H   -0.6336005314    1.8411957383   -1.0274842918
 H   -0.8265752471    1.9125218659    0.7251050977
 H   -0.9646719739   -0.4423214897   -0.0987389154
 H    1.3440239424   -0.3420936770   -1.8888662617
 H    3.0095709314   -0.8490213615    0.4733632745
 H    2.4072710235    0.8322620334    0.3209242121
 H    0.7881047006    0.8299335437    2.7938456809
 H   -0.2884431379   -0.5737337954    2.9616929508
 H    1.4548496516   -0.7617462441    3.2121661970
 H    0.0259157687   -2.4975558628   -0.9840079569
 H    1.7770969737   -2.7239143463   -0.7226511007