13

 N    0.0667919756   -1.1074768902   -0.0065009759
 C    0.0579565595    0.0465096972    0.0014842787
 C   -0.0122641211    1.5059091185    0.0122673861
 O    1.3247015890    2.0138419114    0.0001087043
 C    1.3828326418    3.3431496439    0.0074350223
 N    0.4139417547    4.1988756228    0.0240136762
 C    1.0823598330    5.4277858513    0.0235802228
 C    2.4141103182    5.2157581625    0.0065768769
 O    2.6233258310    3.8484108199   -0.0041210575
 H   -0.5633988193    1.8666803129   -0.8631349414
 H   -0.5427174224    1.8545740632    0.9051828099
 H    0.5443860951    6.3617337629    0.0355651969
 H    3.2951113247    5.8318370838   -0.0000762692