19

 O   -0.0504194936    1.4413505199    0.0125568787
 C    0.0147218635    0.0270443031   -0.0370491845
 C    0.6713174440   -0.6126665699    1.2060151309
 C    0.0377498402   -1.7030584816    1.6628082902
 C   -1.0649100356   -2.0718395275    0.6965970245
 C   -2.6236916462   -1.8673644329    0.7097822416
 C   -2.3836577549   -0.3977047864    1.1144798186
 C   -1.3142643221   -0.7125964633    0.0068555640
 C   -2.4669925392   -1.3967375524   -0.7892005708
 H   -0.5765388707    1.6758450735    0.7853987935
 H    0.5943571499   -0.1996769022   -0.9411921208
 H    1.5634078472   -0.1700559165    1.6382894326
 H    0.3546787612   -2.2906556777    2.5181971952
 H   -0.7470407822   -2.8864205581    0.0326473131
 H   -3.3921399658   -2.5406114287    1.0940195185
 H   -3.1644180065    0.3157147248    0.8370430155
 H   -2.0163688498   -0.2193528739    2.1265107499
 H   -2.1757374480   -2.1591034365   -1.5165586739
 H   -3.2640975913   -0.7557551236   -1.1742221670