20

 C   -0.1059936442    1.5267166655   -0.0470367014
 C   -0.0244096582    0.0002328525   -0.0298214923
 C   -1.3907290191   -0.6242608850   -0.2875333713
 C    1.1632462062   -0.5298352432   -0.8954636005
 C    2.0396173706   -0.6265058435    0.3779753136
 C    0.7402733995   -0.5593069009    1.2391275160
 C    0.7441499679    0.1981262710    2.4722741263
 C    0.7507698583    0.8436155126    3.4881003605
 H    0.8693722280    1.9898190041    0.1304271174
 H   -0.4709932264    1.8734581156   -1.0203295799
 H   -0.7887678545    1.8937926787    0.7256093786
 H   -1.7887372347   -0.3103133653   -1.2596226170
 H   -1.3365703758   -1.7182891396   -0.2867298190
 H   -2.1129659838   -0.3222675504    0.4798341445
 H    0.9483468221   -1.5138503490   -1.3229721745
 H    1.5149098624    0.1262209681   -1.6957149132
 H    2.6597329148   -1.5160941321    0.5041420176
 H    2.6634828096    0.2571409591    0.5274610213
 H    0.3836701319   -1.5764497429    1.4382977041
 H    0.7582860252    1.4068015847    4.3880372592