17

 C    0.0234115516    1.5588578263    0.0543379778
 C   -0.0008242942    0.0309579491    0.0263833540
 O    0.7203816678   -0.5189124520    1.1286254178
 C   -1.4283841464   -0.5255082205   -0.0410651983
 C   -1.4556352543   -2.0645667888   -0.1152786147
 C   -2.8058911087   -2.6118334200   -0.1035999591
 C   -3.9305080920   -3.0367315996   -0.0903322204
 H    1.0529834795    1.9204130181    0.1209744472
 H   -0.4373032751    1.9805764524   -0.8446565550
 H   -0.5309401689    1.9399934314    0.9214617772
 H    0.5543860110   -0.3179453906   -0.8541831081
 H    0.3200324507   -0.1779466331    1.9367299195
 H   -1.9880986455   -0.1952796818    0.8444506386
 H   -1.9471171239   -0.1046795774   -0.9099060186
 H   -0.9345981075   -2.3936266773   -1.0243067222
 H   -0.8776302771   -2.4653673606    0.7247983080
 H   -4.9176779570   -3.4269591157   -0.0796274534