17

 O    0.1565215885    1.3544266660   -0.0340771175
 C    0.0760394965   -0.0385593508    0.0437113478
 C    0.3075050750   -0.6533230082    1.4508891875
 C   -0.8545584237   -0.0498592849    2.2509988819
 N   -1.9116823470    0.0717721681    1.2026148425
 C   -1.3547865191   -0.6143460250    0.0052204259
 C   -1.0713242807   -2.0610701003    0.3361436965
 N   -1.6825551343   -3.0867119132   -0.0683228160
 O   -0.0115917319   -2.0459427895    1.2213609487
 H   -0.6795903651    1.6935758924    0.3169119138
 H    0.7428835396   -0.4757608438   -0.7023494793
 H    1.2993489675   -0.5833584568    1.8918298520
 H   -1.1369599717   -0.7132395194    3.0738472266
 H   -0.5997304018    0.9327061354    2.6625779908
 H   -2.7889051325   -0.3447476953    1.4909802029
 H   -1.9573698843   -0.4557923663   -0.8857858193
 H   -1.2880289948   -3.9318535483    0.3505264653