12

 O    0.0800031336    1.3691173165   -0.0994930702
 C    0.0603223461    0.0217488748   -0.0355249514
 C   -0.0320868290   -0.7512402691   -1.1918716199
 N   -0.0560590962   -2.0838147493   -1.1960649779
 N    0.0102930921   -2.7465794012   -0.0468733807
 C    0.1000695931   -2.0633870736    1.0948317707
 C    0.1296680753   -0.6747501230    1.1668043692
 O    0.2202400490    0.0609002007    2.3084784085
 H    0.1474882815    1.7151574357    0.7999834018
 H   -0.0891414020   -0.2629324111   -2.1598879414
 H    0.1510036902   -2.6638762297    2.0017483746
 H    0.2628971763   -0.5199706506    3.0756566666