15

 N   -0.1568791380    1.2315536481    0.4030132552
 C   -0.0823370649    0.0105676602    0.0958451300
 O   -1.1869856010   -0.7657605489    0.1437994227
 C   -0.9912475841   -2.1577807606   -0.1194100786
 O   -0.4177880507   -2.8191639392    0.9789023474
 C   -1.4001224433   -3.6269685817    1.6314802482
 C   -2.5822624820   -3.6090306908    0.7066065415
 C   -2.3418272941   -2.7893334386   -0.3090629341
 H    0.7557385275    1.6704495808    0.2974619440
 H    0.8178951983   -0.5270389583   -0.2309083662
 H   -0.3046794190   -2.2500981609   -0.9726766196
 H   -0.9808991081   -4.6308906089    1.7768884075
 H   -1.6437463890   -3.2193687058    2.6236192004
 H   -3.4841572288   -4.1791667737    0.8872764404
 H   -2.9947021329   -2.5328677115   -1.1312281388