18

 C   -0.0485074504    1.4002811803   -0.0682760298
 N    0.0151490360   -0.0438953605    0.0265896537
 C   -1.2389596804   -0.7915670560    0.0187692355
 C   -0.9427700610   -2.2852018608    0.1056109781
 C    0.1040877544   -2.5971727958    1.1955394050
 C    1.0610175101   -2.2134852028    0.0483539717
 O    0.0415102824   -2.5954005694   -0.9201486387
 C    1.2253399576   -0.6918923725    0.0083900592
 O    2.3063048735   -0.1346322034   -0.0100967401
 H    0.9721777758    1.7822491575   -0.0688362628
 H   -0.5540210781    1.7120339518   -0.9915889946
 H   -0.5959457755    1.8242276689    0.7827109790
 H   -1.8704250728   -0.4775655991    0.8628733480
 H   -1.7940458577   -0.5807909793   -0.9065090280
 H   -1.8491325602   -2.8901447866    0.0265076698
 H    0.1130730146   -2.0004602591    2.1096105164
 H    0.1474727381   -3.6628104601    1.4233758326
 H    2.0172564535   -2.7146431232   -0.0963297849