17

 O   -0.6683204997    0.8686973736    0.7046370106
 C    0.1743356156    0.9534555849   -0.1544727077
 C    1.3839313200    1.8173181305   -0.0543742512
 C    1.7689765509    2.8030553457    1.0781482599
 C    2.9137236996    2.9089290347    0.0291268096
 C    2.8824789997    1.3575268445   -0.0739991975
 C    1.8019604426    2.9520086518   -1.0789921131
 C    2.1223804316    2.6124938501   -2.4484511598
 C    2.3720756048    2.3522273850   -3.5962468945
 H    0.0964877711    0.3743998804   -1.1024582800
 H    1.1264551372    3.6772413686    1.2053501411
 H    2.0297262128    2.3507077129    2.0361964983
 H    3.7938987948    3.5502088111    0.0688860154
 H    3.2134123268    0.8037242785    0.8071995237
 H    3.2500573316    0.9149093784   -1.0003114628
 H    1.1545713911    3.8332371068   -1.0338168852
 H    2.5952303695    2.1227956425   -4.6089266968