25

 C   -0.0058215093    1.6165574891   -0.0270899344
 C   -0.1097352710    0.0885262114   -0.0727071245
 C    0.6849348781   -0.5261206712   -1.2268113829
 C    2.2263562210   -0.5726516882   -0.9939909729
 C    2.1032572597   -2.0716669899   -0.6142116962
 C    0.7013284182   -2.0951594610   -1.2875938781
 C   -0.4037383111   -2.9008397083   -0.6611390940
 C   -1.6273796502   -3.2801167477   -1.4616794613
 C   -0.6228806368   -4.3365824179   -1.0756761053
 H    1.0333341883    1.9450864766    0.0819173506
 H   -0.3974167787    2.0643769081   -0.9473984063
 H   -0.5737006943    2.0298457553    0.8124926576
 H    0.2363168666   -0.3276163503    0.8830801740
 H   -1.1637402096   -0.2010951683   -0.1667550113
 H    0.3731214100   -0.0447494395   -2.1606528949
 H    2.7906928070   -0.4253315508   -1.9190104283
 H    2.6320705971    0.1024264006   -0.2351934773
 H    2.8593824467   -2.7600649601   -0.9999372501
 H    2.0317683871   -2.2166350538    0.4683760120
 H    0.8081628561   -2.4028699696   -2.3351904012
 H   -0.5793184271   -2.6904217998    0.3907031104
 H   -2.5919066477   -3.2799292782   -0.9658112993
 H   -1.6650880741   -2.9735039390   -2.5021159721
 H    0.0143957226   -4.7397969329   -1.8562219215
 H   -0.9005565186   -5.0579551843   -0.3150266028