21

 C    0.0194213483    1.4615996235    0.0157929374
 C   -0.0369085927   -0.0448886177   -0.0093156950
 C   -0.8935777567   -0.8215244876    0.9613289193
 C    0.6131659897   -0.9266515436    1.0422513654
 C    1.3622067668   -1.8852499943    0.0997051504
 C    0.3435604389   -2.2974881631   -0.9778250857
 C    0.5033497503   -0.7849897496   -1.2733261913
 C    0.2823426225   -0.1804494610   -2.6326290880
 O    1.9273066566   -0.9492853795   -0.8892556806
 H    1.0009312065    1.8182537863   -0.3145553939
 H   -0.7420013085    1.9116805159   -0.6323290796
 H   -0.1483376250    1.8404357640    1.0289775946
 H   -1.3582902659   -0.2277614471    1.7443503476
 H   -1.5038403436   -1.6608429851    0.6509229166
 H    1.1412094304   -0.5086420808    1.8915687818
 H    2.0966639087   -2.5689408254    0.5240425821
 H    0.8272991954   -2.8834974090   -1.7593535043
 H   -0.6227416611   -2.7289910525   -0.7159148221
 H   -0.7880949746   -0.1464097378   -2.8615470887
 H    0.6711632518    0.8412121420   -2.6766025026
 H    0.7845291324   -0.7715939374   -3.4027055435