15

 O   -0.0536989035   -0.0416553319   -0.1505482955
 C   -0.0360626524    1.1481093532    0.0337222351
 O   -1.2079114205    1.8349761009    0.1148638775
 C   -1.1686075789    3.1776402245    0.6165670777
 C   -0.0866011662    4.0147001203   -0.0511073238
 C    1.2322737139    3.2747596471    0.0264248301
 C    1.2153839784    1.9310454168    0.1168348772
 C    2.4343171803    4.0242639384   -0.0254659470
 C    3.4309049660    4.7000874270   -0.0706032712
 H   -2.1645567468    3.5858418988    0.4339353394
 H   -1.0010345289    3.1463968648    1.7010430189
 H   -0.3352929600    4.2130455061   -1.1016095720
 H   -0.0108463579    4.9859405290    0.4468834270
 H    2.1238227539    1.3439671013    0.1592858927
 H    4.3196827523    5.2807309436   -0.1106771260