21

 C    0.0965109986    1.5913110198   -0.0147993882
 C    0.2229904920    0.0663460432   -0.0625269430
 C    0.3975843027   -0.5511587354    1.3322245867
 C    0.6106331481   -2.0559782254    1.3045900096
 C   -0.5599095246   -2.8957495349    0.8301994124
 N    1.9665312740   -2.4670494223    0.9197545257
 C    1.5247115864   -2.6971940052    2.3135934591
 C    2.1956618400   -1.9456497304    3.3463835617
 N    2.7065575028   -1.3520964629    4.1972093738
 H    0.9845591296    2.0470363473    0.4360024016
 H   -0.0210674862    2.0105673004   -1.0186972962
 H   -0.7709795936    1.9003059287    0.5789946350
 H   -0.6637121069   -0.3545135613   -0.5525524739
 H    1.0847364272   -0.2162198267   -0.6789728197
 H    1.2567721932   -0.0837289801    1.8235234035
 H   -0.4795630428   -0.3285744041    1.9541214941
 H   -0.8000174304   -2.6725875574   -0.2141322103
 H   -0.3398857180   -3.9657841861    0.9029864677
 H   -1.4547464752   -2.6932499432    1.4276472769
 H    1.9546975874   -3.3534191223    0.4197442912
 H    1.2807070257   -3.7131674318    2.6135364823