20

 C   -0.1710851584    1.5800727170    0.0811382849
 C    0.0389255015    0.0736430798    0.0382430682
 C    1.1409449925   -0.5435925258   -0.9223808138
 C    1.9868349754    0.3784565845   -1.6698920377
 N    2.6531594801    1.1289728813   -2.2450283584
 C    1.7714002172   -1.2418469011    0.2943836078
 C    2.1568517542   -0.2262959461    1.3335251016
 C    0.7140553718   -0.6404579940    1.2260393755
 C   -0.0456373419   -1.2748011722    2.3559957206
 H    0.7589383771    2.1187665223    0.2805002387
 H   -0.5667574697    1.9485287499   -0.8707237333
 H   -0.8888330905    1.8410003948    0.8661454987
 H   -0.9105966697   -0.4203540633   -0.1912857481
 H    0.6923358881   -1.2507641139   -1.6236976712
 H    2.1872943062   -2.2415803902    0.2706324773
 H    2.6829413555   -0.6339392759    2.1910317682
 H    2.5003020353    0.7615145553    1.0383073130
 H   -0.4808794837   -0.5165368451    3.0179235434
 H   -0.8654055452   -1.9007700704    1.9847956337
 H    0.6077848941   -1.9060459670    2.9667690907