20

 O   -0.0089389138    0.0703406958   -0.4153766991
 C   -0.0399417134    1.2125641006   -0.0688735215
 C   -1.1291689469    2.1853279375    0.4115814112
 N   -0.0428946367    3.1100962603    0.8313607073
 C    1.0155768696    2.3134435627    0.1409063882
 C    2.2558769816    1.9750201416    0.9640028874
 C    3.1966889260    3.1491797530    1.1367143315
 C    2.9219869551    4.1993535277    2.1859931052
 C    4.0802783726    3.2474865928    2.3540632950
 H   -1.7628865512    2.5314943742   -0.4173872405
 H   -1.7758993175    1.8351940502    1.2234883900
 H   -0.1448273758    4.0543110946    0.4801457863
 H    1.3147831387    2.7290962426   -0.8353885845
 H    1.9298378797    1.6124540718    1.9459237862
 H    2.7735489077    1.1425098091    0.4698344464
 H    3.6314689943    3.5102665644    0.2069160817
 H    3.1397772540    5.2356126752    1.9509952802
 H    2.0494812083    4.0581162970    2.8136437808
 H    3.9932145926    2.4693274427    3.1054312213
 H    5.0865730950    3.6323599463    2.2308525669