19

 C   -0.1155415046    1.5348428953    0.0676572242
 C    0.0609933338    0.0142341042    0.0444805108
 C    0.7792149016   -0.5043028154   -1.2147543023
 C    2.2287312121   -0.0328310114   -1.3469955724
 N    0.7103857067   -1.9709499379   -1.2563011572
 C    1.4466443183   -2.9210729658   -0.6530125768
 N    0.9550331455   -4.1057801710   -0.9502667915
 N   -0.1126309800   -3.8626110570   -1.7531564519
 N   -0.2723061284   -2.5943949593   -1.9422023077
 H    0.8421886096    2.0610935170    0.1207217780
 H   -0.6438429441    1.8861294103   -0.8254467887
 H   -0.7033974601    1.8359594115    0.9391036259
 H    0.6167057416   -0.3148932168    0.9318763925
 H   -0.9198715789   -0.4706634788    0.0905001215
 H    0.2140013915   -0.1884062368   -2.0965888983
 H    2.8179199149   -0.2848225457   -0.4589156481
 H    2.7072426962   -0.4819446141   -2.2210628347
 H    2.2577585968    1.0524535335   -1.4650684636
 H    2.3053163774   -2.7276211318   -0.0324032498