20

 C   -0.0737643598    1.5861382860    0.0110667472
 C   -0.0171928057    0.0531536641    0.0149029969
 C    0.8603222869   -0.4840933366   -1.1373074632
 C    2.2518508896   -0.6681853013   -0.5205457003
 O    3.3029651460   -0.8387064312   -1.0970947832
 N    2.0753754316   -0.6145030744    0.8379222133
 C    0.7035970278   -0.5006345307    1.2552111521
 C    0.3558105527   -0.1346718112    2.6645360134
 C    0.0899588631   -1.5423467651    2.1594280812
 H    0.9318535999    2.0151590044    0.0738506782
 H   -0.5384180453    1.9507484270   -0.9105118049
 H   -0.6550051475    1.9689983727    0.8549991260
 H   -1.0339216084   -0.3463229885   -0.0358991745
 H    0.5212217442   -1.4644086831   -1.4906287259
 H    0.9090151681    0.1788944471   -2.0033675303
 H    2.8396625841   -0.8104213311    1.4650288131
 H    1.1665903219    0.0067869559    3.3723086724
 H   -0.4924713830    0.5203564457    2.8335974786
 H   -0.9392660607   -1.8388413160    1.9850927412
 H    0.7311202544   -2.3388291536    2.5226984086