19

 C   -0.1662818400    1.5677302853   -0.1927364840
 C   -0.0080011432    0.0656355553   -0.0219699151
 O   -1.2542383326   -0.5806496194    0.1666272203
 C    0.7259332936   -0.6918367614   -1.1452329349
 O    2.0667365110   -0.1983041050   -1.1875810054
 C    1.7371485736   -1.2086149589   -0.2170180496
 C    1.1022527400   -0.4850825035    0.9833853495
 C    1.9961836222    0.4671981221    1.7653996713
 O    2.9454304364   -0.2297370136    2.5644623057
 H    0.7816301099    2.0290991373   -0.4788100013
 H   -0.9082439979    1.7743760037   -0.9702294642
 H   -0.5085142947    2.0383859212    0.7370810092
 H   -1.6852778237   -0.1831015455    0.9308546316
 H    0.3010787369   -1.1093459525   -2.0508550419
 H    2.3083938224   -2.1292568442   -0.2510519616
 H    0.6241220591   -1.1979273350    1.6613585088
 H    2.4907172917    1.1672037911    1.0787852338
 H    1.3975497761    1.0590470311    2.4665482144
 H    3.5891926291   -0.6281406679    1.9704321833