17

 C   -0.3068728888    1.5658184559   -0.0801223560
 C   -0.0055525735    0.1114223150    0.0193795274
 C    0.6717170507   -0.8709917305   -0.8616246571
 C    1.4614702480   -1.4870390166    0.3060405825
 C    2.7594637741   -0.8546017133    0.4829878511
 N    3.7908400482   -0.3507651770    0.6230159202
 C    0.3434732313   -0.8754101983    1.2129998080
 C   -0.8878563319   -1.6641133302    0.7499059882
 N   -0.8022967795   -0.9959573229   -0.5890913961
 H    0.5669508822    2.1662030958    0.1927298732
 H   -0.5912010268    1.8153815415   -1.1067039802
 H   -1.1347060894    1.8480291552    0.5793449246
 H    0.9779743995   -0.7912640545   -1.8956981067
 H    1.5738941026   -2.5762900042    0.3381034055
 H    0.5576974525   -0.6338487146    2.2515244401
 H   -0.8333580044   -2.7589372426    0.7374206030
 H   -1.8129019648   -1.3456526187    1.2358511823