17

 C   -0.1620687732    1.5426950801    0.0403203839
 C    0.0257953567    0.0320255291    0.0240472464
 C    0.8025506870   -0.6058904219   -1.1845462268
 C    2.1207053071   -0.2354652426   -0.4309359825
 C    1.2312575486   -0.5971214558    0.7813602656
 O    1.0094332124   -2.0081683132    0.6123280119
 C    0.6947579905   -2.0861047489   -0.8007862554
 H    0.7505556845    2.0960247890   -0.1960033446
 H   -0.9239134596    1.8407742978   -0.6884282558
 H   -0.5047427719    1.8771735104    1.0257678086
 H   -0.9238242650   -0.4596879051    0.2625923885
 H    0.6124318170   -0.3324689808   -2.2225070667
 H    3.0012683761   -0.8606252922   -0.5973674485
 H    2.3829830139    0.8189901993   -0.5011174281
 H    1.4837327429   -0.3877221119    1.8203811175
 H   -0.3100920073   -2.5024534842   -0.9394270325
 H    1.4211949103   -2.7287069690   -1.3125197714