16

 O    0.0595457208   -0.0857747320    0.2311750169
 C    0.0803907126    1.1199721872    0.1802634771
 C    1.3471780071    1.9029432692    0.0254366960
 C    2.6641115740    1.2040194483    0.2891172049
 C    3.5597900142    2.1812945812    0.1587958423
 C    2.7070839825    3.3818622301   -0.1850915567
 C    1.5658708431    2.9378747290   -1.1484930637
 C    0.6651687551    3.9180987895   -0.3953529221
 N    1.4611834062    3.3008063884    0.7600480216
 H   -0.8592446147    1.7074734876    0.2412109362
 H    2.7695172598    0.1628506211    0.5516303126
 H    4.6319857653    2.1686816996    0.2885284513
 H    3.1482778502    4.3754218608   -0.2725016279
 H    1.6287247798    2.7070865345   -2.2191252492
 H    0.8646912911    4.9852233244   -0.5254933535
 H   -0.4099955272    3.7372754011   -0.3548385160