17

 C   -0.0246685122    1.5800730788   -0.0223388512
 C    0.1562543947    0.0624984812   -0.0907404693
 C    0.6237231314   -0.5408039615    1.2468118636
 C    0.7617229266   -2.0294776040    1.2012204737
 C    1.8872518204   -2.8209904058    1.2110362836
 N    1.4047913882   -4.0841896397    1.1279960981
 N    0.0615224080   -4.0949366928    1.0704431882
 N   -0.3272375823   -2.8541534894    1.1137567174
 H    0.9129862373    2.0823348444    0.2421357596
 H   -0.3581071846    1.9835652600   -0.9833262877
 H   -0.7704869539    1.8561864909    0.7314002426
 H   -0.7855160001   -0.4177665155   -0.3779942476
 H    0.8830062216   -0.1932915651   -0.8718997567
 H    1.5820447403   -0.0956033047    1.5390368978
 H   -0.0979840933   -0.2751298589    2.0288740959
 H    2.9397747513   -2.6010741475    1.2711249927
 H    1.9063501267   -4.9576135601    1.1143631392