22

 C    0.2080117004   -0.9744956187    1.8589093639
 C    0.0015483254   -0.4581109162    0.4295648888
 C   -1.4044353493   -0.6668442912   -0.1162570344
 C   -2.5017849874    0.1041083095    0.5801051065
 O   -2.2416401608    1.4893095835    0.4579117915
 C   -3.1885942842    2.2850961785    1.1258337225
 C   -1.5659745959   -0.8784466599   -1.6017736384
 C   -1.7727663475   -2.0317058032   -0.6500885837
 H    1.2481612673   -0.8421492688    2.1728941919
 H   -0.4192795234   -0.4387808759    2.5784252647
 H   -0.0327095257   -2.0403969028    1.9355952299
 H    0.2363268342    0.6112770847    0.3874879285
 H    0.7117419086   -0.9601818100   -0.2386044072
 H   -3.4793817684   -0.1425900561    0.1313340758
 H   -2.5613875579   -0.1731921342    1.6467925310
 H   -2.8991561161    3.3295392634    0.9849258204
 H   -4.2038284056    2.1413067032    0.7215056872
 H   -3.2199491588    2.0676880082    2.2059179862
 H   -2.4377670286   -0.4519078340   -2.0863761779
 H   -0.6716258919   -0.8755144532   -2.2156602935
 H   -1.0142942887   -2.8067873797   -0.6123006918
 H   -2.7833681356   -2.3966381871   -0.4971456318