20

 C    0.1738470295    1.3920430009   -0.0995256269
 C    0.1013572530   -0.1226265033   -0.0397164155
 C   -1.2186085948   -0.7367796448   -0.4789156429
 C   -1.6422531962   -0.3518028752   -1.9122382757
 O   -0.6631392974   -0.6243660194   -2.8956337731
 C   -2.9283373894   -1.0010210259   -2.2494313507
 N   -3.9171233596   -1.5409046586   -2.5072370824
 C    1.3687256233   -0.8984203078   -0.3056957556
 C    0.8179739091   -0.8161088436    1.0971544276
 H    1.1166557844    1.7522901648    0.3224840665
 H    0.1196139671    1.7600497989   -1.1300058898
 H   -0.6413387718    1.8540457222    0.4705089491
 H   -1.1624775737   -1.8304532006   -0.4130028494
 H   -2.0257301336   -0.4285529605    0.1987177615
 H   -1.8004570548    0.7304774206   -1.9641142661
 H   -0.4759420394   -1.5700103790   -2.8837758244
 H    1.2973768373   -1.8487591438   -0.8240515072
 H    2.2674695912   -0.3386250720   -0.5404291839
 H    1.3399970354   -0.1971297317    1.8188962871
 H    0.3678835106   -1.7067635710    1.5234449017