19

 C   -0.0863724491    1.4011365521   -0.2539972755
 O   -0.0599277437    0.0069979124    0.0069072245
 C   -1.3399065276   -0.5775994087    0.0624468294
 C   -1.6842291639   -1.2853129798   -1.2928500291
 O   -1.0535743727   -0.7810400372   -2.4354375132
 C   -1.1795798449   -2.6265770629   -0.6911462059
 C   -1.2886991891   -1.9901969929    0.7328307797
 C   -0.2584800687   -2.2669661038    1.7093211273
 C    0.5979663853   -2.5128211947    2.5164321712
 H    0.9520458407    1.7406630148   -0.2676441456
 H   -0.5550132691    1.6277228348   -1.2202224977
 H   -0.6271934615    1.9400240098    0.5372690297
 H   -2.0711616099    0.1276032993    0.4765446202
 H   -2.7588207204   -1.2973123818   -1.4950984081
 H   -0.1370740618   -0.6181093250   -2.1767323534
 H   -1.7621758731   -3.5295932181   -0.8814921781
 H   -0.1362859836   -2.8072182421   -0.9604069228
 H   -2.2740318646   -2.2008061690    1.1627636005
 H    1.3581250978   -2.7232686670    3.2269730968