20

 C    0.0662426368    1.4578693642   -0.2826400515
 C    0.0101503362    0.0006087182    0.1933293316
 C   -1.3757070544   -0.6039068678    0.0730139518
 O   -2.3336671813    0.0346591920    0.8925508345
 C   -1.9763016396   -1.1493083398   -1.2016560267
 C   -0.9526377585   -1.9128827466   -2.0510341264
 C   -0.6561002843   -2.8475873274   -0.8305280370
 C   -1.6809057891   -2.0706272900    0.0015439768
 H    1.0768081129    1.8657437917   -0.1880909245
 H   -0.2334442024    1.5435892743   -1.3330279111
 H   -0.5970578413    2.0950913710    0.3122587343
 H    0.7322385564   -0.5940385373   -0.3736781842
 H    0.3142799253   -0.0557922864    1.2456497756
 H   -2.5583766302    0.8763543836    0.4824311015
 H   -2.9360833977   -0.7819690294   -1.5475488953
 H   -1.4162374672   -2.4566412312   -2.8771228356
 H   -0.1156432376   -1.3322853152   -2.4528452207
 H   -0.9714661815   -3.8756291748   -1.0210726739
 H    0.3710913837   -2.8711410042   -0.4524726558
 H   -2.3787694263   -2.4962094849    0.7123213366