19

 O    0.0233100579   -0.0790633095   -0.2749423201
 C    0.0210192153    1.0951179455   -0.0083842900
 C    1.2627425923    1.9753930561    0.0200854704
 C    1.2978903550    2.8461540523   -1.2258209004
 C    1.3722881417    4.1711773470   -1.0936106262
 C    1.4261533348    4.7577504854    0.3002479770
 C    2.4451627366    3.9219457768    1.1358691375
 C    1.3050172934    2.8718356698    1.2801181435
 C    0.3164751375    4.0733357452    1.1559097356
 H   -0.9294105063    1.6274056830    0.2241705437
 H    2.1176958012    1.2869418188    0.0140102969
 H    1.2675077047    2.3537936912   -2.1927643653
 H    1.4116314636    4.8284698056   -1.9568421973
 H    1.5030795600    5.8454059018    0.3060519253
 H    3.3727694603    3.6172369313    0.6454081256
 H    2.6669490060    4.3931658413    2.0969157976
 H    1.2718608039    2.2708341563    2.1920347460
 H    0.1837254649    4.5654713054    2.1229389942
 H   -0.6562794329    3.9195452169    0.6842234659