21

 C    0.6425966126   -0.7868514108   -0.7861154585
 C   -0.2592304452   -0.2093410876    0.3092497707
 C   -1.7556997666   -0.3465759318   -0.0090182744
 C   -2.3259063210   -1.7912308529    0.1478152738
 C   -3.0048749718   -1.4108384673    1.4972163152
 C   -2.6691470693    0.0551850465    1.1887196951
 O   -3.0481727672    1.1073994145    1.6196694156
 O   -2.1254622279    0.2060264227   -1.2550220785
 C   -1.9290412809    1.6069129590   -1.3970852817
 H    1.6974321828   -0.6379991199   -0.5372965272
 H    0.4787918163   -1.8615899945   -0.9150190012
 H    0.4451586160   -0.3077067111   -1.7484316441
 H   -0.0613076702   -0.7097862963    1.2654396358
 H   -0.0258127593    0.8489258351    0.4732821177
 H   -3.0465166525   -2.0016939459   -0.6433061640
 H   -1.5859434268   -2.5913244510    0.1890727716
 H   -4.0682098881   -1.6338048460    1.6121707434
 H   -2.4791624629   -1.7765470683    2.3851083285
 H   -2.3968928846    2.1651560374   -0.5796257296
 H   -0.8640170818    1.8723463017   -1.4484468080
 H   -2.4004002015    1.8860337864   -2.3424219301