18

 C   -0.0868062553    1.4969542388   -0.0787958763
 O    1.1912832701    0.8899696993    0.0783815523
 C    0.0376421125    0.0432615123    0.0883646021
 C   -0.2921685074   -0.6126833645    1.3940678696
 N   -0.3716465529    0.0469288827    2.4712400656
 C   -0.7172829532   -0.6500074902    3.7040357000
 C   -1.4107967176   -1.9924128178    3.4530579579
 C   -0.6290856039   -2.7457753146    2.3855973109
 O   -0.4688392367   -1.9496068026    1.2022888818
 H   -0.4280724514    2.0798949013    0.7730033366
 H   -0.2988546697    1.9009673444   -1.0680603364
 H   -0.0551594024   -0.6125401218   -0.7746554211
 H    0.1987418317   -0.7951203382    4.2934799071
 H   -1.3571303106    0.0111169404    4.2985780964
 H   -1.4699447485   -2.5923618170    4.3667852249
 H   -2.4345753331   -1.8237655082    3.1004254051
 H    0.3693511744   -3.0158489299    2.7538872005
 H   -1.1334532461   -3.6591256445    2.0614297128