22

 C    0.0597558404    1.2530696182   -0.2613338757
 O    0.0710621161   -0.1451596280   -0.0048757280
 C   -1.1266678247   -0.7582714623   -0.0802959653
 N   -1.2302778272   -1.9900330487    0.1539165351
 C   -2.5442140999   -2.5786628893   -0.0039544696
 C   -2.6414452828   -3.3544774218   -1.3227460202
 C   -3.9035647349   -4.2171776476   -1.3864739108
 O   -2.6253710467   -2.3798178502   -2.3597992857
 C   -2.1444185540   -2.8467915296   -3.5975188922
 H    1.0937887545    1.5897379674   -0.1771592412
 H   -0.3081745496    1.4744099534   -1.2706777804
 H   -0.5527182919    1.7924723363    0.4717590808
 H   -1.9631427337   -0.0963659686   -0.3507718317
 H   -2.7192356620   -3.2732225607    0.8254338658
 H   -3.3572040658   -1.8327564500    0.0057540657
 H   -1.7475786515   -3.9914702890   -1.4084060496
 H   -3.9858127652   -4.7280840993   -2.3500454714
 H   -3.8888059384   -4.9827598548   -0.6042394668
 H   -4.7973352897   -3.5992578794   -1.2526799420
 H   -1.1175555316   -3.2345120453   -3.5141323470
 H   -2.7769483378   -3.6381157941   -4.0275527097
 H   -2.1443972937   -1.9970397965   -4.2855842401