20

 N   -0.1496964229   -1.1707325280   -0.2395817077
 C   -0.0875362500   -0.0216412576   -0.1234964790
 C   -0.0044965477    1.4263261442    0.0282962982
 C   -0.6268140963    1.9670544392    1.3711278813
 C    0.5240556171    2.8046977052    1.9705369514
 C    1.6127477300    1.8421789244    2.4971038471
 C    2.2455233685    1.2711838443    1.1861478438
 C    1.4511192364    1.9867871033    0.0711048363
 C    1.1949678774    3.3713768080    0.7005993433
 H   -0.5281659362    1.8690972915   -0.8252215958
 H   -1.5044649526    2.5815259561    1.1546591504
 H   -0.9439648377    1.1573157704    2.0319204359
 H    0.1850694042    3.5374407055    2.7048731472
 H    2.3550756411    2.3848852406    3.0895224885
 H    1.1942769155    1.0608231499    3.1377640209
 H    3.3061500085    1.5272748366    1.1136220276
 H    2.1693807127    0.1836747640    1.1144301736
 H    1.9362830883    1.9713452141   -0.9056548238
 H    0.5335206978    4.0076241765    0.1036627746
 H    2.1195550560    3.9187899319    0.9058810362