21

 C    0.1443216293    1.6521578435   -0.0592081476
 C    0.1259999466    0.1219313152   -0.1022387208
 C    0.6511381089   -0.5138651289    1.1869770971
 O   -0.1084619526   -0.0958774405    2.3393407116
 C   -0.7389987185   -1.2418487744    2.8908491727
 C   -1.8026241250   -1.8427443912    1.9171695720
 C   -0.7043931755   -2.7726395187    1.3946568655
 C    0.1740959931   -2.4635706323    2.6027085311
 C    0.6218620401   -2.0368712631    1.2422199918
 H    1.1620683734    2.0308663744    0.0884392425
 H   -0.2392315503    2.0801556246   -0.9904196866
 H   -0.4701008538    2.0177222856    0.7677304798
 H   -0.8886834144   -0.2390119506   -0.3008811251
 H    0.7517933230   -0.2383345297   -0.9299293656
 H    1.6859726910   -0.1698430705    1.3419271068
 H   -1.0478223909   -1.0120795653    3.9097520508
 H   -2.5638948835   -2.4100364350    2.4618144318
 H   -2.2916047564   -1.1411370146    1.2348546854
 H   -0.8567722608   -3.7296519403    0.9091238990
 H    0.7074804966   -3.1013176868    3.2938525432
 H    1.4178562697   -2.5863284812    0.7523572045