20

 C    0.1931972404    1.6147687547   -0.3443314992
 O   -0.3056736486    0.3054937677   -0.4808072765
 C    0.5922712621   -0.5875369695   -1.1016583817
 C    1.8309035619   -0.9825135711   -0.2485906205
 C    2.0550994339   -2.4189276276   -0.6531264040
 C    1.0137533022   -2.9196119988   -1.3163736897
 C   -0.1190496886   -1.9269256467   -1.4520300926
 C   -1.3024019226   -2.2674449047   -0.5292559609
 H    1.0669279328    1.6618901406    0.3225674334
 H    0.4819910839    2.0425945271   -1.3179446881
 H   -0.6062926511    2.2240043249    0.0848334543
 H    0.9572814553   -0.1374049477   -2.0398012774
 H    2.6991034970   -0.3421288908   -0.4399171961
 H    1.6017350020   -0.8949839431    0.8229926377
 H    2.9592318909   -2.9630606173   -0.4021389574
 H    0.9346453760   -3.9381852101   -1.6817164499
 H   -0.4970763818   -1.8878696624   -2.4812209327
 H   -0.9868905402   -2.3218949678    0.5169279562
 H   -2.0844438234   -1.5089610204   -0.6072698687
 H   -1.7279871420   -3.2382760470   -0.8036922364