19

 C   -0.7640696841    0.1302465349   -1.1722239581
 C   -0.0562643331    0.3942632009   -0.2359008487
 C    0.8407490867    0.6901180743    0.8851273930
 N    1.7592881680    1.8313767615    0.7630919158
 C    1.9869414995    2.4827826217   -0.5209239065
 C    1.2670692482    3.1979732834    0.5745446099
 C   -0.1837377261    3.5484428140    0.4671041286
 C   -0.8529760972    4.2086869613    1.6197682501
 N   -0.5684437400    4.9699976995    0.3924173249
 H   -1.4003443591   -0.1029154192   -1.9902569050
 H    0.2512386345    0.8353226903    1.7980235461
 H    1.4645196363   -0.1954828770    1.0599180246
 H    3.0232115445    2.7146612257   -0.7541121510
 H    1.3852570565    2.1608828157   -1.3685067823
 H    1.8297730324    3.9238393171    1.1665027037
 H   -0.7782336617    2.9067726528   -0.1748150401
 H   -1.9066795374    4.0306045319    1.8148971907
 H   -0.2543667343    4.4054836740    2.5062359337
 H    0.2529713965    5.5550425872    0.5336815308