15

 C    0.1073898442    1.3829515237    0.0069031777
 O   -0.0070227125   -0.0347908895    0.0034455112
 C   -1.2428365254   -0.5645261377    0.0106924579
 C   -2.4224592393    0.1200524801    0.0212817790
 C   -3.6784155757   -0.6024580418    0.0279878081
 O   -4.8000401973   -0.1259306879    0.0378065643
 N   -3.5050362336   -1.9985803272    0.0226135434
 N   -2.3633063116   -2.6896863382    0.0122886365
 C   -1.2624002494   -2.0027094132    0.0064065599
 H    1.1757979230    1.5990744699   -0.0001707588
 H   -0.3629095584    1.8182403948   -0.8823351345
 H   -0.3499772865    1.8128342844    0.9054690535
 H   -2.4899276068    1.1986344200    0.0251371579
 H   -4.3498065688   -2.5542247272    0.0270936178
 H   -0.3306092020   -2.5551608403   -0.0019899038