17

 C    0.6894488559    1.2827696125    0.0236416799
 N    0.1409247952   -0.0687277187    0.0128379051
 C   -0.5274585473   -0.5425995446    1.1183226134
 O   -0.5953387823    0.0262945328    2.1829294173
 C    0.0545831668   -0.7559831237   -1.2408559382
 C    1.3467990308   -1.2126676336   -1.9077145566
 C    0.4285737929   -2.2303902616   -1.3110608714
 C   -1.0030764403   -0.2965865497   -2.1223811569
 N   -1.8464786220    0.0915406013   -2.8122664872
 H    1.7240781500    1.2786326118   -0.3317960539
 H    0.0997186638    1.9498812564   -0.6155555292
 H    0.6526833322    1.6429038788    1.0511040815
 H   -0.9877486379   -1.5287278254    0.9267158051
 H    1.4059866484   -1.1271509336   -2.9856084465
 H    2.2580852065   -0.9759269636   -1.3715033914
 H    0.7215806897   -2.6953872975   -0.3780733312
 H   -0.1609144524   -2.8549264716   -1.9709951996