16

 O   -0.1507728015    0.0425943397    0.0173602726
 C   -0.0622104258    1.2364210583   -0.0418209192
 N   -1.0107320347    2.2431280496   -0.1379287108
 C   -0.0584372120    3.3495668677   -0.0542360845
 C    0.3025795063    3.8056487577    1.3852203686
 C    1.4772492612    2.7620416708    1.4216623556
 C    1.5076171193    1.7923597680    2.4959103679
 C    1.5139127620    0.9951239388    3.3956221606
 C    1.0792774357    2.2772856402   -0.0229664746
 H   -1.9940534615    2.2133842493    0.0967659131
 H   -0.1592266945    4.1054468388   -0.8332827118
 H    0.6518845477    4.8377578174    1.4549247947
 H   -0.4845090673    3.6431686836    2.1229467141
 H    2.4378435347    3.2828397931    1.3705022164
 H    1.5223949013    0.2775323226    4.1782726610
 H    1.8718466392    2.1822249745   -0.7617093137