15

 O   -0.0387124035    1.3440297995    0.0513998620
 C   -0.0082744046   -0.0282131193    0.0233367826
 C   -0.2732542963   -0.8592451314   -1.2209291026
 C    0.2460550965   -2.2701928035   -0.8146000095
 C   -0.7006921996   -2.3141930384    0.3194728322
 C   -1.2471693875   -0.9046394289   -0.0547685972
 N    0.7672925533   -2.1547939506    0.5880959516
 C    0.9941850749   -0.7654105490    0.8316472065
 N    1.8472355812   -0.1974760646    1.5659749802
 H    0.6745098605    1.5984486336    0.6570211095
 H   -0.4004687069   -0.4473271014   -2.2106877634
 H    0.6625655473   -3.0432923956   -1.4471045889
 H   -1.2182940340   -3.1306944670    0.8059331634
 H   -2.2587463377   -0.5339454669    0.0143732562
 H    2.4464817263   -0.8746496765    2.0399717475