19

 C    0.1275781798    1.4674160974    0.0201583729
 C   -0.0589885806   -0.0037872891   -0.0173139233
 C   -1.1395344029   -0.8301595724   -0.0322301039
 N   -2.5053175121   -0.4967078414    0.0431028817
 C   -0.6508562053   -2.1921384914   -0.0287005431
 C   -1.4812851107   -3.4362349197   -0.0130556425
 C    0.7069869079   -2.0738264455   -0.0169837305
 N    1.7414353111   -3.0028395828   -0.0918074763
 O    1.0947190935   -0.7806842770   -0.0021415224
 H    0.8436121274    1.8024033758   -0.7401238485
 H   -0.8234630043    1.9711245385   -0.1807720309
 H    0.4900807187    1.8314516319    0.9913972251
 H   -2.6671286416    0.4960066560   -0.0737570748
 H   -3.0585291575   -0.9953137143   -0.6448042519
 H   -1.8634936672   -3.7118367726   -1.0057096918
 H   -0.9131375171   -4.2978572904    0.3559020956
 H   -2.3492407263   -3.3151821273    0.6450937185
 H    1.4382764594   -3.9323320104    0.1677684785
 H    2.5407126678   -2.7286167654    0.4677086476