18

 C    0.0219591888    1.4994648591    0.0108068231
 N   -0.0898167543    0.0126764463    0.0030119214
 H    0.3797497448   -0.3795583021   -0.8174881032
 H    0.3950006492   -0.3892256106    0.8098481694
 C   -1.5070356488   -0.5510293705    0.0129380196
 C   -1.4377603328   -2.0688172269    0.0032159499
 N   -2.7919882521   -2.5281348944    0.0128733648
 C   -2.8294973707   -3.8529780964    0.0083040079
 O   -1.8969736949   -4.6712993449   -0.0029987088
 C   -4.2236005556   -4.3752642371    0.0187837484
 N   -5.2834075457   -4.8402919726    0.0264075831
 H    1.0735167408    1.7898575655    0.0026773149
 H   -0.4838108069    1.8874284748   -0.8734188720
 H   -0.4670973145    1.8768217768    0.9089168871
 H   -1.9954469212   -0.1686024434    0.9111372632
 H   -2.0121945525   -0.1579217098   -0.8712822359
 H   -0.8566292927   -2.4028554070   -0.8843207262
 H   -0.8404734010   -2.4136533465    0.8757079934