20

 C   -0.0382214552    1.5597463369    0.0107497663
 C    1.4660056081    1.9194700539   -0.0125962553
 C    2.0713149426    1.5299470775   -1.3799070509
 C    1.9874766031   -0.0067613252   -1.3100052598
 C    0.5214965005   -0.4753827297   -1.3784524585
 C   -0.0070915946    0.0133989873   -0.0112107821
 C    1.1807973003   -0.3203063782    0.9109451917
 C    2.0890881384    0.8549279524    0.9100795833
 N    2.4179079642   -0.3384102104    0.0924681900
 H   -0.4965567003    1.9146373397    0.9403782315
 H   -0.5971678110    1.9911131147   -0.8276029641
 H    1.6766397386    2.9479095651    0.2857462168
 H    1.5307007983    1.9521743367   -2.2333103409
 H    3.1161501760    1.8510136619   -1.4446476625
 H    2.6419251617   -0.5130702630   -2.0220211250
 H   -0.0239864556   -0.0594546188   -2.2318512843
 H    0.4741799514   -1.5674709909   -1.4421746414
 H   -0.9489930736   -0.4494506499    0.2882139751
 H    1.1060254823   -1.0450419477    1.7157446423
 H    2.7721416949    1.1107423574    1.7141519778