17

 O    0.0064910076    1.3713553086   -0.0955067133
 C    0.0333422266   -0.0462335686   -0.0452588827
 C   -1.4067704767   -0.5292501152    0.0715734372
 C   -2.3092761280   -0.1327472004   -1.1231463347
 C   -3.2777760124   -1.3046995303   -1.3192570551
 O   -4.3774906234   -1.2636596236   -1.8067764909
 C   -2.6322696708   -2.5234978814   -0.7042076638
 O   -1.2624974702   -2.6650663378   -1.1336559945
 C   -1.5117709245   -2.0486944161    0.1279901785
 H    0.9011881352    1.6864810540   -0.2527458031
 H    0.4835401535   -0.4765302570   -0.9527579991
 H    0.6164340056   -0.4056589133    0.8185954072
 H   -1.8301403267   -0.1215324610    0.9979754094
 H   -2.8614093040    0.7939843320   -0.9661432821
 H   -1.7195903171   -0.0081635578   -2.0378378516
 H   -3.1893949894   -3.4395033592   -0.5375133767
 H   -1.1711665554   -2.6054472527    0.9978524653