20

 C   -0.2423666887    1.5452109390    0.1025905522
 C    0.0522840791    0.0575261940    0.1644205305
 N    0.8244616086   -0.5391318779   -0.9952978010
 C    2.1942868554    0.0039267504   -0.9385707246
 C    1.8327860625   -1.0728085312    0.0009455265
 C    1.0467902712   -0.5357864530    1.2137787408
 C    1.7945289696    0.3656523988    2.1996203714
 C    0.4464996893   -1.6973171288    1.9913793318
 O   -0.7018545806   -2.0539103066    1.9616027150
 H    0.6562796745    2.1680118334    0.0795049773
 H   -0.8270135818    1.7654389805   -0.7964512551
 H   -0.8355946737    1.8499268209    0.9710288712
 H   -0.8882115575   -0.4932693110    0.2289845793
 H    2.7863841989   -0.2742448416   -1.8054551297
 H    2.3708853186    1.0159046034   -0.5869322767
 H    2.2342544970   -2.0791978532   -0.0796147702
 H    2.3583395007    1.1463982137    1.6848556380
 H    1.0993988164    0.8528252634    2.8918675368
 H    2.5064327386   -0.2169263430    2.7959355136
 H    1.1902371718   -2.2292289713    2.6312384431