19

 C    0.0376842868    1.5449276648   -0.0041782975
 C   -0.0068333066    0.0535440410    0.0081452190
 C    0.4619786553   -0.9981951506   -0.9679893459
 C    0.9809292799   -0.9930120186    0.4824070195
 C   -0.0977661047   -1.7765428106    1.2396265149
 O   -0.2095157950   -3.1542420266    0.9358615066
 C   -0.6583955254   -3.2510149026   -0.4283522169
 C   -0.8450740167   -1.8037061761   -0.8910473803
 C   -1.1310056421   -0.9782453771    0.4014879886
 H    1.0161118867    1.9004462038   -0.3455519464
 H   -0.7200500822    1.9666733805   -0.6750568290
 H   -0.1344659880    1.9619321742    0.9950796007
 H    1.1398554627   -0.8897577731   -1.8056023960
 H    2.0333172268   -0.8794065873    0.7097380557
 H   -0.1082166763   -1.6476478102    2.3223932867
 H    0.0903260743   -3.7836886690   -1.0290241768
 H   -1.5926367367   -3.8284653964   -0.4533404682
 H   -1.5294235442   -1.6601777333   -1.7278063050
 H   -2.1374485046   -0.7699678131    0.7568988204