14

 O   -0.1676388352    0.0453049606   -0.2774877031
 C   -0.0896149926    1.2300781309   -0.2295894122
 O    1.0561236680    1.8708418717    0.1265793079
 C    1.0576067028    3.2749969804    0.1530136612
 C    1.8858294022    3.9023675280    1.2854825861
 O    2.6401245658    4.6932356979    0.3341834487
 C    2.0662039907    4.0046993367   -0.7896465014
 C    3.0178486362    3.1423984287   -1.4940927804
 N    3.7652835197    2.4745869726   -2.0680183168
 H   -0.9156001540    1.9326083571   -0.4528687601
 H    0.0428646427    3.6725712947    0.0574331562
 H    1.3538038314    4.5282321738    2.0070664444
 H    2.5141422477    3.1715316997    1.8057833635
 H    1.6194222745    4.7025422170   -1.5067883839