17

 N   -0.1275785072    0.3427192125    0.9806055589
 C    0.0435083660   -0.0152383165   -0.3238807826
 O    0.9172034214    0.4396849173   -1.0358624769
 C   -1.0003094518   -1.0200245774   -0.8287070318
 C   -1.0040586257   -2.3202568648   -0.0524865389
 N   -1.5011371186   -2.2696505815    1.3296525894
 C   -2.2720308182   -3.0336177812    0.3165824497
 C   -3.5716357235   -2.5395987887   -0.0438922457
 C   -4.6615688590   -2.1500148440   -0.3686393412
 H    0.5594385750    0.9481542833    1.3989795406
 H   -0.7767969312   -0.1641326949    1.5643621400
 H   -1.9929282343   -0.5624216906   -0.7664362353
 H   -0.7783314771   -1.2130476879   -1.8800087959
 H   -0.1494192014   -2.9672478141   -0.2415667351
 H   -0.9865228921   -2.9150226820    1.9228006173
 H   -2.2043177412   -4.1178644253    0.3731165518
 H   -5.6251002612   -1.8012740041   -0.6481228742