19

 C   -0.0947288230    1.5298434384    0.0075651316
 C    0.0245233529    0.0175524740   -0.0443096494
 O    1.1628751756   -0.3076792468   -0.9911807159
 C    2.0269745606   -0.3834856182    0.2173782135
 C    0.7241696365   -0.7797718630    0.9647920746
 C    0.3945194664   -2.2755810487    0.7222581372
 C   -1.1320226038   -2.1616588232    0.4826623611
 C   -1.2225321824   -0.6605629558    0.6930847739
 O   -0.3868991067   -0.4392910876    1.9320327778
 H    0.8729006039    2.0274531291    0.1098976953
 H   -0.5343231554    1.8649016925   -0.9391463007
 H   -0.7419876854    1.8547777670    0.8237982096
 H    2.7997584308   -1.1485582631    0.1147181505
 H    2.4644994743    0.5894096451    0.4528655752
 H    0.9338378712   -2.6975077711   -0.1258560688
 H    0.6409075448   -2.8432374296    1.6231203248
 H   -1.4435455593   -2.4614299496   -0.5216266093
 H   -1.7300562252   -2.7074876103    1.2150828966
 H   -2.1897005557   -0.1600127892    0.7579664523