15

 O    0.1152738334    1.3913484637    0.0422053855
 C    0.0457983741   -0.0098417877   -0.0340122788
 C   -1.4128188384   -0.5293787873    0.0098641564
 C   -1.4299851711   -2.0753503200   -0.1122084294
 C   -2.7772846811   -2.6276416129   -0.2190172445
 N   -3.8442595566   -3.0597678334   -0.3152335295
 C   -2.0633592711   -0.0706620777    1.2334577592
 C   -2.5409694104    0.3310792657    2.2612597532
 H   -0.3136709902    1.6571819701    0.8649090302
 H    0.4969376132   -0.2921681110   -0.9908869150
 H    0.6213870196   -0.4979339742    0.7691299514
 H   -1.9406965932   -0.1049921886   -0.8523974955
 H   -0.8605532969   -2.3723886077   -1.0003037699
 H   -0.9330548241   -2.5211201701    0.7561179784
 H   -2.9989709972    0.6712867511    3.1577379884