16

 C   -0.0815134604    1.5469517837   -0.0131404485
 C    0.0537700409    0.0243068729   -0.0141815587
 N    0.7765440409   -0.4886757185   -1.1903405566
 C    2.1330142873   -0.7858012785   -1.0619028046
 O    2.8720778556   -1.1684719311   -1.9292373531
 C    0.0286663830   -0.6199772960   -2.3720561416
 O   -1.1461834744   -0.3078364130   -2.3897797881
 C    0.6777945408   -1.1394234465   -3.5507822591
 C    1.0431535006   -1.5558792830   -4.6176446048
 H    0.8997500642    2.0316830235   -0.0170103407
 H   -0.6423574165    1.8804967133   -0.8885005720
 H   -0.6186579467    1.8710142062    0.8833103548
 H    0.5975910813   -0.3166056603    0.8711498455
 H   -0.9315695897   -0.4437226550   -0.0063919196
 H    2.4662287739   -0.6216585151   -0.0193805096
 H    1.4128213693   -1.9287979625   -5.5416328732