13

 O    0.0067046615    0.0044240824   -0.0628855967
 C   -0.0118546316    1.1977605514   -0.0611502474
 C   -1.0879640258    2.2902342463    0.0888604153
 C   -0.7590065142    3.3009051188   -1.0201215511
 C    0.0033831471    4.2182582412   -0.1463740105
 C   -0.0227211480    3.1124341701    0.9453531247
 C    1.0299741382    2.3207765824    0.0900554865
 N    0.7677385968    3.2980887457   -1.0380277925
 H   -2.1171728356    2.1023966620    0.3799769826
 H   -1.2615595023    3.4674891305   -1.9634177572
 H    0.1362144902    5.2925863861   -0.1437186897
 H   -0.0491380905    3.1800908017    2.0281412489
 H    2.0806036742    2.1621621414    0.3170182570