17

 O    0.5343106073    0.6553554425   -0.8220164576
 C   -0.0210328104   -0.2701664324    0.0520991445
 C   -0.0186009646   -0.0072805867    1.5873821874
 C   -1.4243469943   -0.6092612478    1.6371446972
 C   -1.8711126076   -1.7600062281    2.4518300073
 N   -2.4810616858   -0.4242019055    2.6079961220
 C   -1.5974030201   -0.4446168189    0.1101027662
 C   -2.2653674649    0.7889704307   -0.2676147192
 N   -2.7123413034    1.8111872099   -0.5743667883
 H    0.0462617612    1.4859641694   -0.7514473106
 H    0.4342128117   -1.2346489424   -0.1830886894
 H    0.7689856308   -0.4762683146    2.1808740581
 H   -0.0326078212    1.0694780332    1.7919696366
 H   -2.5304936879   -2.5133000042    2.0287682771
 H   -1.1951838605   -2.1250938742    3.2214510442
 H   -2.1292680552    0.0444856277    3.4392241753
 H   -2.0192908353   -1.2887662187   -0.4393149508