14

 O   -0.3754998513    0.2915307258   -0.5024166703
 C   -0.1145916696    1.3579798869   -0.0532701249
 O   -0.9416467945    2.2132629173    0.6334232476
 C    0.1244197466    3.2208035837    0.7528557175
 C    1.1024174892    2.2930492327    0.0182769072
 C    1.4775725985    2.9957919836   -1.3022958751
 N    0.5610495852    4.1240666158   -1.3436160283
 C   -0.1348717584    4.3986924547   -0.1959163085
 O   -0.8296516341    5.3636361640    0.0174048289
 H    0.2764833927    3.5109351138    1.7903819856
 H    1.9524574075    1.8828796750    0.5604269470
 H    2.5230400234    3.3272903618   -1.2852426268
 H    1.3476766189    2.3318322940   -2.1633204754
 H    0.5334756260    4.7740281708   -2.1138834846