16

 N    0.3889310036    1.1049366532   -0.8403154231
 C   -0.0666960218    0.4175532348    0.2456136763
 O    0.5232376033    0.3710299722    1.3063103377
 C   -1.4081096840   -0.2504396430    0.0458222116
 O   -1.5368458574   -1.5459221454    0.6543841528
 C   -2.2575543349   -0.4848815030    1.2207667706
 C   -2.1422628913   -0.0036235877    2.6598471710
 O   -3.5892460327    0.0884610452    2.7396257209
 C   -3.7703590133   -0.4380272578    1.4098411712
 H    1.2995055216    1.5315994417   -0.7790282497
 H   -0.0316591441    1.0082954722   -1.7481016034
 H   -1.8757483030   -0.1658277071   -0.9362408833
 H   -1.7279218613   -0.7491924388    3.3474218340
 H   -1.6496630246    0.9589596272    2.8200917433
 H   -4.3320281347    0.2458737450    0.7616846196
 H   -4.2501126854   -1.4253925985    1.4053784506