16

 C   -0.0266800055    1.5417998118    0.0978715017
 C    1.2925281879    0.8213582934   -0.0170903900
 C    0.0020139832    0.0383266683   -0.0084729529
 C    0.0638585095   -0.6733005124   -1.4031339915
 O    1.4747410212   -0.9502733842   -1.5003648992
 C    1.8815257228    0.4295981952   -1.4152743632
 C    1.0315698978    1.0542747911   -2.5192602302
 C   -0.1084896851    0.3625065650   -2.5116598824
 H   -0.2686301349    1.9513094087    1.0746817904
 H   -0.3897550076    2.1310123328   -0.7356155151
 H    1.9731585389    0.8012880951    0.8249720410
 H   -0.2862616188   -0.5696336497    0.8400617172
 H   -0.5149221254   -1.5926860474   -1.4735330171
 H    2.9635463900    0.5179322126   -1.4967695839
 H    1.2879992154    1.9356431086   -3.0908086577
 H   -1.0142035893    0.5387122111   -3.0754571971