20

 C   -0.1368713635    1.4326824001    0.1742823400
 C    0.0227571002   -0.0384869408   -0.0051192068
 N   -0.1406363788   -0.6882313391   -1.0840766443
 C    0.1093676131   -2.0991205491   -0.7672320636
 C    0.5171452282   -2.1278971857    0.7318096470
 C   -0.3888122917   -2.9676327162    1.6213500335
 C    2.0009040648   -2.4611947550    0.9246533091
 O    2.4332768841   -2.2504897349    2.2524679721
 O    0.3702696392   -0.7223471521    1.1240028749
 H    0.7988323856    1.8772854754    0.5279318654
 H   -0.4226840776    1.8878345095   -0.7732496651
 H   -0.9016725096    1.6416408781    0.9288945401
 H   -0.7924188378   -2.6916356096   -0.9600336102
 H    0.9002849521   -2.4961895667   -1.4152624475
 H   -0.3614241949   -4.0137985368    1.2990142622
 H   -0.0565850803   -2.9211510310    2.6607503262
 H   -1.4218017277   -2.6148717656    1.5581044345
 H    2.1723100794   -3.5191334131    0.6970483964
 H    2.5897508308   -1.8655506026    0.2085610849
 H    2.2074006744   -1.3374155650    2.4661841211