19

 C    0.1495707173    1.3039953820   -0.2922100450
 O    0.0566356349   -0.0620476552    0.0508255727
 C   -1.2569004711   -0.5809804888    0.1076133262
 C   -1.9388120629   -0.6606196899   -1.2609687688
 C   -1.1362855992   -1.9524337602    0.7669025777
 C   -1.1059891624   -2.0277235575    2.2557370207
 N   -2.2841086415   -2.4973198609    1.5211649798
 C   -0.3959467122   -2.9365440189    0.0011016170
 N    0.2024510977   -3.7083569039   -0.6166976544
 H    1.1943400545    1.5919180701   -0.1568145545
 H   -0.1337567078    1.4990376037   -1.3351725707
 H   -0.4786690962    1.9281955022    0.3626642162
 H   -1.8712645263    0.0421025482    0.7837285221
 H   -2.9207084325   -1.1353269624   -1.1686295534
 H   -2.0891085675    0.3339185629   -1.6877639202
 H   -1.3319396360   -1.2514990012   -1.9525037887
 H   -0.5287125952   -2.8086935302    2.7391220918
 H   -1.1484047730   -1.0819477534    2.7889959260
 H   -3.0259195905   -1.8004393067    1.5483743057