22

 C   -0.1153318298    1.5858217581   -0.0010670420
 C   -0.0482601292    0.0658810784   -0.0024791425
 C    1.1760545265   -0.6282827706   -0.6116099988
 N    2.0667482462   -0.2610003790    0.6022188400
 C    2.5019085304   -1.7167458075    0.6961879332
 C    1.0443720019   -1.9034022100    0.2810795658
 C    0.2560534949   -3.1640474795    0.0317687493
 C    0.6608240537   -0.6558513648    1.1623231781
 C    0.3567816489   -0.6001698371    2.6307977685
 H    0.8479095483    2.0152323372    0.2860574213
 H   -0.3785220010    1.9666590875   -0.9940454204
 H   -0.8766258959    1.9463766768    0.6996980483
 H   -1.0065065916   -0.3847889695   -0.2869792590
 H    1.5858405097   -0.5680016039   -1.6230486603
 H    3.2799317110   -1.9829007843   -0.0286471421
 H    2.8062139297   -2.0254818531    1.7026725008
 H    0.2151635161   -3.7862235580    0.9330222468
 H   -0.7739721984   -2.9412243097   -0.2675497717
 H    0.7131018099   -3.7621428347   -0.7645160089
 H    1.0885622874   -1.1690912750    3.2138502057
 H    0.3713407223    0.4343280352    2.9891589106
 H   -0.6356875410   -1.0170487065    2.8352254573