23

 C    0.0886080454    1.6365990021    0.0204313172
 C    0.0222103316    0.1074121852    0.0227113083
 C    0.6061352292   -0.4910179469   -1.2777784812
 C    0.7963420598   -2.0189917244   -1.1927253366
 C   -0.4615305741   -2.7298799761   -0.6654545310
 O   -0.4035348065   -2.6250313798    0.7643309745
 C    0.8482515575   -2.0210863273    1.1329004012
 C    1.7722778781   -2.3389333371   -0.0469835777
 C    0.6826988836   -0.4996810638    1.2790189965
 H    1.1273735526    1.9866960453   -0.0143004953
 H   -0.4315244380    2.0560630110   -0.8478441512
 H   -0.3729672978    2.0561406186    0.9207946213
 H   -1.0357572298   -0.1803534241    0.0641953994
 H   -0.0509269762   -0.2345129684   -2.1182241884
 H    1.5790565271   -0.0288321629   -1.4950706310
 H    1.1145129709   -2.4228665415   -2.1577938851
 H   -1.3925454919   -2.2745912608   -1.0252147881
 H   -0.4701401629   -3.7913377767   -0.9504210411
 H    1.1642156691   -2.4765832888    2.0761594780
 H    2.0581357043   -3.3955800400   -0.0451760522
 H    2.6796396190   -1.7297576372   -0.0647609528
 H    1.6708987697   -0.0516537406    1.4533142878
 H    0.0712362092   -0.2695193457    2.1587910674