18

 C   -0.2290646956    1.5231764206   -0.0494430254
 C    0.0830515534    0.0154724369    0.0019645905
 C    0.8123517332   -0.4734981575   -1.2093098230
 C    2.0595328356   -0.9724128708   -1.2760645856
 C    2.4175561405   -1.3490735081   -2.6672392359
 O    3.4822390613   -1.7439566343   -3.0810012256
 C    1.1659456181   -1.0929115943   -3.4968544101
 N    0.0122277718   -1.9240362271   -3.0383820560
 C    0.1697725816   -0.5184992555   -2.5720168793
 H    0.6915467850    2.1108120046   -0.1124148271
 H   -0.8496713290    1.7775995804   -0.9144143158
 H   -0.7700956525    1.8315248362    0.8495798451
 H    0.6715919664   -0.2080075354    0.8974374122
 H   -0.8597340767   -0.5411991339    0.0918786482
 H    2.7358396821   -1.1242521520   -0.4440779119
 H    1.2535403733   -0.8279951374   -4.5433803920
 H   -0.6699597123   -1.9416529492   -3.7979394167
 H   -0.5580808662    0.2247402268   -2.8766404215