21

 C   -0.8149257946    1.5193075479   -0.0910853212
 C   -0.3415492836    0.0787756231   -0.1731220296
 C   -1.4214320754   -1.0032756700   -0.2250347469
 N   -2.0850978387   -1.2963560517   -1.4968553897
 C   -3.1116782315   -0.4017525252   -1.9972767179
 C   -2.6494677502    0.7097891773   -2.8559731908
 N   -2.2666934730    1.5396371790   -3.5647570929
 C    0.9464167856   -0.2103123235   -0.9090368097
 C    0.9133677204   -0.2695751739    0.5982563033
 H    0.0343778385    2.2005421033    0.0216400297
 H   -1.3584816764    1.8325537714   -0.9861752843
 H   -1.4697975294    1.6650529062    0.7769124321
 H   -0.9732170506   -1.9497474268    0.1004843161
 H   -2.2075814103   -0.7715192786    0.5055498702
 H   -1.4139775985   -1.5252397261   -2.2199390990
 H   -3.8398829231   -0.9704537520   -2.5912334271
 H   -3.6648997963    0.0175449985   -1.1503131927
 H    1.0363618061   -1.1484056049   -1.4490073520
 H    1.4594827835    0.6185981943   -1.3841736597
 H    1.4027888303    0.5234956478    1.1534081307
 H    0.9783186672   -1.2443044461    1.0713000614