16

 O   -0.9204538478    0.5720527643    0.4995350405
 C   -0.4053757905    1.6558430934    0.6111812960
 C    1.0611089918    1.8821134879    0.5567527277
 C    1.5429595251    3.1118881420   -0.2247712052
 C    1.7045665489    3.0839197792    1.2430738246
 O    0.9285564669    3.9957444711    1.9671567292
 C    0.9465733635    3.8018555340    3.3630278105
 C    0.2308810158    2.5936559969    3.8128446496
 N   -0.3283667927    1.6509488680    4.1774725381
 H   -1.0125139493    2.5784574677    0.7385415006
 H    1.6504665313    0.9744351343    0.4896417128
 H    2.4136209137    3.0050158857   -0.8600175540
 H    0.7671565595    3.7653731944   -0.6106832104
 H    2.6988109307    2.9225729951    1.6592259862
 H    1.9767624933    3.7553742067    3.7464153670
 H    0.4641176198    4.6790366392    3.8031306568