15

 C    0.0996939890    1.4128694482   -0.3744041490
 C    1.2409711251    2.1585399481    0.2615375559
 C    2.1559229617    1.6032117565    1.0521715054
 C    2.1854940474    0.1468963183    1.4279797497
 C    0.9471194934   -0.6138785516    1.0116718661
 O   -0.2960586520   -0.1444565419    1.5424104949
 C   -0.0641483015   -0.0000920197    0.1378071488
 H   -0.8410918495    1.9609709060   -0.2234971849
 H    0.2412632597    1.3734160584   -1.4648502767
 H    1.3016120169    3.2206532586    0.0377348891
 H    2.9516587431    2.2191600542    1.4635854824
 H    3.0615513459   -0.3383568330    0.9722108901
 H    2.3255781636    0.0389677464    2.5128728629
 H    1.0436993071   -1.7004577864    1.0106606932
 H   -0.6816721400   -0.6532457921   -0.4802845179