19

 C   -0.2633562140    1.5152039876   -0.0431173505
 N    0.0284813821    0.0917132541    0.0048885191
 C    1.1683827381   -0.4463236324   -0.7750901997
 C    2.4701868492    0.2708755220   -0.3370044312
 C    3.5002781763   -0.8749884670   -0.2502452223
 N    2.6942428722   -1.4212719340    0.8943759534
 C    2.2071241343    0.0003262691    1.1862883567
 C    0.7001356229   -0.4619222947    1.1823168315
 C    1.3171027633   -1.5858997472    0.3236022174
 H    0.5929178862    2.1620571414    0.2117366647
 H   -0.6045280484    1.7820834279   -1.0487457484
 H   -1.0755329942    1.7397224364    0.6564058077
 H    1.0079283808   -0.6318832607   -1.8375083426
 H    2.6965385514    1.2488136249   -0.7623643991
 H    3.6132381970   -1.5464677454   -1.1094752506
 H    4.4869729932   -0.5632419114    0.1040862136
 H    2.7066961183    0.5703966010    1.9676295764
 H    0.1497089278   -0.5706103704    2.1158169486
 H    0.9118080336   -2.5813093112    0.1616433654