16

 O   -0.1079723341    1.4465320487   -0.1552882785
 C    0.0454015409    0.0349571980   -0.1101046618
 C   -1.3433522415   -0.5477183472    0.0645503239
 C   -2.2514067434   -0.4660778658   -1.1769239965
 O   -2.2030238446   -1.9000599317   -1.3663214927
 C   -1.4862545019   -2.0887415416   -0.1220497150
 C   -0.2853560573   -2.8985837251   -0.2533956329
 C    0.7040358128   -3.5756941571   -0.3441881943
 H    0.7525237969    1.8374495590   -0.3319725136
 H    0.4969790377   -0.3526891465   -1.0355831656
 H    0.6907558132   -0.2778921395    0.7250427769
 H   -1.7859918730   -0.1679601037    0.9873178808
 H   -3.2732034997   -0.1159409744   -0.9885724634
 H   -1.8363680111    0.0771853804   -2.0325438811
 H   -2.1427839320   -2.5418612089    0.6339639598
 H    1.5750201471   -4.1775337547   -0.4306659861