21

 C    0.0989166188    1.4440626721    0.2347501536
 C    0.1149491039   -0.0587803312   -0.0322431095
 C    0.7695047949   -0.4389497052   -1.3554422264
 O    1.3471055831    0.3739786960   -2.0411388518
 C    0.6356199156   -1.9014213712   -1.7685012332
 C    1.5340250112   -2.2852688978   -2.9190680764
 C    2.9338586267   -2.8047234838   -2.6551688376
 C    1.8594428272   -3.7261751853   -3.1783818932
 O    1.2794166282   -4.6663041161   -2.3164838633
 H    1.1123817285    1.8516199001    0.2134426432
 H   -0.4775339132    1.9712892454   -0.5303043889
 H   -0.3447082162    1.6605864624    1.2106254082
 H    0.6591184725   -0.5926412862    0.7604346264
 H   -0.8977044991   -0.4836407537   -0.0124519904
 H    0.8018419118   -2.5505763052   -0.9025860120
 H   -0.4209488343   -2.0578588898   -2.0358100538
 H    1.4233236028   -1.6535487377   -3.7937207446
 H    3.7407518683   -2.5017321131   -3.3130068133
 H    3.2199246241   -2.9402494732   -1.6166320355
 H    1.9252124717   -4.0470461178   -4.2180282175
 H    1.9247452137   -5.3640908686   -2.1635721737