21

 C    0.4366868043    1.0577438755    0.2476985963
 C    0.2033675824   -0.4235085191   -0.0769263977
 C   -1.2594673420   -0.8454843309    0.0394957244
 C   -2.1338854267   -0.0853898488   -0.8407740627
 N   -2.8058659290    0.5110250890   -1.5689739720
 C   -1.6706428482   -2.2710881903    0.3373523416
 C   -0.6733141042   -3.3943204075    0.5230479493
 N   -1.9081727247   -1.2152035968    1.3112946026
 C   -1.1724023889   -1.1601222611    2.5661306692
 H    1.4912272189    1.3158459313    0.1154471992
 H   -0.1542391957    1.7027195736   -0.4088761539
 H    0.1603686850    1.2889015540    1.2809229149
 H    0.5298279074   -0.6309367993   -1.1029051095
 H    0.8217476736   -1.0461312883    0.5723369870
 H   -2.5922050250   -2.6030117769   -0.1401427510
 H    0.2696504096   -3.0785913153    0.9703666697
 H   -1.1045454165   -4.1701486812    1.1646849364
 H   -0.4493891646   -3.8552162654   -0.4442259914
 H   -0.1088075441   -1.4282879618    2.5135304089
 H   -1.2497064233   -0.1475795876    2.9725957506
 H   -1.6569280387   -1.8415087729    3.2721605980