20

 O   -0.9718855643    0.8389920249   -0.9415916269
 C   -0.4147697309    0.0428167199    0.1021586640
 C   -1.4194482236   -1.0593569155    0.4338070511
 C   -1.5147433746   -2.1563283729   -0.6178909857
 C   -0.4195275477   -3.2242354140   -0.5660729493
 C   -0.4308450110   -4.0090255232    0.6642855948
 C   -0.4518089662   -4.6413974024    1.6867590290
 C   -2.8521856128   -2.5373680847   -1.1397139673
 N   -1.9036635168   -1.7997126046   -1.9913752088
 H   -0.2836908552    1.4099067351   -1.2945627038
 H    0.5493473400   -0.3897972287   -0.2042092747
 H   -0.2299817663    0.6547403975    0.9980989235
 H   -1.1527135965   -1.5105349926    1.3959248824
 H   -2.3960446239   -0.5799852172    0.5652950034
 H   -0.5430013373   -3.8793105789   -1.4349572595
 H    0.5631779683   -2.7482947733   -0.6868154898
 H   -0.4675640148   -5.2107151807    2.5827610370
 H   -3.0443821576   -3.5618146264   -1.4483697197
 H   -3.7204540448   -2.0166973315   -0.7436605317
 H   -2.1301199939   -0.8091893208   -2.0231542579