20

 C    0.0088345054    1.5325224933   -0.0282377136
 C   -0.0103746623    0.0240493570   -0.0770964687
 C    0.6951672496   -0.7357986123   -1.1471260799
 N    1.2555646033   -0.6545164035    0.2212640927
 C    1.0976164425   -1.9947531171    0.8285667484
 C    0.1264357390   -2.8209649315   -0.0525169257
 C    0.2383853710   -2.1412061681   -1.4132237513
 C   -0.4601635987   -2.5711167080   -2.6268307851
 O    0.9352829530   -2.8391518204   -2.4552631255
 H    0.9494509559    1.9165592116   -0.4315154866
 H   -0.8184112697    1.9535553031   -0.6098111228
 H   -0.0855408656    1.8885197420    1.0032461349
 H   -0.9205887384   -0.4304590276    0.3151317966
 H    1.2268013500   -0.2225450347   -1.9434838357
 H    2.0882990546   -2.4598038605    0.8418412680
 H    0.7600247738   -1.8980158557    1.8647581156
 H    0.4055192058   -3.8739661638   -0.1220414307
 H   -0.9016431979   -2.7724668017    0.3196093662
 H   -1.1129043985   -3.4432244510   -2.5943971409
 H   -0.7054801428   -1.8424690112   -3.3991423761