17

 C   -0.0373983048    1.5291852937   -0.0298760107
 C    0.0336184357    0.0207517526    0.0656344354
 O    0.1311535452   -0.5611801787    1.1178643842
 C    0.0283649979   -0.7579159829   -1.2686866694
 C    1.4962423735   -0.9590977167   -1.7986276112
 O    1.4661261967   -2.3541749585   -1.4936622417
 C    0.0835689417   -2.3001429843   -1.0901242922
 C   -0.9268055724   -0.2390067881   -2.2247954580
 C   -1.7241330713    0.1799130144   -3.0220573111
 H    0.6636991347    1.9093406028   -0.7802698324
 H   -1.0380074032    1.8262006042   -0.3597124985
 H    0.1755319414    1.9674582673    0.9453284102
 H    1.6022417714   -0.7570083298   -2.8706882513
 H    2.2762222123   -0.4246152039   -1.2421750979
 H   -0.0590965854   -2.6277625205   -0.0576023559
 H   -0.5694167852   -2.8523681480   -1.7734376069
 H   -2.4282149281    0.5471770865   -3.7275358926