15

 O   -0.1242263047    1.3121563957    0.0085303462
 N    0.0032472284   -0.0832752649    0.0039425576
 C   -1.1385997456   -0.6616717076    0.0114312298
 C   -1.2669815639   -2.1752808575    0.0085616413
 C   -2.7727054419   -2.3757123678    0.0197259600
 C   -3.4122556601   -1.0625968404    0.0281748908
 C   -2.4806901663   -0.0854621632    0.0234442629
 N   -3.2959684081   -3.5438767534    0.0206910492
 O   -4.6958553961   -3.4830982086    0.0317490451
 H    0.7945216393    1.6005164412    0.0020454918
 H   -0.8045582197   -2.6204270462   -0.8770360412
 H   -0.7909617413   -2.6248602633    0.8846723666
 H   -4.4845562251   -0.9311516452    0.0369003227
 H   -2.6631249646    0.9793770094    0.0276517783
 H   -4.9400618804   -4.4145779882    0.0311763990