16

 N   -0.1653733641    1.3483028698    0.2551762061
 C   -0.0362783397   -0.0483390508    0.0522950693
 C   -1.1030945451   -0.8683417603   -0.2039848069
 O   -2.4221744166   -0.6175777825   -0.3139109371
 N   -0.6002822577   -2.1323800187   -0.3370834053
 C    0.7626025795   -2.0361017408   -0.1438929241
 C    1.6450453521   -3.2376980987   -0.2385326061
 O    1.0792076436   -4.3754398807    0.4094896395
 N    1.1248988019   -0.7977275544    0.0933153969
 H    0.3672218503    1.8694757827   -0.4362412914
 H    0.2038056193    1.6205018929    1.1622783124
 H   -2.5115721383    0.3348005254   -0.1647093447
 H   -1.1220515722   -2.9813377075   -0.4795691859
 H    1.7802740362   -3.5515087371   -1.2809236051
 H    2.6326421085   -2.9667018957    0.1554012374
 H    0.9946626022   -4.1597631737    1.3447535350