18

 C   -1.4999087238   -0.3413762609    0.0142966062
 N   -0.0647129059   -0.0506737713    0.0109628063
 C    0.6527243150   -0.5429926275   -1.1413359448
 C    0.1694067914    0.0542299425   -2.4029854691
 N   -0.2694336103    0.5774686571   -3.3378605119
 C    2.2131082869   -0.7156137172   -1.0509683081
 C    1.9908424627   -1.8759711210   -0.0497249928
 C    1.0071038172   -2.0752016085   -1.2291405347
 N    2.1711571343   -1.7609657986   -2.1460899585
 H   -2.0365731027    0.0460214205   -0.8652325358
 H   -1.6500488360   -1.4248764662    0.0558828123
 H   -1.9455639755    0.0917961168    0.9130587221
 H    0.0881339178    0.9482083214    0.1067011165
 H    2.9570772314    0.0818471472   -1.0350810009
 H    2.8024919259   -2.6008472655   -0.0160231892
 H    1.5671907958   -1.6243738877    0.9183596539
 H    0.3193542595   -2.8977028050   -1.4270918314
 H    1.8327328663   -1.3458094859   -3.0205093502