20

 C   -0.0948840410    1.4699084401    0.1797083519
 C    0.0577735917   -0.0134494184   -0.1101256141
 O    1.1406776793   -0.4985435405   -0.3737854346
 C   -1.1956319589   -0.8177675631   -0.0496245554
 C   -1.2529177343   -2.1510626265   -0.7790004704
 C   -1.2617528002   -2.1595523634    0.7140137013
 C   -0.0442905986   -2.6676931957    1.4608764190
 C   -2.5806483538   -2.4401596727    1.4112791333
 H    0.8790518600    1.9588031614    0.1411318727
 H   -0.7671435830    1.9305824500   -0.5535570873
 H   -0.5498211351    1.6217627674    1.1652615761
 H   -2.1095337932   -0.2332896959   -0.0115288010
 H   -2.1663637127   -2.3869624204   -1.3149204303
 H   -0.3323312946   -2.4321247887   -1.2796300904
 H    0.8811585200   -2.4063184400    0.9472912756
 H   -0.0049670135   -2.2534504587    2.4752424659
 H   -0.0955186124   -3.7587913181    1.5537571166
 H   -2.7189615219   -3.5191386870    1.5479788380
 H   -2.6108952211   -1.9751570849    2.4032464417
 H   -3.4322933368   -2.0648595548    0.8355532016