17

 C   -0.1082008574    1.5871964998   -0.0200580252
 C   -0.1093195506    0.0579198785   -0.0631077780
 C    0.8123475934   -0.5022382198   -1.1653828948
 C    0.8514105287   -1.9950462954   -1.2168560119
 C    1.8042904226   -2.9250216219   -0.8653447833
 N    1.3208793539   -4.1788915512   -1.0920025004
 N    0.1140319532   -4.0886726659   -1.5674809940
 N   -0.1768068691   -2.7727505507   -1.6443626066
 H    0.8972951091    1.9765815534    0.1734480326
 H   -0.4500822452    2.0126119956   -0.9701663701
 H   -0.7675388550    1.9605896712    0.7688663704
 H    0.2097698398   -0.3472896273    0.9039881331
 H   -1.1315167073   -0.3078444557   -0.2227965643
 H    0.4985753990   -0.1010481597   -2.1385108095
 H    1.8332546555   -0.1407725585   -1.0027155665
 H    2.7950458598   -2.7617689177   -0.4722651605
 H   -1.0767904904   -2.4907359048   -1.9991676409