20

 C   -0.9809669234    1.1231523030   -0.0402871060
 C    0.0429849518    0.0045715166    0.0660824410
 C    1.3010929468    0.0626838436   -0.8573537818
 C    2.1492419893   -0.3207501650    0.3593297229
 C    3.0935385416   -1.4713951902    0.4432936413
 C    3.6241874146   -0.0478012960    0.5933105368
 C    4.4029992039    0.5371656031   -0.4594776108
 N    5.0114228640    1.0189657434   -1.3184314834
 C    0.9866502046   -0.0172527126    1.3103032045
 H   -0.5040425212    2.1040036032    0.0670476288
 H   -1.4895259678    1.1043121763   -1.0104411041
 H   -1.7463597719    1.0366684889    0.7389300684
 H   -0.4510790987   -0.9664091648   -0.0405086821
 H    1.3265455682   -0.6147264899   -1.7143316546
 H    1.5134103832    1.0776804328   -1.2091600780
 H    3.1007530186   -2.0821780957    1.3401988207
 H    3.3458958878   -1.9979149684   -0.4708384656
 H    3.9139384717    0.2650983521    1.5916315018
 H    1.0737768541    0.9700925479    1.7763710848
 H    0.7753960128   -0.7557147583    2.0884805353