19

 O   -0.1379469117    1.4818777008    0.3584295292
 C    0.0040427569    0.1063949279    0.0862316605
 C   -1.3499626247   -0.5807470911   -0.1183608603
 O   -2.1319257707   -0.3664656280    1.0721819562
 C   -3.4276752847    0.0810630489    0.7132484790
 C   -4.6129369180   -0.5208150495    1.4282805354
 C   -4.1794367312    0.9036904329    1.7208835158
 C   -3.3893028771    0.3426564987   -0.7418101512
 C   -2.2084274351   -0.0265120050   -1.2265273740
 H   -0.7992830994    1.5387014260    1.0590754542
 H    0.6052247932    0.0113007191   -0.8249594144
 H    0.5390535878   -0.4155645521    0.8958994087
 H   -1.1718293896   -1.6618912581   -0.2535091153
 H   -5.5289202454   -0.6871895631    0.8713353267
 H   -4.3893208911   -1.2706033515    2.1787072915
 H   -3.6779701908    1.0834063247    2.6657457462
 H   -4.7937198499    1.7250337636    1.3673950026
 H   -4.2259371665    0.7585914990   -1.2876558147
 H   -1.8772676720    0.0272402969   -2.2551535360