14

 O    2.4830852998    0.0916838639   -0.0431162692
 C    2.2783912650    1.2268921742    0.2467225095
 O    1.2715188587    1.9464543766   -0.3302222472
 C    1.1648585840    3.2921321830   -0.0489603594
 C   -0.0962322005    3.7977790488    0.2444922677
 C   -0.2072334528    5.1624025825    0.4868271663
 N    0.8231413960    6.0139099639    0.4614208661
 C    2.0209713970    5.5041158464    0.1716663980
 C    2.2535850454    4.1568512064   -0.0999772083
 H    2.8349937490    1.8099351803    0.9998594523
 H   -0.9552047146    3.1391544734    0.2799348222
 H   -1.1787494306    5.5920801512    0.7173685268
 H    2.8495330115    6.2074626273    0.1440823480
 H    3.2438642522    3.8071946721   -0.3662921429