15

 N    0.8423327854   -0.3789492742    1.2719623942
 C    0.3611102661    0.4104569308    0.5780228557
 C   -0.2558027604    1.4328444797   -0.2931846682
 C   -1.3448006923    2.1870468071    0.4635026422
 C   -1.0707342620    3.1012749533    1.3885316624
 C    0.3455985175    3.4425952354    1.7632080823
 O    1.1068286092    3.9985129476    0.6709631976
 C    1.2718888001    3.3085038280   -0.4723527160
 N    0.7787244443    2.2407590445   -0.9424432853
 H   -0.7391968789    0.8765444349   -1.1043507996
 H   -2.3700364241    1.9452323596    0.2014871398
 H   -1.8737640669    3.6279603905    1.8945805995
 H    0.3809797062    4.2175114564    2.5295773733
 H    0.8755008789    2.5615156435    2.1458606928
 H    1.9930617768    3.8457840829   -1.0890275008