20

 C   -0.9206435042    1.1066634784   -0.3843755783
 C    0.0957271157    0.0490163760    0.0009458168
 O    0.5958067427   -0.5400156505   -1.2153181095
 C    1.5188035130   -1.5134534423   -1.0636726360
 O    1.9314308469   -1.8763139526    0.0102059993
 C    1.9277594198   -2.0873354930   -2.4124304200
 C    3.2544398557   -2.8413393585   -2.3017651099
 C    0.7940439956   -2.9854700695   -2.9472759775
 H   -0.4617105811    1.8819467882   -1.0044236714
 H   -1.7504827332    0.6658670750   -0.9441052502
 H   -1.3247636834    1.5794647512    0.5157081657
 H    0.9356995998    0.4719652143    0.5610923026
 H   -0.3453943641   -0.7374436930    0.6216868940
 H    2.0346578236   -1.2392456770   -3.0987707941
 H    4.0586738259   -2.1856002860   -1.9571044191
 H    3.1712670425   -3.6633769205   -1.5859927810
 H    3.5388747847   -3.2528132262   -3.2749372768
 H   -0.1433238521   -2.4300414959   -3.0312065822
 H    1.0552291719   -3.3734774808   -3.9363144755
 H    0.6308060003   -3.8402381774   -2.2822638169