19

 O   -0.2216880811    1.3816070425    0.0459321428
 C   -0.0769092299   -0.0164603059    0.0359207001
 C    1.0424253525   -0.4911893389   -0.7386303871
 C    2.0009630527   -0.8639792117   -1.3633359567
 C   -0.4700464038   -0.8488439429    1.2556821874
 C   -1.2231030390   -0.1550583129    2.3833881434
 C   -2.4289724114    0.5614528494    1.7232795147
 C   -2.6592711012   -0.1493978125    0.3659876904
 C   -1.3463353627   -0.8410164244    0.0202803148
 H    0.5849007840    1.7545850577    0.4189564414
 H    2.8374718969   -1.1944354379   -1.9276801372
 H    0.1667411143   -1.6932405710    1.4947034554
 H   -1.5606821121   -0.9232029223    3.0886865325
 H   -0.5954988583    0.5404360998    2.9509701310
 H   -3.3191299313    0.5261583898    2.3574626079
 H   -2.1862003883    1.6095448140    1.5501523421
 H   -3.4326727286   -0.9212175446    0.4533306642
 H   -2.9868595069    0.5483832345   -0.4102850544
 H   -1.3686079357   -1.6809181227   -0.6645374627