21

 C    0.3457805580    1.3784619050   -0.2390934706
 O    0.3834892411   -0.0253582168   -0.1678706874
 C    0.3762935467   -0.5057607574    1.1616583355
 C    0.3826205000   -2.0086043909    1.1430143483
 C    1.6793561432   -2.7668553293    0.8813686266
 C    1.0483918256   -2.7894714484    2.2328430260
 C    1.5970526542   -2.3524256937    3.5894123902
 C    0.9471547985   -3.6607902101    4.0893948222
 O    0.4534345281   -3.9735246791    2.7664726348
 H    1.2174362576    1.8387749717    0.2546000680
 H    0.3549352642    1.6540127130   -1.2965248088
 H   -0.5643348009    1.7901919832    0.2269030723
 H    1.2589598541   -0.1264485585    1.7072392717
 H   -0.5144088574   -0.1296045125    1.6950566555
 H   -0.5152558251   -2.4659235263    0.7367535706
 H    1.6184449468   -3.6719248391    0.2870065697
 H    2.5882549897   -2.1886098966    0.7429372119
 H    2.6851967486   -2.3085674710    3.6631055791
 H    1.1691753251   -1.4353101784    3.9992985583
 H    1.6420205461   -4.4258218545    4.4541129479
 H    0.1298937557   -3.5439814503    4.8099822881