17

 C   -0.0202447746   -1.2020840446    0.0279470935
 C   -0.0153751556    0.0010347877    0.0177056144
 C   -0.0220290068    1.4368243416    0.0093022023
 C   -0.3678196493    2.1839787773   -1.3071610478
 O    0.8157284027    3.0121345301   -1.1969020976
 C    1.2684712370    2.3049536310   -0.0207034400
 C    0.9152048708    2.9301116293    1.3431852872
 C   -0.4117071309    3.6257306559    1.2697993653
 C   -0.3946854659    2.1271783545    1.3570096834
 H   -0.0196774555   -2.2639042623    0.0319481811
 H   -0.3241227452    1.5408804104   -2.1926412988
 H   -1.2934798887    2.7696719358   -1.3170088233
 H    2.2675844765    1.8793372355   -0.1298266539
 H    1.6242025393    3.1050226996    2.1426525031
 H   -0.7180659466    4.1196005136    2.1862182328
 H   -0.6979088167    4.1483596185    0.3642983092
 H   -0.8568031103    1.5900996862    2.1752131390