21

 C   -0.0167317569    1.4792162262    0.0116239764
 C    1.2926000508    0.7089831080   -0.0118644208
 C   -0.0131787185   -0.0162236594    0.0102700611
 C   -0.5245177555   -0.9273830468    1.1244336792
 C   -2.0380633773   -0.9822169103    0.7980130581
 C   -2.0515151686   -0.9794404147   -0.7684487303
 C   -0.5467649893   -0.9099705137   -1.0960226583
 O    0.0327853290   -2.1886172916   -0.7818286269
 C    0.1076082137   -2.2506759293    0.6571117738
 H   -0.2876892623    1.9955084556    0.9273748519
 H   -0.3163908129    1.9988296380   -0.8934155213
 H    1.8681516264    0.7094561415   -0.9319497428
 H    1.8978597730    0.7119131120    0.8894043311
 H   -0.2762193273   -0.6474846994    2.1493894218
 H   -2.5175197377   -1.8687121289    1.2229742077
 H   -2.5509737352   -0.1043834398    1.2003704115
 H   -2.4931184317   -1.8839220813   -1.1926861097
 H   -2.5904068391   -0.1154157635   -1.1690436089
 H   -0.2887157638   -0.6578730662   -2.1257103429
 H    1.1582019402   -2.3394479025    0.9639919795
 H   -0.4363775667   -3.1330563837    1.0169316001