18

 N   -0.2252172738    1.6999320262    0.1906309346
 H    0.7015977233    1.2218355080    0.2314971098
 H   -0.0828386954    2.7105947391    0.1955591652
 H   -0.7363486618    1.4384346578   -0.6516731838
 C   -0.9026476115    1.1971856063    1.4574261172
 C   -1.4145301202   -0.2538964443    1.3865238379
 C   -0.7129929830   -0.4851143744    2.7627569934
 C    0.1663956899    0.7554652441    2.4920062175
 O    1.3839060540    0.5026420572    1.7540264300
 C   -1.7018124525   -0.1468937652    3.9616905562
 O   -2.3231265370    0.9283645652    3.7616410686
 O   -1.7084108495   -0.9449524842    4.8976607936
 H   -1.6285360951    1.9069620180    1.8376677852
 H   -2.4974807949   -0.3684366932    1.3672587446
 H   -0.9579656004   -0.8146837191    0.5607865430
 H   -0.1879053278   -1.4312998733    2.9173205281
 H    0.3792037219    1.4309746595    3.3211939951
 H    1.6662497739   -0.3976322578    1.9442221939