14

 O   -0.0078705359   -0.0810904742    0.0223355364
 C   -0.0267144047    1.1210703857    0.0272514183
 N   -1.0983155696    1.9761841765    0.0546559169
 C   -0.7625265016    3.3995447871    0.0521990177
 C    0.7376982988    3.3246783499    0.0180978677
 C    1.9100372058    4.0224941848   -0.0068648779
 N    2.9782493432    3.1385106336   -0.0346285626
 C    2.4631712219    1.9318871278   -0.0269438291
 N    1.0971612620    1.9943374296    0.0050926229
 H   -2.0358847741    1.6141499230    0.0744568748
 H   -1.1824564229    3.9102586149   -0.8235276784
 H   -1.1426369472    3.9038744700    0.9495531329
 H    2.0687369872    5.0894043962   -0.0066260445
 H    3.0006038371    0.9974185149   -0.0426962351