18

 C    0.2013605368    1.4427815390    0.0356504048
 C   -0.0134713754   -0.0345749776   -0.0370475146
 C   -0.1698092006   -0.7961716483   -1.1244225752
 C   -0.3336693544   -2.2671919064   -0.8199466049
 C   -0.1258744879   -2.3350934026    0.6959089186
 O    1.2752321007   -2.5699757585    1.0766550267
 C    1.3809415449   -1.3143839846    1.6415684956
 N    2.3260524048   -0.7689557824    2.2583546313
 C   -0.0131777636   -0.8814828489    1.2185433483
 H    1.1481617155    1.6672001305    0.5410999406
 H    0.2202000430    1.8963656334   -0.9586831346
 H   -0.5895703559    1.9297040531    0.6201468924
 H   -0.1719286554   -0.4128957554   -2.1395424878
 H   -1.3241599682   -2.6431972319   -1.1079480641
 H    0.4036544295   -2.8978433526   -1.3316662800
 H   -0.7716122883   -3.0352443281    1.2273755745
 H    3.1336846149   -1.3906406914    2.3296299694
 H   -0.6672032104   -0.5279835375    2.0183550491