14

 N   -0.3177813387    0.4242715819    1.9502682532
 C   -0.0794545821   -0.2192474923    0.8083440662
 N    1.1487996888   -0.7185545271    0.5521225967
 H    1.7817014426   -0.8870687666    1.3157387610
 H    1.2761235107   -1.2962751685   -0.2630599596
 N   -1.0645053456   -0.3512904635   -0.0712909691
 C   -2.3572503586    0.2483256418    0.1388029993
 C   -3.3563157860   -0.5905024854    0.6613913534
 N   -4.1472992520   -1.3071385471    1.1295670171
 C   -2.6222698661    1.4249751142   -0.5817729098
 N   -2.7895381650    2.4184757717   -1.1675477740
 H    0.4334395140    0.7796971334    2.5157815806
 H   -1.2462963151    0.8440998697    1.9906154544
 H   -0.8745637170   -0.9160837021   -0.8936345994