25

 C    0.0590381993    1.4967969308   -0.2282683109
 C    0.1001130560   -0.0073524033   -0.0810583630
 C    1.4173727678   -0.7489802362   -0.1446221415
 C    0.6632963124   -0.6655725481    1.1514271949
 C    1.0774188765    0.0291054476    2.4550316871
 C    0.1583394340   -0.9681419720    3.2419285321
 C    0.8190309132   -1.6853428670    4.4148542733
 C   -1.1620406099   -0.3217065494    3.6633329145
 C    0.0094515903   -1.8128506436    1.9297374765
 H    0.9368434252    1.9645257891    0.2293973474
 H    0.0433955027    1.7895809172   -1.2840782939
 H   -0.8303275155    1.9255505458    0.2485121803
 H   -0.7473517752   -0.5243556072   -0.5278866849
 H    1.4546649946   -1.7052508707   -0.6579777388
 H    2.3229901018   -0.1561827578   -0.2435199609
 H    2.1392065931   -0.0973525441    2.6919445814
 H    0.8258731196    1.0897419272    2.5556978035
 H    1.0330082374   -0.9892050553    5.2347605236
 H    0.1701598417   -2.4752635137    4.8118347207
 H    1.7649103771   -2.1494832011    4.1157496860
 H   -1.6378077279    0.1945334842    2.8226061523
 H   -1.8674449940   -1.0737732560    4.0358268161
 H   -1.0037029729    0.4138083074    4.4607727921
 H   -1.0127950682   -2.0834639256    1.6448731149
 H    0.6175962808   -2.7239644881    1.9445576376