14

 C    0.0624757832    1.4351586577    0.0932726481
 N    0.1141914881   -0.0122914201    0.0556279412
 C    0.5186949157   -0.6114852412   -0.9947696420
 C    0.5747520489   -2.0707083296   -1.0425387146
 C    0.9998524992   -2.6874576399   -2.1464435115
 O    1.3956553226   -1.9963468112   -3.2641856777
 C    1.3250935677   -0.6413598064   -3.1703192824
 N    0.9407751878    0.0500761549   -2.1817848354
 H    0.6830743932    1.7889437386    0.9260049564
 H    0.3880372356    1.9270372622   -0.8291958561
 H   -0.9646652214    1.7457020391    0.3217669220
 H    0.2675598878   -2.6365562153   -0.1728879589
 H    1.0820119196   -3.7559619260   -2.2922985681
 H    1.6573394519   -0.1867760430   -4.1000425208