15

 C   -0.1837535106    1.3626851707   -0.2873419520
 C    1.2299121552    1.0812168992    0.1693062756
 C    0.2199835425   -0.0312513296    0.1068574375
 N   -0.2873452915   -0.6352355157    1.3052495454
 C   -0.5710013079   -0.0974135706    2.5156491465
 C   -1.0239416920   -1.1611774815    3.2598535651
 N   -0.9962161041   -2.2780965779    2.4862916948
 N   -0.5504929264   -1.9606047668    1.3033196019
 H   -0.8348154759    1.9058605985    0.3885515066
 H   -0.3690466657    1.5551078696   -1.3378626940
 H    2.0288058281    1.0776735767   -0.5632988929
 H    1.5244629818    1.4361215080    1.1506507295
 H    0.3171577469   -0.7878554061   -0.6603315921
 H   -0.4357665422    0.9464579840    2.7411574261
 H   -1.3597644780   -1.1846429986    4.2838187020