20

 C   -0.2142335539    1.4398282823    0.0865980703
 C    0.0809435939   -0.0602579447   -0.1231314143
 C    0.8269162782   -0.2769292086   -1.3648520329
 C    1.4573724941   -0.4376932875   -2.3761738751
 C    0.8301977023   -0.6429226647    1.0718172255
 C    0.0830276480   -1.0901585334    2.3061909397
 C    0.7900825247   -2.1071757679    1.4398473566
 C    0.0155313356   -3.1382379253    0.6470877571
 H    0.7177127632    2.0040650379    0.1879044935
 H   -0.7688638497    1.8516864806   -0.7606179805
 H   -0.8038659698    1.5819423721    0.9969165966
 H   -0.8823377025   -0.5780033930   -0.2147809581
 H    2.0065434351   -0.5885725111   -3.2722266252
 H    1.7827073750   -0.1478971152    1.2446243208
 H    0.4873542972   -0.8467053415    3.2827128706
 H   -1.0028604248   -1.0756037263    2.2632498711
 H    1.7244826706   -2.4885123000    1.8442754424
 H   -0.9536174238   -2.7571978357    0.3118777200
 H    0.5709064344   -3.4569248762   -0.2412634041
 H   -0.1803812876   -4.0259516919    1.2584583362