19

 O   -0.7161276808    1.0789924981    0.2904742838
 C   -0.3153990540   -0.2508019991   -0.0461460125
 C    0.6833428981   -0.2828060529   -1.1801254635
 C    0.6536445704   -1.4051740280   -2.1894147107
 C    0.2284555655   -0.0178211380   -2.5933396269
 C    0.2032428443   -0.9925325668    1.1798858426
 C    0.9898222700   -0.2887744942    2.2209731644
 N   -0.3914402093   -0.7309822697    2.4939654179
 H    0.0366529402    1.6611675278    0.1477387959
 H   -1.2384376956   -0.7466847655   -0.3780055005
 H    1.6708484674    0.0843552374   -0.9058741658
 H    1.5994536635   -1.7862883232   -2.5572037117
 H   -0.1171642799   -2.1613944976   -2.0828602871
 H   -0.8291875430    0.1649781157   -2.7503364340
 H    0.8807769716    0.5519610199   -3.2454159490
 H    0.4192383843   -2.0424111319    0.9904086678
 H    1.7637004095   -0.8161669306    2.7712004356
 H    1.1655007456    0.7770493374    2.1002647270
 H   -0.9991698276    0.0816276012    2.3948531965