19

 N   -0.0275083188    1.3248870249   -0.0613448292
 C   -0.0536760201   -0.0524701689   -0.2662848229
 O    0.7335588939   -0.6195059583   -1.0010598692
 N   -1.0287704965   -0.7005714041    0.4587233203
 C   -1.1131660915   -2.1494205073    0.4858788659
 C   -2.5089335755   -2.6587770580    0.1144383508
 C   -2.5859532587   -4.1977754332    0.1561046358
 C   -3.9128312137   -4.7083454666   -0.1644313562
 C   -5.0165296770   -5.1034102537   -0.4299970449
 H    0.5320274034    1.7973259021   -0.7555495713
 H   -0.9073813897    1.7829239878    0.1261167238
 H   -1.4758298647   -0.1930075398    1.2051585086
 H   -0.3655797300   -2.5077325060   -0.2262324387
 H   -0.8285904369   -2.5311625231    1.4773938301
 H   -3.2570440076   -2.2453125431    0.8016592770
 H   -2.7712834358   -2.3032601123   -0.8871034472
 H   -1.8522778037   -4.6184871339   -0.5440692927
 H   -2.2899689115   -4.5531150555    1.1524461795
 H   -5.9865371256   -5.4650656210   -0.6652102796