25

 C    2.0603334468    1.6194914107   -0.8557407621
 C    2.0640678312    0.0882054898   -0.8536546212
 C    0.7669692554   -0.5029216281   -1.4251358599
 C    0.7428783410   -2.0254539361   -1.4812086779
 C    0.8209769082   -2.7698753532   -0.1526919901
 C   -0.3763338129   -2.5234781822    0.7733697754
 C   -0.1085375762   -2.6640453305   -2.5705621082
 C    1.3985871353   -2.6861222093   -2.6644417414
 O    2.0524688219   -1.8629559398   -3.5898359335
 H    1.9406303172    2.0124052108   -1.8716081229
 H    1.2372657245    2.0164070070   -0.2502519217
 H    2.9941025210    2.0227596157   -0.4510967641
 H    2.9086078803   -0.2811638278   -1.4466893870
 H    2.2224926222   -0.2691292347    0.1713755273
 H   -0.0898977039   -0.1464617504   -0.8379321696
 H    0.6291133013   -0.1138151521   -2.4385385784
 H    0.8953009533   -3.8451421572   -0.3577664054
 H    1.7488286354   -2.5006085227    0.3671158298
 H   -0.2976805501   -3.1295732938    1.6813027306
 H   -0.4421067164   -1.4756747115    1.0824553636
 H   -1.3175003357   -2.7818681818    0.2763531806
 H   -0.6303825102   -3.5917407819   -2.3563476236
 H   -0.6309221857   -1.9958722896   -3.2479058375
 H    1.8973536175   -3.6396191056   -2.4848959230
 H    1.8734092585   -2.2062880256   -4.4711607596