23

 C    0.3152809278    1.5012631990   -0.2782212599
 C    0.1098277910    0.0152627909    0.0280784555
 C   -1.3258521303   -0.4554450345   -0.2371555907
 C   -1.5362368208   -1.9378947430    0.0326072571
 C   -1.4280743442   -2.5020366693    1.4774184571
 O   -1.8996411180   -1.5024848732    2.3835649198
 C   -2.5412861951   -3.5197049907    1.1130581743
 C   -2.9732972220   -2.5562430005   -0.0323395284
 O   -4.0084852464   -1.6688239877    0.3295672241
 H    1.3450036887    1.8136214037   -0.0769456214
 H    0.0992451445    1.7231794447   -1.3293975218
 H   -0.3473091712    2.1246325798    0.3323796664
 H    0.8091213782   -0.5824462590   -0.5723357944
 H    0.3607793494   -0.1793217889    1.0780247575
 H   -2.0183789267    0.1321769334    0.3735193794
 H   -1.5947098459   -0.2507341551   -1.2823505053
 H   -0.8752586559   -2.5351217416   -0.6074525616
 H   -0.4573954682   -2.8924841034    1.8065286023
 H   -2.0289207243   -1.9184971314    3.2424716072
 H   -2.1309254718   -4.4612543955    0.7365615023
 H   -3.2928530428   -3.7306696983    1.8794211784
 H   -3.2751761856   -3.0072271429   -0.9808035065
 H   -3.7477831905   -1.2736940965    1.1721637788