18

 C    0.3275165493    0.9429055099    0.4175103829
 O   -0.2499440396    0.2028343808   -0.6468320669
 C    0.6462413853   -0.5994379124   -1.3753898738
 C    0.5756629741   -2.0936145110   -0.9577584843
 C   -0.8803998841   -2.6196439980   -1.0557431689
 C    1.4408151405   -2.9497079965   -1.9036510415
 O    1.8754587733   -2.5508574250   -2.9485136528
 C    1.0804043254   -2.3016590670    0.4038126245
 N    1.5015634916   -2.4934673368    1.4636378551
 H    0.7472185678    0.2959214134    1.1969095275
 H    1.1161335229    1.6152182350    0.0505281068
 H   -0.4749992681    1.5444286714    0.8500871411
 H    0.3635122130   -0.5506950246   -2.4309340327
 H    1.6788094048   -0.2386441303   -1.2908927554
 H   -1.2304601901   -2.5298586157   -2.0878855230
 H   -0.9478304296   -3.6655798318   -0.7465037160
 H   -1.5212717310   -2.0137508217   -0.4138242530
 H    1.6051359244   -3.9909714695   -1.5535077795