21

 C   -0.0195748774    1.6273557971   -0.0574573116
 C   -0.0197322118    0.0943142754   -0.0234915380
 N    0.6350259519   -0.5255414956   -1.1690926859
 C    2.0641675489   -0.8373624751   -1.0726436163
 C    2.3547856323   -2.2948094638   -0.7079034169
 O    1.8142891403   -3.2200447881   -1.6205061399
 C    0.0266568067   -0.7537766505   -2.3756448478
 N   -1.2588916400   -0.2773137121   -2.5383836308
 O    0.6054461198   -1.3150617187   -3.3058871837
 H    1.0036019902    2.0139969042   -0.0896141529
 H   -0.5471414153    2.0000965253   -0.9397832550
 H   -0.5074619595    2.0311664925    0.8355424594
 H    0.4948994485   -0.2600739154    0.8752328151
 H   -1.0431983823   -0.2889803646    0.0675261326
 H    2.5258032484   -0.6056383101   -2.0364507161
 H    2.5091309478   -0.1757455084   -0.3217010229
 H    3.4508491530   -2.4033312983   -0.6323296484
 H    1.9467345023   -2.5143102522    0.2913484046
 H    1.5419798002   -2.7323726738   -2.4152440467
 H   -1.8428298603   -0.0885466389   -1.7418447762
 H   -1.7271065337   -0.6828737687   -3.3330155728