21

 C   -0.0149347273    1.6035425404    0.1931985934
 C    0.0075570212    0.0752974735    0.1224209827
 C   -1.3921874206   -0.5308913519   -0.1060847918
 C   -1.3922161081   -2.0249423274   -0.1907610324
 C   -1.3924712571   -2.8912786111   -1.2662729414
 C   -1.3449916559   -4.1932340332   -0.7091243160
 C   -1.3286948926   -5.5103552674   -1.4194247837
 N   -1.3180087487   -4.1421790286    0.6211388513
 N   -1.3443844195   -2.8223799758    0.9088081591
 H    0.9890479575    2.0080316371    0.3531542987
 H   -0.4050694015    2.0371762519   -0.7343175563
 H   -0.6504528093    1.9550496629    1.0138366778
 H    0.6701794227   -0.2548056359   -0.6859796451
 H    0.4312506572   -0.3347131816    1.0475637082
 H   -2.0631630873   -0.2023229480    0.6993969874
 H   -1.8121425143   -0.1297191658   -1.0347735982
 H   -1.4268358530   -2.6188871697   -2.3097114312
 H   -0.4553012731   -5.6023837512   -2.0746896544
 H   -1.2998235564   -6.3242384386   -0.6918169746
 H   -2.2180218290   -5.6391817103   -2.0463412180
 H   -1.3433818952   -2.5357660895    1.8729962545