21

 C   -1.0199373216    1.0989006037    0.0112560530
 C    0.0142139451   -0.0132504734    0.0893631728
 C    1.2563132617    0.0660340955   -0.8535175688
 C    2.1335901189   -0.3027038712    0.3461276831
 C    3.1123790273   -1.4283029995    0.4081166830
 C    3.6039307627    0.0103050746    0.5508131669
 C    4.3532271336    0.6305109766   -0.5000561730
 C    4.9635812413    1.1655279004   -1.3890714177
 C    0.9774664310   -0.0399739706    1.3180656673
 H   -0.5474886541    2.0817287860    0.1216892196
 H   -1.5439496695    1.0878129811   -0.9510775137
 H   -1.7726949214    0.9999503445    0.8015318811
 H   -0.4757481923   -0.9861849964   -0.0196952267
 H    1.2744526267   -0.6111265147   -1.7114022327
 H    1.4481604462    1.0836514751   -1.2105332835
 H    3.1418254197   -2.0463538820    1.3001169795
 H    3.3603985280   -1.9437871868   -0.5136480193
 H    3.8834794481    0.3136367981    1.5568399688
 H    5.5113821703    1.6310849175   -2.1699844549
 H    1.0511373159    0.9383951781    1.8059449247
 H    0.7883712624   -0.7983166066    2.0832779205