16

 C   -0.2522543762    1.6743780812   -0.2710573438
 C   -0.3688925726    0.1828494598   -0.5279359820
 O   -1.0613243652   -0.4012281819    0.5703821409
 C   -1.2218561837   -1.8001933483    0.4822454176
 C   -1.8196615982   -2.2284514877    1.8349188368
 O   -1.5472118694   -3.2524547162    2.3941054757
 C   -2.1335423769   -2.2171663354   -0.5887482721
 C   -2.9140942378   -2.5574468914   -1.4374901361
 H    0.2790666560    2.1579472032   -1.0960366470
 H   -1.2436602679    2.1274093569   -0.1837504473
 H    0.2964551263    1.8655288609    0.6553561695
 H   -0.9152349540   -0.0144059905   -1.4610213884
 H    0.6273060835   -0.2779768151   -0.6237010835
 H   -0.2542192272   -2.3124919939    0.3659442574
 H   -2.5340865725   -1.4815607843    2.2397486741
 H   -3.5932980641   -2.8639227771   -2.1949097020