22

 C   -0.0158336849    1.5310278972   -0.0253348002
 C    0.0627265573    0.0008376361   -0.0416436958
 C    0.7048625154   -0.5748624134    1.2212426871
 C   -0.1363992861   -0.4947616457    2.5388171592
 N   -0.2061484118   -1.9233759158    2.9923596540
 C   -0.5296600758   -2.5960459618    1.6763595583
 C    0.8820107213   -2.1065233311    1.2347871202
 O    1.6066289508   -2.5894897700    0.1506836772
 C    1.2252291146   -2.3462255703    2.7333698200
 H    0.9816136706    1.9759918866    0.0634450514
 H   -0.4704544143    1.9147109155   -0.9438569552
 H   -0.6145204972    1.8948126926    0.8172107541
 H   -0.9452291289   -0.4132426119   -0.1731179790
 H    0.6453686621   -0.3302738673   -0.9090930593
 H    1.6872892710   -0.1041521285    1.3517452309
 H    0.3279395324    0.1117346760    3.3200330069
 H   -1.1505281635   -0.1200028580    2.3710601664
 H   -0.5933838739   -3.6793198557    1.8151608076
 H   -1.4244682317   -2.2275561735    1.1685462006
 H    1.6611023041   -3.5482328098    0.2176309497
 H    1.9904490211   -1.7283871607    3.2128359743
 H    1.3606820377   -3.3987305304    2.9986979117