13

 O   -0.0048167498    1.4348067680   -0.0884598552
 C    0.0392781639    0.0434510944   -0.0293808196
 C    0.3996093896   -0.6514344065    1.3453175697
 C   -0.9795854934   -1.3185787334    1.3005456733
 O   -1.9538284533   -0.2635971871    1.2150001836
 C   -1.3183193327   -0.6866182943    0.0035675962
 C   -1.3844008232   -2.5762166176    1.8464416301
 N   -1.6668819337   -3.6031667444    2.2963824315
 H   -0.6676256704    1.7228814727    0.5523215504
 H    0.6872563308   -0.2992717235   -0.8386623684
 H    1.2299762816   -1.3543520498    1.2599943271
 H    0.5546970308    0.0150626978    2.1956857934
 H   -1.9602391902   -1.0312726863   -0.7987693620