21

 C    0.0473406947    1.7308588493   -0.1864899388
 C    1.4356264646    2.3286301977    0.1190018635
 C    2.0334462944    2.0001388514    1.5134714063
 C    2.3894640581    0.5855056784    1.5292820181
 C    2.4763444741   -0.5690465120    1.1986341690
 C    2.3007822154   -1.8152782045    0.4594650572
 C    1.6036880011   -1.5243798085   -0.8704155765
 C    0.6218165874   -0.6481424514   -1.0997653072
 C   -0.1552252054    0.1933931364   -0.1144553909
 H   -0.6836017880    2.1798359331    0.4993973143
 H   -0.2385599339    2.0721931420   -1.1904305707
 H    2.1546385528    1.9992214992   -0.6388555614
 H    1.3543027722    3.4189956550    0.0250999005
 H    2.9065558988    2.6381206950    1.6966087501
 H    1.3103040149    2.2365323143    2.3055129521
 H    3.2642802311   -2.2984885619    0.2586409873
 H    1.7261500821   -2.5455729632    1.0476025194
 H    1.9881409616   -2.0928511889   -1.7143213751
 H    0.2875379605   -0.5527855366   -2.1332373824
 H    0.0084401807   -0.1535351009    0.9056461027
 H   -1.2202900472    0.0214555863   -0.3273960576