18

 C   -0.3016611390    1.5590508069   -0.0158599219
 C    0.0649379215    0.0661469096    0.0462709338
 C    0.7435154326   -0.4391505149   -1.1910919763
 C    2.0774631519   -0.6633485109   -1.3984905109
 O    3.0952050052   -0.5064383570   -0.5575009536
 C    4.3989678950   -0.8617132248   -1.0325386073
 O    2.3220524287   -1.1026615703   -2.6379507057
 N    1.0917839298   -1.1886299892   -3.3307543243
 C    0.1998513728   -0.7921464621   -2.4543556326
 H    0.5923919200    2.1747359723   -0.1538654310
 H   -0.9783607548    1.7650632954   -0.8514405432
 H   -0.7972358797    1.8780281032    0.9066299943
 H    0.7228943380   -0.1106237759    0.9039181157
 H   -0.8427337299   -0.5211859795    0.2308457507
 H    4.4381132376   -1.9189631749   -1.3103952096
 H    4.6785023503   -0.2519484991   -1.8964150316
 H    5.0754958878   -0.6668120449   -0.2007474820
 H   -0.8396243079   -0.7744542240   -2.7562508545