18

 C   -0.1174011578    1.5646555821   -0.0213622211
 C    0.0556002370    0.0447787346   -0.0199170784
 N    0.7151437787   -0.4504226450   -1.2194680498
 C    0.0879561239   -0.6615824757   -2.4300787266
 N   -1.1462082700   -0.4303206703   -2.6310498878
 C    1.1635262274   -1.2063517368   -3.3718430627
 N    2.3649833926   -1.0959706494   -2.5693654426
 C    2.0811654311   -0.7619209916   -1.2610167856
 O    2.8461003130   -0.7273609097   -0.3261734067
 H    0.8534860946    2.0660673861   -0.0730349314
 H   -0.7267537288    1.8813508995   -0.8712146372
 H   -0.6173175889    1.8831458270    0.8985646058
 H    0.6739345168   -0.2764798902    0.8214382789
 H   -0.9179960437   -0.4488459706    0.0430679553
 H   -1.4088136238   -0.6662284110   -3.5867975231
 H    0.9283767047   -2.2420543020   -3.6509559081
 H    1.2136737994   -0.6088915865   -4.2891366175
 H    3.2032975539   -1.6193489506   -2.7571207614