21

 C   -0.1772659937    1.5425804414    0.0097331376
 C   -0.0500724810    0.0287238317    0.0275934437
 O   -1.3465064446   -0.5334566918   -0.0063431422
 C   -1.3391043207   -1.9440690853    0.0056393724
 C   -2.7849898566   -2.4164511468   -0.0402984649
 C   -2.9118264302   -3.9318446349   -0.0465008373
 O   -1.9583428501   -4.6659044764   -0.1307387550
 C   -4.3398984176   -4.4618052624    0.0639218057
 O   -4.3375236389   -5.8601838038   -0.0424497995
 H    0.8120671185    2.0089756764    0.0353686933
 H   -0.6940995881    1.8736627175   -0.8955838729
 H   -0.7477674600    1.8901221123    0.8758145320
 H    0.5382880889   -0.3212131611   -0.8375839847
 H    0.4847975412   -0.3045786467    0.9332273323
 H   -0.7823974812   -2.3451175490   -0.8546998115
 H   -0.8416498760   -2.3281896763    0.9102250076
 H   -3.3440866468   -2.0016138146    0.8080961516
 H   -3.2751513731   -2.0164739461   -0.9379815593
 H   -4.7451295329   -4.1077433144    1.0285918903
 H   -4.9427434734   -3.9729938401   -0.7213932251
 H   -5.2444423838   -6.1671827095    0.0452570358