17

 C    0.0069519044    1.5602601802   -0.0079345270
 C    0.0431930189    0.0520187966    0.0380641080
 O   -1.1076325272   -0.5748445935   -0.4466301983
 C    1.3278100442   -0.7937750048   -0.2651339246
 C    2.4866043190   -0.1482099544    0.4209323091
 O    3.6034259026    0.1790492730    0.1825269693
 O    1.8172997713   -0.0213698994    1.6409187934
 C    0.6763861602   -0.7583721069    1.1124083140
 C    0.0626816972   -1.8024417743    1.9797710467
 H    0.8825235460    2.0010047949    0.4696424248
 H   -0.0305689908    1.9109219503   -1.0459038598
 H   -0.8896390397    1.9188299855    0.5071601785
 H   -1.2623120835   -0.2674266284   -1.3469804254
 H    1.3362221766   -1.5429072046   -1.0431635351
 H   -0.3409687257   -1.3487149306    2.8910652465
 H   -0.7553089144   -2.2885828687    1.4447962799
 H    0.8036009410   -2.5531283349    2.2686826899