16

 N    0.0512337693   -0.9268969474    0.7693125563
 C    0.0520821540    0.1561546941    0.3682620675
 C   -0.0071542539    1.5415861801   -0.1409665882
 O   -0.8395839595    2.3565801504    0.6668847389
 C   -0.0336830196    2.9039464855    1.7154450755
 C    1.3264628221    3.2097786154    1.0693958727
 C    2.5568138137    2.4231779675    1.5698206589
 O    2.4581231760    1.4882232963    0.4685291700
 C    1.3886120247    2.2354036629   -0.1269465753
 H   -0.4498398343    1.5219636222   -1.1409803429
 H   -0.5574977846    3.7853036487    2.0897203676
 H    0.0691474811    2.1791464950    2.5357248047
 H    1.4749369748    4.2686368109    0.8621459405
 H    3.5012746840    2.9767740268    1.5352519110
 H    2.4588192681    1.9266523952    2.5416661779
 H    1.6566435142    2.6217103265   -1.1145935150