11

 O   -0.0727184905   -0.0330333823   -0.1642051768
 C   -0.0369494869    1.1564003021   -0.1176455415
 N    1.1529953097    1.9200822353   -0.0011986974
 C    1.1412596205    3.2847047782    0.1184531202
 N    2.2058563329    3.9983244061    0.1376232627
 C    3.3972414522    3.2981878989   -0.0678050699
 O    4.4068793958    3.7813100247   -0.4896611527
 N    3.3998347815    1.8779857583    0.2877779742
 N    2.3496037169    1.2165073109    0.2556364021
 H   -0.9169980680    1.8228617569   -0.1748278347
 H    0.1583479759    3.7446839209    0.2318166339