22

 C    0.0989588769    1.5049786278   -0.1572097142
 C   -0.0357513092    0.0573392771    0.3281304787
 C   -1.4287439410   -0.5410551329    0.1103172901
 C   -2.5305730001    0.1626496012    0.8939435807
 O   -1.7529626761   -0.5710223896   -1.3150519409
 C   -1.8193281119   -2.0140482468   -1.3473979511
 C   -1.4898755111   -2.0818733150    0.1349369215
 C   -0.7005055008   -3.0470505416    0.9224090933
 N   -2.1686663378   -2.9491343340    1.0851848518
 H    1.1388717021    1.8383800871   -0.0920366100
 H   -0.2205482105    1.5838963917   -1.2000669329
 H   -0.5056833383    2.1959491991    0.4378353712
 H    0.6858456078   -0.5717519160   -0.2050039694
 H    0.2166983106   -0.0113003142    1.3947551122
 H   -2.6271600850    1.2017044350    0.5683059912
 H   -3.4921802090   -0.3320561836    0.7337727243
 H   -2.3125283590    0.1654383351    1.9683656140
 H   -2.8180184831   -2.3811610942   -1.6128750697
 H   -1.0786931574   -2.4458244505   -2.0322558370
 H   -0.3532730101   -3.9713974223    0.4676850207
 H   -0.0590464197   -2.6645931812    1.7128501954
 H   -2.3956392474   -2.4387560122    1.9361510603