15

 O    0.4463427533    1.1920369860    1.9182106796
 C   -0.0445708192    1.4014805170    0.8276565704
 C    0.7712353502    1.3904206276   -0.3735650864
 C    1.4809599022    1.3998438526   -1.3457581303
 C   -1.5273975275    1.6657497620    0.6646727358
 C   -2.0860725912    2.5976682391   -0.4727015518
 C   -2.9292756950    1.4143340469   -0.9695506626
 O   -2.0194065201    0.3634986356   -1.3109569883
 C   -2.3797687023    0.5177250273    0.0589378659
 H    2.1050297952    1.3968217252   -2.2062274119
 H   -1.9115874637    1.9472665000    1.6473160168
 H   -2.6712844575    3.4243008246   -0.0653401196
 H   -1.3600404408    2.9745970210   -1.1951426741
 H   -3.8929245309    1.4152091565   -1.4639742822
 H   -2.7920513626   -0.3423172412    0.5728542485