19

 O    0.2664534074    1.2678581992   -0.4228326670
 C    0.0584875611   -0.0840456175   -0.1059324467
 C    0.1746191895   -0.3946489258    1.4284541738
 O    0.4033176777    0.7549039390    2.2214743242
 C   -1.3181046714   -0.8695105014    1.4441783181
 O   -2.2372298718   -0.0377746519    2.1075549047
 C   -2.5968297467    1.0397431147    1.2414410832
 C   -2.5111838051    0.4838079382   -0.1915501689
 C   -1.4236214999   -0.5919976441   -0.0885996770
 H    0.3120065547    1.7273093532    0.4296898211
 H    0.7142640163   -0.6930454609   -0.7375597126
 H    0.8825748003   -1.1948691127    1.6704473197
 H    1.3451301976    0.8146173682    2.4080617711
 H   -1.4600864277   -1.8889007169    1.8112715103
 H   -3.6009430173    1.3666636557    1.5251163156
 H   -1.9070580772    1.8831975048    1.3789578629
 H   -3.4614386415    0.0278776237   -0.4829473617
 H   -2.2539791373    1.2588262144   -0.9163254684
 H   -1.6094129488   -1.4515378999   -0.7341890223