14

 N   -0.1805754851    1.4171799248   -0.1391964336
 C   -0.0093528095    0.0264445717   -0.0035532170
 C   -0.2445864731   -0.9025050575   -1.2363138885
 N    0.6485098390   -2.0407991701   -1.4286091810
 C    0.6592141450   -2.6259082119   -0.2993347620
 N   -0.1475930266   -2.0181397918    0.7426571467
 C   -1.0653826878   -1.1242599018   -0.0338764409
 C    0.6310043207   -0.7513945373    1.0831188795
 O    1.3225595393   -0.5316015494    2.0249126969
 H   -0.1861278467    1.8798825287    0.7637467298
 H    0.5452927819    1.8374821461   -0.7089671497
 H   -0.6129151734   -0.3875358428   -2.1143812315
 H    1.2687418893   -3.4881623077   -0.0564669207
 H   -2.1275859930   -1.0792652109    0.1605071518