19

 O    1.5900234293    1.2295813062   -0.5534894070
 C    0.5613087345    0.3515537253   -0.0769345944
 C    0.0827751113   -0.5378395881   -1.1409991699
 C   -0.2798251392   -1.2579381321   -2.0325897196
 C    1.0124550804   -0.3829304399    1.1611122276
 C    1.0877143239   -1.7005839905    1.3548386927
 C    1.5660992513   -2.0472485467    2.7434484110
 C    2.1012208113   -0.6930356813    3.2791631035
 C    1.4320026550    0.3896622295    2.3963365139
 H    2.3231192473    0.6699607162   -0.8355581088
 H   -0.2535625392    1.0359872019    0.1972504228
 H   -0.6123668738   -1.8855717505   -2.8222787142
 H    0.7973502265   -2.4460525306    0.6237061196
 H    0.7327741794   -2.4290656016    3.3508983827
 H    2.3295036552   -2.8335057771    2.7483668445
 H    1.9071537047   -0.5511514894    4.3451100782
 H    3.1864029017   -0.6533403189    3.1410604310
 H    2.0998608701    1.2227837784    2.1584798527
 H    0.5495421203    0.8292759594    2.8843786537