18

 C    0.1718351886    1.6317083642   -0.2434980087
 C    0.1427984424    0.1202656265   -0.0749275370
 O   -1.1653001459   -0.3275542579    0.2258714689
 C    0.6882626601   -0.7694312632   -1.1951628105
 C    2.1433574444   -0.6225782316   -1.3597720101
 N    1.6514903857   -1.5087801483   -0.2829607221
 C    1.2175925910   -0.5968199667    0.8314686201
 C    2.3120233679    0.1744895842    1.5224865577
 O    2.1158951399    1.1595384366    2.1911152433
 H    1.1473970498    1.9951679514   -0.5744213461
 H   -0.5812087407    1.9285187616   -0.9798058543
 H   -0.0456420505    2.1255373013    0.7092049656
 H   -1.5096157224    0.2186280440    0.9411586684
 H    0.0504555418   -1.2953100385   -1.8967934641
 H    2.6173130181   -1.1707536145   -2.1674875232
 H    2.6384344388    0.3132246700   -1.1073451458
 H    0.6916493181   -1.1902471297    1.5866743057
 H    3.3352140027   -0.2445796894    1.3855189323