15

 C   -0.0167373457    1.5552124804   -0.0107876207
 C    1.4990017061    1.7796991709   -0.0058636161
 O    2.0023581298    1.4078086143    1.3182208215
 C    1.4206775518    0.3026161621    1.8478399810
 N    0.4963082739   -0.4201362930    1.3606511263
 C    0.0100942070    0.0139598966    0.0308324706
 C    1.1196182788   -0.2873520523   -0.9748417404
 C    1.9780131262    0.7361360653   -0.9989306549
 H   -0.5229889114    2.0026415572    0.8478043300
 H   -0.4567132078    1.9304324220   -0.9376302639
 H    1.8436777483    2.8015515435   -0.1602275412
 H    1.8637927159    0.0711191369    2.8149232723
 H   -0.9441711199   -0.4728231911   -0.1733350853
 H    1.2277449262   -1.2383113690   -1.4820081488
 H    2.9257825508    0.7859442161   -1.5196489303