17

 N   -0.1261635443   -1.1486289771   -0.0282291633
 C   -0.0575884967   -0.0015049526    0.0910567515
 C    0.0448912816    1.4488962382    0.2324608452
 C    1.3841505272    2.0027900017   -0.3003746451
 C    1.4465532820    3.5074788668   -0.1599474280
 C    1.8675432223    4.1498915376    1.1294769478
 C    2.7821272688    4.2377613104   -0.0841368278
 C    4.0135385427    3.4987978766   -0.0969701074
 N    5.0037219903    2.9003448955   -0.1096671238
 H   -0.7954991626    1.9085112136   -0.3010277261
 H   -0.0759861827    1.7076625115    1.2904307165
 H    2.2122930938    1.5352788133    0.2408611613
 H    1.5002045579    1.7188780133   -1.3516163374
 H    0.6945483641    4.0450959174   -0.7321748224
 H    1.3871797270    5.0669147423    1.4494799951
 H    2.1941842560    3.5020936486    1.9355304801
 H    2.8411656925    5.1961416631   -0.5883736761