13

 O   -0.1212903209    1.4524132436   -0.0410724235
 C   -0.0409357015    0.0479509642   -0.0786070570
 C   -1.4341872528   -0.5765716760   -0.0175618420
 O   -2.1126211810   -0.0968225372    1.1420142019
 C   -3.1158703536    0.7425858129    0.7664827443
 O   -3.7971513787    1.3647544146    1.5154867818
 C   -3.1751024351    0.6831879654   -0.7638970726
 O   -3.9272981963    1.2405377319   -1.4953554747
 O   -2.2011124621   -0.1798217490   -1.1471947285
 H   -0.2621958187    1.7240551080    0.8719860747
 H    0.4194839601   -0.2335939601   -1.0302730001
 H    0.5654233627   -0.3690438963    0.7367473429
 H   -1.4016309622   -1.6696875620    0.0182044228