16

 O   -0.2389865846    0.1186781188    0.3504379671
 C   -0.0402458979    1.2692315439    0.0390261125
 C    1.2935064162    1.9000965534   -0.0354502775
 C    1.3702979729    3.4041728156    0.1681416051
 C    1.5418891811    2.8578200049   -1.2144810726
 N    2.8264252248    2.8664673100   -1.8309971674
 C    3.7619759068    2.2168291795   -1.2761554793
 O    3.7305766039    1.4606194816   -0.1599032596
 C    2.4568352352    1.0063493668    0.3350875746
 H   -0.8810118053    1.9495147307   -0.2313254285
 H    0.4474214251    3.9231123210    0.4073624465
 H    2.2533235323    3.7859554599    0.6687940948
 H    0.7252197178    3.0096510576   -1.9127316695
 H    4.7698105763    2.2422590663   -1.6844732948
 H    2.5782034132    0.9209196907    1.4182648279
 H    2.2692301422    0.0045971294   -0.0635749291