25

 C    0.7028477795    1.8353548821   -0.4196628072
 C    0.2581833441    0.3939703015   -0.1633587504
 C    0.6812232167   -0.5814162440   -1.2636552533
 C    0.3442121113   -2.0315220526   -0.9066513688
 O    0.0159664596   -0.1767185277   -2.4594036590
 C    0.6233284665   -0.5976323369   -3.6600361458
 C   -0.2367117461   -0.1427205471   -4.8429894127
 C   -0.4036700899    1.3720462672   -4.9067562128
 O    0.3012220165   -0.6760390233   -6.0487887128
 H    1.7955045792    1.9105043198   -0.4626974527
 H    0.3040716286    2.1985208601   -1.3700180191
 H    0.3556446758    2.5031246906    0.3745937641
 H    0.6679600662    0.0371444844    0.7890976918
 H   -0.8343527932    0.3479606368   -0.0724996697
 H    1.7705866278   -0.4905768299   -1.4177044692
 H    0.6246217276   -2.7207772031   -1.7081714913
 H    0.8787499810   -2.3395155239   -0.0022864617
 H   -0.7304649380   -2.1365723709   -0.7266305364
 H    1.6377651017   -0.1659693552   -3.7525710826
 H    0.7267401922   -1.6909636855   -3.7104926383
 H   -1.2222182239   -0.6111540632   -4.7401786063
 H    0.5718854716    1.8639054994   -5.0186027806
 H   -1.0282052182    1.6507525777   -5.7599007468
 H   -0.8637087833    1.7461400094   -3.9890400405
 H    1.1116937766   -0.1931062356   -6.2450907977