22

 C   -0.2032971167    1.6343585074   -0.5310291505
 C    0.0368672966    0.1399382253   -0.3385531605
 C    0.8027914872   -0.6923087952   -1.3718234529
 C    2.2636264213   -0.4957746894   -1.4273549219
 C    3.0804561385    0.7719968003   -1.3193139235
 O    4.3631065003    0.5157168792   -0.7659433682
 N    1.7210811012   -1.3111768228   -0.3094044694
 C    1.0214323065   -0.4528540887    0.7244464992
 C    1.8632202338    0.3926942402    1.6705991306
 H    0.7147071170    2.2144131494   -0.6429944238
 H   -0.8112371235    1.8076051894   -1.4259846977
 H   -0.7529014018    2.0464015323    0.3224670707
 H   -0.9403886551   -0.3288491727   -0.1861462733
 H    0.3057307357   -1.3195168828   -2.1073969694
 H    2.7451513253   -1.1895099926   -2.1174246513
 H    3.2598342606    1.1529275658   -2.3313065398
 H    2.5631817216    1.5636806592   -0.7700895609
 H    4.2305333940   -0.0172943150    0.0252019292
 H    0.4716532131   -1.1659966345    1.3461847611
 H    2.4355093513    1.1847491515    1.1860867274
 H    1.2188891312    0.8628321552    2.4215627595
 H    2.5671341322   -0.2542700914    2.2069771853