16

 C   -0.0005628750    1.4843318883   -0.1850888654
 O    1.4482853499    1.5215094174    0.0954831263
 C    1.2737708216    0.3340615504    0.8865503288
 C    1.8515635353   -1.0661114926    1.2139046497
 C    0.4737430513   -1.0655841049    2.0153279939
 C    0.7656452107    0.4043047365    2.3575823494
 O   -0.6153508941   -0.9260547664    1.0472139984
 C    0.0375309391   -0.0474829299    0.1287575835
 H   -0.5585866042    2.1112665750    0.5167853326
 H   -0.2098808389    1.7723464333   -1.2173220996
 H    1.9782750229   -1.7679148719    0.3877890729
 H    2.6937130138   -1.1045270939    1.9069430617
 H    0.2322029359   -1.8345446744    2.7444493269
 H    1.5791849662    0.5490962497    3.0703821913
 H   -0.0971294852    1.0256464149    2.5997988762
 H    0.2375510905   -0.5789422216   -0.8073118667