17

 C    0.2286743545    1.4212931803    0.1781839972
 C    0.0111691603   -0.0895918426    0.2200409863
 O    0.1496020737   -0.5972195284    1.5463344016
 C   -1.3421438701   -0.5004935689   -0.4016339730
 C   -1.4431646809   -2.0199915487   -0.5271359225
 C   -2.1204792498   -2.7575368741    0.6079151817
 O   -0.9587808225   -2.5894513358   -1.4783480784
 H    1.1855324183    1.6761443970    0.6421879968
 H    0.2300314382    1.7931378881   -0.8508069192
 H   -0.5682340437    1.9460745292    0.7209026751
 H    0.8040174364   -0.5867914320   -0.3499875353
 H   -0.4060094781   -0.0617572213    2.1241084509
 H   -2.1569824356   -0.0921429400    0.2091836477
 H   -1.4135581065   -0.0776006588   -1.4082018486
 H   -3.1542614854   -2.4128261463    0.7270786474
 H   -2.1064904934   -3.8324181092    0.4240943880
 H   -1.5899231056   -2.5228913086    1.5372179543