18

 C    0.0681328842    1.5832317116   -0.1795313911
 C    0.0002725566    0.0753836408    0.0527711221
 N    0.4496593440   -0.6683933378   -1.1433079524
 C    1.2710063377   -1.5380898655   -0.7346252751
 O    1.5773289874   -1.6168531919    0.5842456851
 C    0.8744308615   -0.5086332621    1.2170182796
 C    1.9146846218    0.4253813374    1.8463919375
 C    2.7420593941   -0.2795809830    2.9038244404
 O    2.8218191722    0.0829579637    4.0495648429
 H    1.0890261290    1.9141489570   -0.3892333229
 H   -0.5489427673    1.8387681608   -1.0442058072
 H   -0.3079436874    2.1372738227    0.6859498860
 H   -1.0484322120   -0.1935794321    0.2298238402
 H    1.7818275515   -2.2669677553   -1.3542264267
 H    0.2473599193   -0.9405156570    2.0020014353
 H    2.5931854328    0.7822264775    1.0607950253
 H    1.4285992982    1.2877772106    2.3095293295
 H    3.2823771864   -1.1807301075    2.5436723815