20

 C    0.0117790132    1.5058531255    0.0140806190
 C    0.0372437379   -0.0249597671   -0.0047824552
 C   -1.3850054076   -0.5786799486   -0.1329194272
 C    1.0248302548   -0.6477493553   -1.0307483210
 N    2.2973491377    0.0884477566   -0.6999072450
 C    2.2780568750   -0.7532267270    0.5244326430
 C    1.5146255053   -1.9019769478   -0.1367350774
 O    0.6411927697   -2.0792782023    0.9792630278
 C    0.8314192494   -0.6448207877    1.1814532236
 H    1.0094171364    1.9297012656    0.1273740897
 H   -0.4148591455    1.8964794764   -0.9164181281
 H   -0.6209582109    1.8570450870    0.8374008774
 H   -1.8508112252   -0.2028479407   -1.0508082445
 H   -1.3977787313   -1.6688641837   -0.1542680496
 H   -2.0062715599   -0.2513450295    0.7081932525
 H    0.7304113644   -0.7131306945   -2.0776673276
 H    3.0426023512   -0.2771335857   -1.2933246920
 H    3.1584001669   -0.8331019177    1.1602807689
 H    1.9105120160   -2.8100240051   -0.5922024565
 H    0.6410570625   -0.3147878182    2.2020922921