15

 N    0.0496987193    1.3457833088    0.1174966838
 C   -0.0573429952   -0.0181554084    0.0482057714
 N   -1.1697728525   -0.6417468540    0.0050259731
 C   -1.0371405507   -2.0756136503    0.0202847578
 C    0.0332384364   -2.7197255435    0.9570719172
 O    0.1195797400   -3.8807281221    0.0590517749
 C    0.0829728142   -2.7267952951   -0.8501815474
 C    1.1085199583   -2.0273716601    0.0804366425
 O    1.1702541457   -0.6088388428    0.0807475470
 H    0.9126710456    1.7372229365   -0.2255873410
 H   -0.7888036255    1.8369342843   -0.1492904004
 H   -1.9974391747   -2.5900215841   -0.0040462446
 H    0.0165130367   -2.8944319728    2.0317771179
 H    0.1254175596   -2.9095731104   -1.9230025056
 H    2.1235867128   -2.4181011159    0.1097417733