13

 N    0.1745440359    1.0297060521   -0.9857381957
 C    0.0054695751    0.1628712020    0.0499706711
 O    0.8691569003   -0.0803535811    0.8675370651
 C   -1.3769388771   -0.4582586929    0.1028542039
 O   -1.4504010984   -1.7962723661    0.5563363986
 C   -2.0245021186   -0.8005257595    1.3985854059
 C   -1.3607002991   -0.5708182356    2.7287109097
 O   -1.9444549119   -0.0246000069    3.6309749762
 H    1.0747740183    1.4678180754   -1.0958054095
 H   -0.5137324231    1.1569573593   -1.7065257622
 H   -2.0463378704   -0.2261119054   -0.7278857328
 H   -3.1137694968   -0.7714518540    1.4308080808
 H   -0.3284712642   -0.9508831472    2.8050916289