16

 O    0.0658259430    1.4063517902    0.0216536359
 C    0.0218232092    0.0010903230   -0.0036668440
 C   -1.3740224516   -0.5985551690   -0.1363102262
 C   -1.9403952888   -0.7886093730   -1.5006565677
 C   -0.8206060832   -0.8338916608   -2.5557805765
 O    0.2116509614    0.1675028295   -2.3929040827
 C    0.7150245670   -0.5854722383   -1.2416362840
 C   -0.1255662971   -1.8311772652   -1.6284918370
 N   -1.3441569182   -1.9546525876   -0.7158267498
 H   -0.0921864471    1.6786770582   -0.8944322336
 H    0.4877386397   -0.3551808983    0.9218570124
 H   -2.0784348510   -0.4686813952    0.6789842774
 H   -3.0050758469   -0.7299130601   -1.7003645304
 H   -1.1064165543   -1.0004078952   -3.5938165946
 H    1.8049060456   -0.6104249694   -1.2168691672
 H    0.3378299423   -2.7688176888   -1.9206224718