21

 C   -0.0183238210    1.4857567070   -0.1025131435
 C   -0.0327282394   -0.0249492336    0.0658832940
 C   -1.2246641935   -0.6538944835   -0.6393134199
 N    1.2901206433   -0.6741887066   -0.0420885449
 C    0.6061551075   -0.6558787389    1.2712608854
 C    1.2887342030    0.1751297961    2.3464008323
 C    0.0734158915   -1.9630864986    1.8250923402
 O    1.1897666643   -2.7438739747    2.2449684308
 H    0.8788539264    1.9381785945    0.3184432348
 H   -0.0504126469    1.7420217666   -1.1675097830
 H   -0.8942946295    1.9395474226    0.3752361640
 H   -1.2324413952   -0.3426894724   -1.6904621032
 H   -1.2103428504   -1.7453530848   -0.6244627503
 H   -2.1702280419   -0.3213940385   -0.1955544127
 H    1.2007574164   -1.5962598278   -0.4651265289
 H    1.8880635113    0.9765197805    1.9155590398
 H    0.5537020085    0.6137031724    3.0316485243
 H    1.9545220638   -0.4684168691    2.9274530838
 H   -0.5961786402   -1.7477159432    2.6736759008
 H   -0.5117787138   -2.5095442873    1.0756536415
 H    0.8550125258   -3.5180216807    2.7067540047