21

 C    0.1021591908    1.5621639481    0.1730464980
 C    0.2878780337    0.0691072768   -0.0335142490
 O    0.4667856305   -0.5315037783    1.2443967891
 C    0.6578989250   -1.9177115626    1.2080147142
 C    2.0703018939   -2.4086842017    0.9230640240
 C    1.5212992749   -2.4408743121    2.3271483527
 C   -0.4646152813   -2.7007057760    0.7501655223
 C   -1.4120057220   -3.3372280156    0.3627829139
 C   -2.5566774924   -4.1120287755   -0.0935689061
 H    0.9774543822    1.9968489288    0.6645601953
 H   -0.0406047718    2.0638433921   -0.7888783309
 H   -0.7729906785    1.7566748808    0.7994882021
 H   -0.5876032678   -0.3689873881   -0.5333616829
 H    1.1643766334   -0.1335323556   -0.6684892550
 H    2.1900397330   -3.3424396532    0.3866171712
 H    2.8004215436   -1.6414916938    0.6911357018
 H    1.8800451703   -1.6923462404    3.0239909901
 H    1.2563860311   -3.3963008405    2.7632609681
 H   -2.5654732799   -5.1078731864    0.3635055791
 H   -3.4985362001   -3.6202196853    0.1737675906
 H   -2.5481363386   -4.2464173913   -1.1810725586