18

 O   -0.0256412806   -0.0032060030   -0.3975630409
 C   -0.0314707941    1.1137358549    0.0425898239
 C   -1.3150591614    1.9381200312    0.1441159196
 C   -1.2390809451    3.1306486577    1.0729821940
 C   -2.4779980128    3.7905954465    1.5401614161
 N   -1.6604164865    2.9930698101    2.4790335441
 C    0.0610544183    3.8794835527    0.8828952598
 C    1.2008714172    2.9105488073    1.1640496095
 O    1.1394566133    1.7030479511    0.3775467629
 H   -1.5201148854    2.2792063218   -0.8800474886
 H   -2.1250650076    1.2520857172    0.4066137120
 H   -2.4863358226    4.8597597296    1.7353469817
 H   -3.4307588407    3.3857266976    1.2071736315
 H   -2.0991393950    2.0880070926    2.6327219988
 H    0.1320355294    4.2700228692   -0.1395577851
 H    0.1294396830    4.7211425600    1.5775110926
 H    2.1758476858    3.3460151332    0.9348722941
 H    1.1866602350    2.6261189904    2.2225025839