17

 C   -0.6614981571    0.6290888418    0.1030512657
 O    0.7044421324    0.2340042278    0.1237846884
 C    1.0906406797   -0.5534474887    1.2094417318
 C    0.7876279739   -2.0557516427    1.0474791207
 O   -0.6179023704   -2.2476502259    1.1828877575
 C   -1.0549310551   -3.5280535234    1.3225633484
 N   -2.2871294236   -3.7420724914    1.4514844782
 C    1.2758528737   -2.5710695179   -0.2449377646
 N    1.6653638458   -3.0086936690   -1.2401343376
 H   -0.9439748068    1.1170806782    1.0470274408
 H   -0.7593428859    1.3484156642   -0.7125513339
 H   -1.3346802017   -0.2158612418   -0.0706218694
 H    2.1765185337   -0.4484657514    1.3091870182
 H    0.6175052687   -0.2294963470    2.1488026771
 H    1.3173920465   -2.5934996313    1.8476910213
 H   -0.2480131800   -4.2713992965    1.3096994545
 H   -2.4644384839   -4.7391545050    1.5531083930