13

 N   -0.0227985204    1.3352666332    0.0891594908
 C    0.0012072260   -0.0177775257    0.0321330934
 N   -1.1870427254   -0.6456331828    0.0261322456
 C   -1.1342647086   -1.9780358083    0.0043088305
 C    0.0584944045   -2.6990249044   -0.0139012676
 C    1.2206068282   -1.9301074475   -0.0155205483
 N    1.2164306351   -0.6039233020    0.0055373651
 C   -2.3963831079   -2.6775200116   -0.0035145077
 N   -3.3898214712   -3.2688190630   -0.0108234237
 H    0.8371399381    1.8345481219   -0.0544365987
 H   -0.9014662927    1.8060154702   -0.0374357876
 H    0.0748155426   -3.7795344161   -0.0322577309
 H    2.1977012418   -2.4076212439   -0.0369381108