16

 O   -0.0017011172    0.2211106306    0.6257432192
 C    0.0684578786    1.3698034203    0.2360406182
 C    1.2379492932    1.9354990862   -0.4324134492
 C    1.4389469263    3.2763516426   -0.5401376819
 N    1.3343379982    4.0184682712    0.7389996931
 C    2.8744733351    3.8391007531    0.6448327820
 C    3.4557393419    2.5192937913   -0.0165280946
 C    2.6129358925    1.2724710943   -0.3487439119
 C    2.9058922242    3.6538548681   -0.8254426474
 H   -0.7837904431    2.0709000655    0.3475233592
 H    1.2280514196    5.0207285720    0.5505018024
 H    3.5007476868    4.4462081717    1.2927547166
 H    4.5315251918    2.4312600477    0.1294971701
 H    2.5584051638    0.5137410647    0.4377442689
 H    2.9964306596    0.7826548137   -1.2528210608
 H    3.3302043788    4.2280684169   -1.6389468939