15

 N   -0.2870322165    1.2095877267    0.0932194611
 C   -0.1040127266   -0.1205168470   -0.1234528215
 O    0.7805906453   -0.6293336729   -0.7642870704
 O   -1.0678080242   -0.8262473159    0.5578916752
 C   -1.0370138378   -2.2081424867    0.3531808366
 C   -2.1893611960   -2.9615176212    0.9057007417
 C   -2.0550527117   -2.8057227127   -0.6115208308
 C   -2.9531746393   -1.9278385828   -1.3026879869
 N   -3.6694294854   -1.2116272529   -1.8616645866
 H    0.2427350551    1.8305547281   -0.4942111526
 H   -1.1801386253    1.5268878342    0.4311162377
 H   -0.0419067550   -2.6349439104    0.3423925431
 H   -2.0206198921   -3.9475327003    1.3213542617
 H   -2.9713955736   -2.3820109874    1.3810724308
 H   -1.7372919569   -3.6716966086   -1.1815978692