16

 C    0.0076146211    1.5749561171    0.0150737373
 C    0.0184229388    0.0369411677    0.0593240548
 C    0.7862774732   -0.5094371266    1.2756355716
 O   -1.3502383923   -0.4846562842    0.0425501973
 C   -2.1924683795   -0.1906451165    1.0483624344
 O   -3.3172204700   -0.5959911358    1.0732605053
 C    0.6172636386   -0.4840796593   -1.1722094861
 C    1.1485221422   -0.8886129909   -2.1696700714
 H    1.0278371149    1.9444782344   -0.1140091327
 H   -0.5968593484    1.9204161284   -0.8262652671
 H   -0.3934053543    1.9963804290    0.9407106329
 H    0.3905418777   -0.1035342456    2.2104455654
 H    0.7182232872   -1.5990485036    1.3019326764
 H    1.8394130767   -0.2278567293    1.2002772867
 H   -1.7568433719    0.4486338164    1.8354603758
 H    1.6056334661   -1.2540359913   -3.0563447406