19

 N    0.3993674927    1.4721219040   -0.0634492564
 C    0.1577656569    0.0877089215    0.0002268843
 C   -1.0444932963   -0.5797822405    0.0690457876
 C   -0.7685636626   -1.9739405519    0.1153818143
 C    0.5959691700   -2.1216561462    0.0854238998
 N    1.1674407288   -0.8689378553    0.0026144248
 C    2.5912791368   -0.6155866357   -0.0492984532
 C    3.2224459297   -0.2976765396    1.3057937706
 O    2.8296052693    1.0131647575    1.6953666479
 H    1.2175850673    1.7355305352    0.4749480123
 H    0.4846340771    1.8233808902   -1.0112474191
 H   -2.0106436737   -0.1000771549    0.0898795565
 H   -1.4885137793   -2.7760788645    0.1726562884
 H    1.2162449855   -3.0039739428    0.1193674355
 H    3.0798631159   -1.5001350863   -0.4687066799
 H    2.7841137121    0.2220084359   -0.7284662980
 H    2.8982479014   -1.0473062135    2.0393600498
 H    4.3179279862   -0.3591118149    1.2126158385
 H    2.8638128921    1.0807965120    2.6529610063