22

 C   -0.1399589002    1.4762906503   -0.0385709336
 N    0.0510002973    0.0385179345    0.0213988513
 C    1.2629222171   -0.6429507060   -0.3945121446
 C    2.5898943002    0.1076234573   -0.4480241660
 C    2.8041237186    0.7213976769    0.9595738825
 C    1.8588238513   -0.0470104762    1.9190021527
 C    1.3113986330    0.7912573396    3.0681468106
 O    2.4167572120    1.2065864773    3.8607823937
 C    0.7988538084   -0.6958372126    1.0316272898
 H    0.7493092216    2.0952178869    0.1394101215
 H   -0.5260683281    1.7291621673   -1.0323126632
 H   -0.9037215760    1.7621080506    0.6922672808
 H    1.1173271774   -1.4670460310   -1.0903891434
 H    3.3805103329   -0.6131593695   -0.6855270611
 H    2.6133011189    0.8660987325   -1.2389366634
 H    3.8442857530    0.6463610393    1.2837230480
 H    2.5640287279    1.7886222548    0.9672811170
 H    2.4170086504   -0.8737195938    2.3803324692
 H    0.7591625141    1.6592668802    2.6761093318
 H    0.6019539748    0.1903242987    3.6600364158
 H    2.0860877311    1.7637903566    4.5711673738
 H    0.2717822742   -1.5557671437    1.4419558367