23

 C    0.0243328459    1.4847574363    0.3652369853
 C    0.0151818725    0.0063333830    0.0087940525
 C    1.0502063828   -0.4559717792   -0.9924673574
 C    1.2030297995   -0.8197512381    0.4627803321
 C   -1.3340004353   -0.6399689389    0.0561139679
 C   -1.8350163090   -1.6901969920   -0.8979678009
 C   -2.6013479892   -0.3988994990   -0.7835831473
 C   -3.4780984932   -0.4257712112    0.4694827922
 C   -2.2028375897   -0.7018989017    1.3316610643
 H    1.0408035825    1.8897776617    0.3386866971
 H   -0.5866962810    2.0612787920   -0.3383546266
 H   -0.3717618195    1.6599631906    1.3715649866
 H    0.8003468771   -1.2484435706   -1.6875558758
 H    1.7139942076    0.2974690300   -1.4036785798
 H    1.9777963722   -0.3280399294    1.0418112488
 H    1.0221687022   -1.8518084800    0.7433210547
 H   -1.2734074501   -1.8068116853   -1.8182916335
 H   -2.2646366416   -2.6172305082   -0.5206637140
 H   -2.7369271967    0.2485838294   -1.6424197653
 H   -3.9312441710    0.5406200583    0.7026773555
 H   -4.2626468328   -1.1901463863    0.4886204139
 H   -2.1699667649   -1.6500448382    1.8791613663
 H   -1.9967521283    0.1074697366    2.0351369935