14

 N   -0.0330498258   -1.2248139419   -0.0536837123
 C    0.0022071324   -0.0713990849    0.0009121715
 C   -0.0157278553    1.3803300981    0.0103085599
 C    0.0847691922    2.1092660743    1.3859680522
 N    1.5053293340    1.5991634806    1.4655963576
 C    1.3496193042    2.1334651665    0.0603158979
 C    0.5906725772    3.3846018005    0.6254829172
 C   -0.3080053485    4.1569111422   -0.2178812320
 N   -1.0259871676    4.7628610927   -0.8918707980
 H   -0.7557134684    1.7719469606   -0.6885876585
 H   -0.6119686073    2.0594446278    2.2211114792
 H    2.0797277055    2.2361678314    2.0252770101
 H    2.1518006447    2.1123210220   -0.6755157729
 H    1.2158052427    4.0419292500    1.2339416781