17

 O   -0.0237540344    1.4402538905    0.1683622970
 C    0.0109578056    0.0468914779   -0.0973495455
 C   -1.3444203992   -0.5732919227    0.0165966266
 C   -2.0497812167   -1.0519249574    1.2448756391
 C   -1.8760854146   -1.9854181799    0.0611726275
 C   -2.8228831954   -1.5345709187   -1.0601384366
 O   -2.3141182784   -0.1645991051   -0.9697820666
 C   -2.5728199504   -2.1302481113   -2.3610661564
 C   -2.3722938894   -2.6445147840   -3.4284836776
 H   -0.6343708021    1.8315171715   -0.4664377917
 H    0.4212478433   -0.1589179040   -1.0975440775
 H    0.6831461446   -0.3986957589    0.6428818279
 H   -1.4124613469   -1.2819560938    2.0931162910
 H   -3.0284284549   -0.6525723974    1.4959169185
 H   -1.3684765608   -2.9387990607    0.1023537031
 H   -3.8937734886   -1.5681177583   -0.8235840541
 H   -2.1983823815   -3.0915080779   -4.3762403748