14

 C    0.0312854057    1.4206034699   -0.0738271223
 O    0.0150183212   -0.0083959746   -0.0212543451
 C    0.5860783536   -0.6699897952   -1.0223530018
 C    0.7143833943   -2.0063727376   -1.2319706140
 C    1.4236350696   -2.1192594740   -2.4828808442
 C    1.6626743980   -0.8506503230   -2.9225971649
 O    1.1518963252    0.0452085451   -2.0313994565
 C    1.8070326883   -3.3127814605   -3.1443721856
 N    2.1162723901   -4.2927850571   -3.6777890296
 H    1.0567883044    1.8021567217   -0.0812164046
 H   -0.4971984823    1.7875406935   -0.9589159290
 H   -0.4818217881    1.7500522510    0.8291580079
 H    0.3623837867   -2.8023631294   -0.5999285688
 H    2.1505094432   -0.4434651699   -3.7903574015