15

 C   -0.0863956018    1.5202471871    0.0607837197
 C   -0.0144387413    0.0324055625   -0.0626433120
 C   -0.0007925629   -0.7502131884   -1.1821161736
 C    0.0776476638   -2.0856049397   -0.6877194208
 O    0.1149934036   -3.1813833913   -1.4590899061
 N    0.1109631719   -2.1505385334    0.6217553985
 N    0.0539635640   -0.8349201728    1.0189368888
 C    0.0676651767   -0.4895149547    2.3685165831
 O    0.1274408601   -1.2675888882    3.2795558160
 H    0.7901192809    1.9350519318    0.5696756185
 H   -0.1315966790    1.9596210477   -0.9376483851
 H   -0.9756561840    1.8462624746    0.6105445594
 H   -0.0404959077   -0.4298098839   -2.2099679858
 H    0.1669561138   -3.9455964318   -0.8689230006
 H    0.0152790219    0.6057364705    2.4945561501