21

 C   -0.2324326974    1.5265932121   -0.3666599538
 C   -0.0479612775    0.0337239791   -0.0850455576
 C   -1.3733864773   -0.7248729003   -0.0293223042
 C   -1.2286854791   -2.2163781326    0.2189275702
 O   -0.1541244361   -2.7709822373    0.2484399368
 C   -2.5272048352   -2.9920334385    0.4614234016
 C   -2.4425923339   -4.4263116607   -0.0005762232
 C   -3.6437584067   -5.2109268359   -0.3035336753
 O   -2.8374547351   -4.6737095123   -1.3533949715
 H    0.7314059441    2.0434402420   -0.4000866386
 H   -0.7317273918    1.6930204879   -1.3279471740
 H   -0.8405833921    2.0083182888    0.4075170739
 H    0.5873253331   -0.4219537808   -0.8513587028
 H    0.4845124142   -0.1085490938    0.8619966988
 H   -2.0398672337   -0.3115049648    0.7421811698
 H   -1.9321204560   -0.6089742009   -0.9707446431
 H   -2.7067660236   -2.9616327070    1.5464489148
 H   -3.3767911806   -2.4916794734   -0.0139855635
 H   -1.5361181829   -4.9473038543    0.3015801335
 H   -3.6230676533   -6.2951318877   -0.2020909064
 H   -4.6273711492   -4.7554454397   -0.1903708453