16

 C    0.0503413313    1.5719216276    0.0675907659
 C    0.0314658155    0.0776777193    0.0237369081
 C    0.0134222845   -0.7279426628   -1.0672943675
 O    0.0183055143   -0.4223034167   -2.3796634429
 O    0.0127848015   -2.0425921833   -0.7479183569
 C    0.0304534335   -2.0925347160    0.6422976095
 O   -0.0495664091   -3.3110100385    1.2208517489
 C    0.0453522748   -0.8369268091    1.1507702116
 N    0.1433353836   -0.4596963363    2.5004247097
 H    0.9155292274    1.9480476681    0.6263656340
 H    0.0971198152    1.9849508471   -0.9431253282
 H   -0.8469333802    1.9845735135    0.5478093653
 H   -0.1077823478   -1.2389281956   -2.8759514383
 H    0.8133258151   -3.7452122824    1.1970535735
 H   -0.0684876441   -1.2370058513    3.1150054180
 H   -0.4748822053    0.3109389963    2.7265851392