21

 C   -0.3276123207    1.1785837085   -1.3728102390
 C    0.2006461360   -0.1526698889   -0.8644907770
 O    1.5691904734   -0.3806934205   -1.2518599217
 C    2.0402446010   -0.4721828231    0.1299475285
 C    2.6301617557   -1.8502364622    0.4020355234
 C    3.0459366512    0.6361880458    0.4144902611
 C    0.5791767582   -0.2883550218    0.6382301539
 C    0.1897147260    0.8065799188    1.5936949886
 O    0.9202237507    1.3412716918    2.3894322235
 H    0.2516216570    2.0186686895   -0.9771202020
 H   -0.2538917600    1.2022675792   -2.4643624366
 H   -1.3795308558    1.3174285812   -1.1006577698
 H   -0.4440429948   -0.9653503087   -1.2247872155
 H    3.5364139989   -1.9974936331   -0.1937799607
 H    2.8942471787   -1.9546537002    1.4598929902
 H    1.9187468150   -2.6387597285    0.1397339758
 H    2.6299946022    1.6218866770    0.1972711166
 H    3.3605078490    0.6263236704    1.4602681678
 H    3.9227407867    0.4869560879   -0.2243765518
 H    0.1727437261   -1.2123277140    1.0696649669
 H   -0.8899707747    1.0820702809    1.5422118480