20

 C   -0.2252528233    1.5393747535   -0.0045496132
 C   -0.0282184737    0.0283050386   -0.0058545895
 O   -1.2531738480   -0.6638869794   -0.1592130935
 C    1.1654373857   -0.4512111964   -0.8984201528
 C    2.0438004823   -0.5949381000    0.3860350048
 O    2.8754949922    0.5220137995    0.6580647732
 C    0.7599330390   -0.5041306810    1.2049025785
 C    0.5189078514   -0.2933566095    2.6436401995
 N    0.2985122280   -1.6169920846    2.0256257203
 H    0.7255978965    2.0447415678    0.1804381872
 H   -0.6089556566    1.8811399859   -0.9750796984
 H   -0.9367392122    1.8353440703    0.7732431007
 H   -1.8112878409   -0.1723698963   -0.7699907574
 H    0.9407694780   -1.4213415408   -1.3475245433
 H    1.5323242650    0.2408009456   -1.6617554740
 H    2.5892867075   -1.5398713337    0.4918641149
 H    3.5935562796    0.5164730322    0.0167623945
 H    1.3582224469   -0.2409267820    3.3309201842
 H   -0.3460811463    0.2997512116    2.9321572860
 H   -0.6944619310   -1.7524881514    1.8405320585