15

 O   -0.0507621309    1.3582806018   -0.0097435028
 N    0.0436056068   -0.0393886304   -0.0332605867
 C   -1.1069996187   -0.6049058380   -0.0375888426
 C   -1.1309788318   -2.1163193225   -0.0183002824
 O   -2.1678076943   -2.6104656029   -0.8502310047
 C   -3.4492577600   -2.1775747509   -0.4434605826
 C   -3.5167479053   -0.7043447089   -0.1548059502
 C   -2.4142650157    0.0408085984   -0.0087802811
 H    0.8747776389    1.6230025548    0.0035829237
 H   -0.1906579912   -2.5211113658   -0.3954813335
 H   -1.2712159057   -2.4701667249    1.0180317475
 H   -4.1321859399   -2.4358969461   -1.2610358449
 H   -3.7917664240   -2.7427771424    0.4451552424
 H   -4.5074833200   -0.2650058079   -0.0750642231
 H   -2.4580043981    1.1099938456    0.1541300008