16

 O    0.1102178389    1.4962057314    0.5681842617
 C    0.0964458659    0.1049868325    0.2810751787
 C   -1.2450861358   -0.4440900529    0.0927852298
 C   -2.3607908386   -0.8599815266   -0.0941450256
 C   -3.6893863055   -1.4015076096   -0.2771433797
 N   -4.1184965848   -1.7138864106   -1.6761339156
 C   -4.6294765149   -3.0604095145   -1.3142286575
 C   -3.9432197080   -2.9108187766    0.0491760299
 O   -3.6853748880   -3.6259347662    0.9624948067
 H   -0.3915308522    1.9382199519   -0.1246311423
 H    0.7088558628   -0.1297562863   -0.6041708556
 H    0.5800446897   -0.3806194349    1.1359440425
 H   -4.4229678195   -0.8018344824    0.2861264250
 H   -4.8247211278   -1.0803333834   -2.0313687246
 H   -5.7198065712   -3.1553168045   -1.2099067584
 H   -4.2655534509   -3.8731049572   -1.9516585250