20

 C    0.1098502630    0.7913883263   -2.2695861275
 C    0.0499330737   -0.2747233577   -1.1965639291
 C    1.2360988463   -0.6222797199   -0.2838599580
 C    2.5810681420    0.0673020900   -0.3680898415
 C    0.0309798722    0.0710703499    0.2530517817
 C   -0.1329287432    1.4051598627    0.9740296689
 C   -1.0579313475    0.6060194814    1.8721146789
 N   -1.7569444894    0.8654555897    2.8794478720
 O   -0.8759230537   -0.5792691459    1.1839775328
 H    0.6823369407    1.6664539345   -1.9492146661
 H    0.5776256706    0.4071190934   -3.1822740593
 H   -0.8964985342    1.1354422449   -2.5315355656
 H   -0.5650468923   -1.1343774837   -1.4520792794
 H    1.2882589491   -1.6774117375   -0.0260430533
 H    2.4829639686    1.1388562390   -0.5637075275
 H    3.1346491893   -0.0457166426    0.5702614121
 H    3.1941507225   -0.3595407863   -1.1689713622
 H    0.7558098376    1.7987371664    1.4711489410
 H   -0.6221309938    2.2023947018    0.4110092071
 H   -2.2530049714    0.0350162837    3.2079156250