20

 C   -0.0364819467    1.4513575225   -0.0887665107
 N   -0.0682184576    0.0215244022    0.1117704056
 C   -1.3024336285   -0.6429338101    0.5652050265
 C   -0.4176903496   -1.6763499668    1.3063278123
 O   -0.1425582574   -2.8593648268    0.5956706043
 C    0.6954770459   -0.5795107283    1.2081191490
 C    2.1219374025   -1.0077304154    0.8982532880
 C    2.7763515856   -1.8980417551    1.9349893245
 O    2.6746874635   -0.6683404344   -0.1218659311
 H    0.9781621150    1.7542328684   -0.3606482978
 H   -0.7049839227    1.7250028820   -0.9116384665
 H   -0.3475293314    2.0197170188    0.8089711492
 H   -1.9032540495   -0.0385982473    1.2665220885
 H   -1.9522967698   -1.0236692842   -0.2308864594
 H   -0.7286921663   -1.9780279178    2.3062727014
 H    0.0942125075   -2.6058347966   -0.3054566204
 H    0.7062536180    0.0322001500    2.1321395428
 H    2.2801877428   -2.8753792544    1.9099238831
 H    3.8363406266   -2.0195192435    1.7086620834
 H    2.6500547921   -1.4943443330    2.9452448871