17

 C   -0.0403088022    1.4707269766    0.0169099311
 C   -0.0212590920    0.0160967484    0.0008573892
 C   -0.0090151409   -1.1894887404   -0.0139266081
 C    0.0327750802   -2.6108431902   -0.0132207451
 C   -0.3450579275   -3.4659236832   -1.1803628610
 C   -1.1828131035   -3.6116081173    0.0777116036
 C   -0.4140928705   -4.3833632245    1.1043164501
 O   -0.7112165314   -5.2561031641    1.8695027490
 C    0.8375925004   -3.4756929657    0.9839493730
 H    0.7646424283    1.8678801734    0.6451132156
 H    0.0906332814    1.8833963023   -0.9895674424
 H   -0.9877196164    1.8532542419    0.4129829798
 H   -0.8569637310   -2.9587135589   -1.9907636854
 H    0.3121326965   -4.2717081310   -1.4966118376
 H   -2.2469134791   -3.4112096937    0.0739403172
 H    1.7651818205   -3.9173421392    0.6088282109
 H    1.0303496871   -2.9774825146    1.9374447500