17

 O   -0.1664411996    1.3200048006    0.1265361694
 N   -0.0030087804   -0.0738313192    0.0799280263
 C   -1.1274486866   -0.6587606030   -0.0027052762
 C   -1.2590321037   -2.1625603554   -0.0688691273
 C   -2.6807249264   -2.3931251346    0.4769481047
 N   -3.3916361199   -1.1784326690    0.0837162502
 C   -2.5000070696   -0.0250327380    0.0023316923
 C   -4.6799539356   -1.1228267044   -0.3375622626
 O   -5.2364070693   -0.1161413620   -0.7253901545
 H    0.7405742929    1.6326154442    0.2122987592
 H   -1.2014735424   -2.4945523376   -1.1127029761
 H   -0.4802380595   -2.6780235126    0.4947169041
 H   -3.1700189236   -3.2763342256    0.0597730322
 H   -2.6586334422   -2.5005002522    1.5703240896
 H   -2.6104631251    0.6575594600    0.8543846596
 H   -2.7110553126    0.5583557638   -0.8996439138
 H   -5.1755361963   -2.1134462550   -0.2917476373