17

 C   -0.0327900174    1.5055017774    0.0519445012
 C   -0.0021338754    0.0117905464   -0.0276932649
 C   -0.0192084567   -0.7376078893   -1.1398205805
 C    0.0187072557   -2.1945827099   -0.9482691146
 C   -0.6752874323   -2.7240823870    0.3285600438
 O   -1.0610454080   -1.7296852295    1.2349845101
 C    0.0542153532   -0.8266658012    1.2251003432
 O    1.2067503731   -1.6796495809    1.1664320048
 C    0.8111560646   -2.6912913524    0.2836429733
 H    0.8544908417    1.8987671951    0.5647326137
 H   -0.0716376132    1.9531060313   -0.9450235179
 H   -0.9053248715    1.8599270841    0.6158266542
 H   -0.0586861510   -0.3143110071   -2.1387562030
 H    0.0070705819   -2.8492610908   -1.8115615060
 H   -1.3188721019   -3.5919442721    0.3295142680
 H    0.0702824991   -0.2701172300    2.1626018434
 H    1.4912367381   -3.5299513243    0.2445851112