21

 C    0.2273405546    1.4010000751    0.2566834370
 C    0.1499523020   -0.1177179066    0.0802314672
 C    0.7040424931   -0.5872845207   -1.2544439058
 O    2.1000282368   -0.2341349948   -1.3482146798
 C    2.6714361246   -1.1442510837   -2.2785701916
 C    2.1265474803   -2.4871333202   -1.8128850650
 O    2.7684204906   -2.9030848603   -0.6074930858
 C    0.6403276377   -2.1360615508   -1.5089906546
 O    0.1269033731   -2.8994583133   -0.4461619517
 H    1.2607504189    1.7499471263    0.1817251558
 H   -0.3557818606    1.9185093057   -0.5134540548
 H   -0.1666287841    1.7029760919    1.2317381325
 H    0.6947033012   -0.6242982829    0.8848158351
 H   -0.8860083213   -0.4648415433    0.1556355992
 H    0.1751588201   -0.0746630072   -2.0748042721
 H    2.3531479024   -0.9216286398   -3.3104179983
 H    3.7601081748   -1.0728198733   -2.2162466701
 H    2.2418589790   -3.3034030854   -2.5281573963
 H    2.9401736982   -2.0961952391   -0.1028311601
 H    0.0172966678   -2.3339103131   -2.3882260407
 H    0.9043682107   -3.2285521247    0.0303166898