18

 C   -0.3250974026    1.4758820068    0.1719014115
 C    0.1107466783    0.0106970161    0.0026354075
 C    0.7869862965   -0.5357864487    1.2210217632
 N    2.0624363743   -0.8399852313    1.2248638589
 O    2.3578992237   -1.3000232757    2.5007953855
 C    1.2374043020   -1.2645562822    3.2543566327
 C    0.2066057678   -0.7903582878    2.5038699866
 O   -1.0958825653   -0.5722521339    2.7866485825
 C   -1.4851806530   -0.8977250823    4.1109997384
 H    0.5395650321    2.1201810848    0.3564655485
 H   -0.8293971330    1.8318168610   -0.7312557223
 H   -1.0158993306    1.5822518900    1.0128758109
 H   -0.7682720676   -0.6060786193   -0.2191979646
 H    0.7998034223   -0.0888997376   -0.8408254587
 H    1.3356559553   -1.6016163604    4.2723240064
 H   -0.9311876618   -0.2954002368    4.8433180966
 H   -2.5503906697   -0.6774453092    4.1893879538
 H   -1.3141554987   -1.9620839235    4.3201678925