19

 C   -0.1096080277    1.5305482342   -0.1199650113
 N    0.0867995739    0.1020792033    0.0083492056
 C    0.9981047080   -0.6033273254   -0.9100516644
 C    1.4622649181   -1.5020256375    0.2674030277
 C    2.9341582526   -1.4153023136    0.6485466171
 O    3.0980217773   -0.1406709036    1.2970593069
 C    1.9011175940    0.3166343451    1.7820829282
 N    1.7765225085    1.2952692390    2.5710930769
 C    0.7483177187   -0.4841658141    1.1944176629
 H    0.8278737851    2.1116389422   -0.1332200387
 H   -0.6526708480    1.7312350569   -1.0501236512
 H   -0.7133528682    1.8936004758    0.7163111643
 H    0.4979063071   -1.0935893110   -1.7524634341
 H    1.8159359321    0.0229245510   -1.3035283279
 H    1.0726085389   -2.5186225226    0.2544150413
 H    3.2223820376   -2.2083679226    1.3499123001
 H    3.6136863052   -1.4416911022   -0.2079074161
 H    2.6914568545    1.6827007777    2.8118759188
 H    0.0586026222   -0.8105840828    1.9770131339