20

 C   -0.0585519501    1.2617817253   -0.3804116026
 C    1.3037592152    0.9695881240    0.1442634198
 N    0.3017884767   -0.0850348892    0.0499306103
 C   -0.2271136283   -0.6197910542    1.2875267426
 C   -1.1287276098    0.1793440694    2.2727226621
 C   -2.4258029044   -0.0507179271    1.4097133068
 C   -3.2091036526   -0.6140918368    2.6104301852
 C   -1.7767220956   -1.1493387274    2.7971371369
 C   -1.5741180938   -1.3620924366    1.2568912890
 H   -0.7101883319    1.8561055648    0.2549504829
 H   -0.2267639225    1.3849769484   -1.4468998926
 H    2.1525687001    0.8792787301   -0.5283162518
 H    1.5441686315    1.3630874627    1.1312166364
 H    0.5804799226   -1.1822597701    1.7724105814
 H   -0.9112188383    1.0576971247    2.8839561005
 H   -2.7894107532    0.5812296774    0.5998384247
 H   -3.5674898031    0.1080543190    3.3515290231
 H   -3.9856711567   -1.3536340308    2.3889253124
 H   -1.3686090375   -1.7836788548    3.5857161264
 H   -1.8546356884   -2.2486464189    0.6863042964