18

 C    0.0794909112    1.5668987708    0.2298309073
 C    0.0125436797    0.0440601773    0.0209404980
 C    0.6159290448   -0.3986520691   -1.2749111311
 C    0.0193802468   -0.6870623330   -2.4851468191
 C   -1.3865202668   -0.6750643731   -2.9849512173
 O   -1.4521420261   -1.5506358787   -4.1042523796
 N    1.0609342022   -0.9971077686   -3.2930229754
 N    2.2341914399   -0.9281819424   -2.6426492221
 N    1.9662998101   -0.5558675551   -1.4239088911
 H    1.1171957872    1.9104285002    0.1985758684
 H   -0.4726911408    2.0988758644   -0.5520261639
 H   -0.3473296022    1.8477968158    1.1976903743
 H    0.5465762432   -0.4557978336    0.8359032629
 H   -1.0303058182   -0.2911965712    0.0740927185
 H   -2.0655193184   -0.9891318315   -2.1780247750
 H   -1.6788992072    0.3475005073   -3.2730074419
 H   -2.3069238343   -1.4353208216   -4.5294236892
 H    1.0131205989   -1.3264092778   -4.2443927437