15

 C   -0.0362027132    1.5105304975    0.0313761921
 C   -0.0115825720    0.0146873826    0.0025759267
 C   -0.0276629700   -0.7983821096   -1.1028853646
 N    0.0061948805   -2.1083862656   -0.6805842677
 C    0.0437376431   -2.1563086257    0.6812472450
 C    0.0342753070   -0.8536535376    1.1510153840
 C    0.0640643837   -0.4472556878    2.5045781041
 C    0.0887502336   -0.0723926202    3.6500999197
 H    0.8499639981    1.9169374405    0.5317527417
 H   -0.0705578256    1.9239822314   -0.9805466133
 H   -0.9073535322    1.8870898046    0.5792232531
 H   -0.0601499608   -0.5525396740   -2.1523397809
 H    0.0027344236   -2.9109101028   -1.2847201344
 H    0.0742156970   -3.0902882146    1.2176073960
 H    0.1106199771    0.2497671113    4.6609819884