25

 C   -0.0903508644    1.5578999358    0.0170495529
 C   -0.0024582987    0.0248819152   -0.0217023254
 C    0.6573283960   -0.4275951166   -1.3362090226
 C    0.6302682903   -1.9434912553   -1.6123341502
 C    1.5735894690   -2.7569352857   -0.7599155484
 C    1.5791345979   -2.7846902583    0.5720515991
 C    0.6384939861   -2.0219496861    1.4818365023
 C    0.9255075207   -2.3596670723    2.9524248306
 C    0.6850166339   -0.4938382021    1.2545956508
 H    0.9097284969    2.0078875914    0.0160395030
 H   -0.6289587164    1.9474880251   -0.8533415750
 H   -0.6087336032    1.9054436647    0.9169258325
 H   -1.0316246766   -0.3676934543   -0.0201763441
 H    0.1410242433    0.0783728002   -2.1621325723
 H    1.6975442139   -0.0759049211   -1.3614542180
 H   -0.4004134497   -2.3058215790   -1.4799181121
 H    0.8700421615   -2.1102940514   -2.6676152818
 H    2.3065234203   -3.3613943917   -1.2897723223
 H    2.3183219604   -3.4094115527    1.0711809263
 H   -0.3909752821   -2.3478430116    1.2623417674
 H    1.9259827168   -2.0180240585    3.2433672551
 H    0.2017894939   -1.8808113726    3.6192188277
 H    0.8806431195   -3.4400389705    3.1251554292
 H    1.7319462443   -0.1606405093    1.2700361400
 H    0.1969230163   -0.0115172134    2.1119648052