18

 C   -0.0323661050    1.5628755469   -0.1017582552
 O    1.3401726363    1.9451872515    0.0131336624
 C    2.1043529360    0.7401414569    0.0592825715
 C    2.4159336153    0.3523570666    1.5085534660
 C    1.1018787733    0.2512752628    2.3069168631
 C   -0.0029255487   -0.4547130252    1.4930693814
 C    0.0074715253    0.0303851177    0.0373047529
 O    1.2925419981   -0.2533071720   -0.5325417417
 H   -0.6226430324    2.0512606500    0.6816090378
 H   -0.4196592504    1.8673600347   -1.0817708490
 H    3.0022711892    0.8650750204   -0.5533697147
 H    2.9449691520   -0.6076951618    1.4887392616
 H    3.0868048705    1.0912169168    1.9586730066
 H    1.2664367370   -0.2679632871    3.2560742469
 H    0.7719019530    1.2644465798    2.5607261330
 H    0.1634233336   -1.5379329254    1.4806431838
 H   -0.9862149008   -0.2834109149    1.9466552304
 H   -0.7476664323   -0.4748011076   -0.5687991466