23

 C   -0.1435591761    1.5712221079   -0.0111548238
 C   -0.0160540217    0.0366070880    0.0116466122
 C    0.8175490019   -0.4718999269   -1.1428530642
 C    1.9997115167   -0.9657479075   -0.7687904590
 C    3.0853648784   -1.4946523660   -1.6516614471
 C    2.1602276173   -0.9032206302    0.7360068408
 C    0.7568829061   -0.5250972598    1.2248906431
 C    0.5178210452   -0.0497483374    2.6319013030
 C    0.0541325152   -1.4239547214    2.2120777822
 H    0.8405266646    2.0466577713    0.0536469643
 H   -0.6169886226    1.9065785685   -0.9403399959
 H   -0.7531001417    1.9359298558    0.8221534556
 H   -1.0312099688   -0.3832018494   -0.0192732448
 H    0.4861263379   -0.3829260500   -2.1732929297
 H    2.8067919996   -1.4474191255   -2.7080622059
 H    4.0157964929   -0.9269297840   -1.5195425873
 H    3.3235223692   -2.5380998030   -1.4078509407
 H    2.5075342362   -1.8544348370    1.1607490844
 H    2.9177622586   -0.1534455716    1.0118367043
 H    1.3722798072    0.0220574185    3.2977791469
 H   -0.2362063271    0.7119188720    2.8013773643
 H   -1.0127336770   -1.5837680208    2.0893859340
 H    0.5916960179   -2.2864812515    2.5939768834