21

 C   -0.0181534519    1.5060962370   -0.1239296267
 C   -0.0075437555    0.0108203359    0.0569764808
 O    1.2647815152   -0.6506095739   -0.0575725988
 C    0.6282752652   -0.6532626726    1.2013117326
 C    1.1715373197   -0.0432283405    2.4934638973
 C    0.3235475813   -1.0967286044    3.2664881709
 C    0.1638804411   -1.9224718964    1.9454333537
 C   -1.1959262530   -2.5199426380    1.6222557473
 O    1.1989426689   -2.8861112675    1.8018898604
 H    0.8095547041    1.9723591183    0.4159994030
 H    0.0776712755    1.7641189181   -1.1837676743
 H   -0.9600533947    1.9314444743    0.2403124360
 H   -0.8167603909   -0.5221365521   -0.4460222348
 H    2.2444700789   -0.2210963681    2.5953521541
 H    0.9615607429    1.0113477410    2.6848302523
 H    0.8213184718   -1.6238525024    4.0830776312
 H   -0.6270420396   -0.6918143519    3.6236859063
 H   -1.9897051002   -1.7693525728    1.6843190189
 H   -1.1931898502   -2.9486195004    0.6152690010
 H   -1.4414985326   -3.3224491153    2.3293370225
 H    1.0111635940   -3.6067708584    2.4134961865