18

 C    0.0070388688    1.4857333017   -0.2096677030
 C    0.1016688604    0.0026039370    0.0820290918
 O    1.1363140349   -0.5342417194    0.3991309684
 C   -1.2028714310   -0.7890933995   -0.0330811043
 C   -0.9882844108   -2.3110243350   -0.0314377446
 C   -2.3001961017   -3.0874447910    0.2394407327
 O   -2.1089745607   -4.4801435478    0.2780644708
 C   -0.4240688583   -2.7698835123   -1.3041654207
 N   -0.0445353210   -3.1706206517   -2.3202327470
 H    0.9385032730    1.9799338224    0.0676321293
 H   -0.1755923038    1.6347531011   -1.2806064043
 H   -0.8354882822    1.9397049164    0.3229993930
 H   -1.8246120696   -0.5131823261    0.8304131065
 H   -1.7595967731   -0.4640061560   -0.9189511619
 H   -0.2655803975   -2.5598541612    0.7522847484
 H   -2.6706675666   -2.7976365766    1.2278714422
 H   -3.0580618227   -2.7934222934   -0.5029240323
 H   -1.8449356583   -4.7730859587   -0.6020196449