18

 C   -0.0022978277    1.3529649131   -0.1920958612
 O   -0.0042406577   -0.0235349113    0.1685360264
 C   -1.2500289166   -0.5895968248    0.1614852275
 C   -2.3375090088   -0.3816762002    1.2256137824
 C   -2.7022004299   -1.8995712366    1.0806794507
 C   -1.5925130779   -2.0530773681    0.0333128483
 C   -1.8513641032   -1.1113458344   -1.1444663896
 C   -3.1719192539   -0.7810662180   -1.6013022972
 N   -4.2429527923   -0.4997415475   -1.9395577589
 H    1.0349877877    1.6888862061   -0.1464256113
 H   -0.3883419616    1.4970078711   -1.2100236121
 H   -0.6056371863    1.9515364792    0.5027801205
 H   -1.9008081753   -0.1558869732    2.2003798818
 H   -3.1218235035    0.3439089991    0.9975903841
 H   -2.4992775872   -2.4648634569    1.9913934702
 H   -3.7141960475   -2.1229936018    0.7352002493
 H   -0.9428769283   -2.9082709392   -0.1052653395
 H   -1.1070621600   -1.1974875167   -1.9299188812