12

 N   -0.2993148362    1.3363027872    0.0139202132
 C   -0.0453900183    0.1078930214    0.0033005456
 O   -1.1194687179   -0.7617495709    0.0091705509
 C   -0.8602464503   -2.1012745645   -0.0021406829
 O    0.2261146409   -2.5991345308   -0.0166264088
 C   -2.1947031527   -2.8375152154    0.0064699902
 C   -2.0489098499   -4.2874134870   -0.0011342606
 N   -1.9654633385   -5.4382408973   -0.0068258093
 H    0.5671301251    1.8727256720    0.0082198255
 H    0.9146377274   -0.4071941067   -0.0101342522
 H   -2.7623318534   -2.5178397161    0.8875614871
 H   -2.7773130062   -2.5103746817   -0.8620644088