20

 C    0.0628758514    1.4917259753   -0.0098176881
 N    0.0461919662    0.0404649789    0.0460432633
 C    0.5269540925   -0.6116989593   -1.1686866176
 C    1.1032468012   -1.9561474612   -0.7072348763
 O    1.2400437078   -2.9361359896   -1.3952317367
 C    1.3857272571   -1.8251256231    0.7490933042
 C    2.2172030773   -0.6023941943    1.1590607325
 C    0.7159049479   -0.5463632625    1.2022450428
 C   -0.0254463731   -0.4466736481    2.5119915709
 H    1.0771982173    1.9132116664   -0.1387547424
 H   -0.5520788921    1.8309539574   -0.8490588296
 H   -0.3657394867    1.9104456209    0.9048745909
 H   -0.2720814163   -0.7664075009   -1.9005977642
 H    1.3282728443   -0.0450953361   -1.6790422422
 H    1.4310030536   -2.7209805428    1.3551394874
 H    2.7598748085   -0.7051240600    2.0925340118
 H    2.7549995216   -0.0617634866    0.3872667689
 H   -0.1010788807    0.5918122147    2.8519198977
 H   -1.0392865527   -0.8437642852    2.4063562882
 H    0.4930563948   -1.0089334039    3.2937941987