18

 C    0.4365709393    1.5036934033   -0.1721474823
 C    0.1279817659    0.0404937934    0.0506020387
 O    0.9100395684   -0.8493087007   -0.7954502089
 C    1.2431114767   -1.6989609998    0.3311548400
 C    0.6369672408   -0.6950609918    1.3265903388
 N    1.7679632922   -0.1512082089    2.0744275039
 C    3.0342965677   -0.3992741047    1.3864083259
 C    2.7561489060   -1.6526699524    0.5548511349
 O    3.5658778979   -2.4378702734    0.1431285031
 H    1.4824281383    1.7360478411    0.0459831458
 H    0.2409864044    1.7714576076   -1.2150532538
 H   -0.2022693499    2.1295036715    0.4610288642
 H   -0.9422369861   -0.1498303819   -0.1160755245
 H    0.8386958345   -2.7100004134    0.2421184959
 H   -0.1479179260   -1.0350475307    2.0061566242
 H    1.6375686613    0.8096531684    2.3621850322
 H    3.3613900142    0.3985714015    0.6982301665
 H    3.8524212143   -0.5847161392    2.0892880754