17

 C   -0.2347775951    1.2216604985    0.0173915719
 O    0.3779137597   -0.0661044986   -0.0545557112
 C    0.7687722309   -0.5727705749    1.1451522319
 O    0.6169616838   -0.0063743968    2.2065442398
 N    1.3510714416   -1.7859345616    0.9633039351
 C    1.7981722334   -2.6106249901    2.0643406442
 C    1.1276897731   -3.9770070464    2.0389005496
 O    1.4633939356   -4.5794964821    0.7941715095
 H    0.4502936084    1.9578133053    0.4462948361
 H   -0.4816228221    1.4890618036   -1.0108561091
 H   -1.1407967793    1.1914612083    0.6286894461
 H    1.3588200276   -2.1848231024    0.0389613671
 H    2.8863806800   -2.7504474744    2.0198923132
 H    1.5587341559   -2.0810794305    2.9886058012
 H    1.4888367736   -4.5780948416    2.8875091726
 H    0.0393056927   -3.8553223971    2.1418548856
 H    0.9490133902   -5.3853244091    0.6946642865