19

 C   -0.2681774238    1.5918866437    0.0298656973
 C    0.0648240068    0.0984079016    0.0175569631
 C   -1.2208887215   -0.7426126045   -0.0619913580
 C    1.0150684162   -0.2757642623   -1.1410900542
 O    1.7336566033   -1.4399406152   -0.7057350216
 C    1.7277555119   -1.5117249073    0.6620163531
 N    2.3012373658   -2.4126806627    1.3345263936
 C    0.9288635465   -0.3529509359    1.2147440035
 H    0.6372521084    2.2037135914    0.1021461327
 H   -0.8013744065    1.8851728646   -0.8815185627
 H   -0.9107029032    1.8421552361    0.8803809188
 H   -1.8020886637   -0.4852621367   -0.9539532223
 H   -0.9958363151   -1.8130312665   -0.1034912433
 H   -1.8543071226   -0.5668388000    0.8135169849
 H    0.4948042575   -0.5303558743   -2.0684355577
 H    1.7311861688    0.5302992739   -1.3494134332
 H    2.7850515364   -3.0656551488    0.7150456041
 H    1.6214089360    0.4420102175    1.5174051203
 H    0.3606686285   -0.6502772844    2.0972184016