19

 O    0.1352642598    1.3574738383   -0.0892060040
 C    0.0239414329   -0.0355933906   -0.0075054175
 C   -0.4223108999   -0.7459815255    1.2577508081
 C   -1.2879468687   -0.7354728851    0.0287146558
 C   -2.6938318479   -0.1428958116   -0.2272949924
 C   -2.5458096714   -0.7371379316   -1.6661530132
 C   -1.8332219131   -1.8552351080   -0.8637370866
 O   -2.8936112853   -2.4231627534   -0.0724649997
 C   -3.5507250002   -1.2357160712    0.4310675626
 H   -0.5799231616    1.7519739861    0.4200662396
 H    0.8328319303   -0.4857012592   -0.5758504725
 H    0.0758065471   -1.6649261659    1.5521419977
 H   -0.7292542501   -0.1219128658    2.0943383125
 H   -2.9551537853    0.8985858389   -0.0383172421
 H   -3.4551946378   -1.0180720158   -2.2030779575
 H   -1.8715544322   -0.1513055478   -2.2911072302
 H   -1.2293186131   -2.6483263292   -1.3013349271
 H   -3.5086992026   -1.2187029356    1.5262430450
 H   -4.5985762809   -1.2209918369    0.1092374015