18

 C   -0.2780409220    1.2384300167    0.0525009095
 O    0.2592028435   -0.0760618636   -0.0617009430
 C    0.8314377676   -0.5370861566    1.0799081307
 C    2.1527798770   -0.1988549050    1.8482915686
 C    2.2683089603   -1.6229563910    2.2621570450
 N    1.5392494595   -0.6469594814    3.1475151969
 C    0.2507677840   -0.9919706668    2.4053812841
 C    0.9625637684   -1.9963391547    1.5052415739
 C    0.4807366438   -3.2320546160    0.8235963643
 H    0.5078910142    1.9720921128    0.2740070818
 H   -0.7316174226    1.4783420774   -0.9109854802
 H   -1.0390272781    1.2864617578    0.8414900088
 H    2.8867932808    0.5975689615    1.7994713068
 H    3.1166567580   -2.2035293412    2.6091071728
 H   -0.7404905245   -0.9811249061    2.8419639335
 H   -0.5035573371   -3.0592345809    0.3764101344
 H    1.1595272000   -3.5347667051    0.0179860949
 H    0.3912045071   -4.0704567278    1.5236762571