12

 N    0.0209843707    1.3075411822   -0.0267029177
 C    0.0071337015   -0.0443643949    0.0230869517
 N   -1.1263153829   -0.6792117969    0.0834785497
 O   -1.0869618160   -2.0730782106    0.1899508870
 N    0.0636956314   -2.7843792140    0.2238371047
 C    1.1853964128   -2.1515149687    0.1426768354
 C    1.3141180219   -0.7175457899    0.0197773577
 N    2.3804487957   -0.0120451391   -0.0933444042
 H    0.9051428606    1.7296552410   -0.2639737031
 H   -0.8367091687    1.8006188916   -0.2077991309
 H    2.0705118031   -2.7819063490    0.1713520648
 H    3.2167773398   -0.5995105716   -0.0906606851