19

 C    0.0085908993    1.6968155088   -0.0273580988
 C    0.0360740287    0.1710324973    0.0415622030
 N    0.7603210367   -0.4149816548   -1.1072512262
 C    1.5961592040   -1.2512374045   -0.6448734262
 N    1.6570823597   -1.4719021357    0.7689621865
 C    2.1644081582   -0.2515903438    1.4599629612
 C    0.7061199881   -0.4447052553    1.2812199788
 C   -0.1651987643   -0.8877479668    2.4341362882
 O   -1.1302388236   -1.8390682884    2.0240801118
 H    1.0184098387    2.1163764062    0.0079837968
 H   -0.4600596406    2.0218421286   -0.9596882986
 H   -0.5654649074    2.1098758332    0.8083399273
 H   -0.9960233179   -0.2007904147    0.0044977124
 H    2.2624537799   -1.8371233817   -1.2723002237
 H    2.6175873254   -0.4413114008    2.4287266303
 H    2.6787149651    0.4828161135    0.8466066466
 H    0.4671475957   -1.2762974483    3.2462061265
 H   -0.7266650251   -0.0343396358    2.8310930347
 H   -0.6411963205   -2.5854092570    1.6577854194