16

 O   -0.1455021161    1.3157293560   -0.0693982637
 C    0.0140317985   -0.0205898116   -0.0715560200
 C    0.2259482250   -0.8431326663   -1.1267810822
 O    0.3229941115   -2.1238110452   -0.6119442618
 C    0.1625823118   -1.9828035834    0.7196292382
 N   -0.0253007886   -0.7505827407    1.0995984640
 C    0.2137778580   -3.1770555395    1.5648584545
 C   -0.3325020602   -4.5010822559    1.0599589693
 C    1.1466048410   -4.3246788722    1.2196038726
 H   -0.2755344164    1.5738142996    0.8512089078
 H    0.3266633594   -0.7265466513   -2.1890286047
 H    0.0728385962   -2.9434334398    2.6125617258
 H   -0.8655216725   -5.1195822395    1.7728826281
 H   -0.7347957147   -4.5123999275    0.0538918888
 H    1.7429365579   -4.2168955488    0.3213218931
 H    1.6465319394   -4.8199831638    2.0440181801