19

 O    0.2977364100    1.3063494241    0.3448302546
 C    0.0836870652   -0.0719096885    0.2460622632
 C   -0.7628707176   -0.8354642745    1.2340286878
 C   -1.2319497232   -0.6315551843   -0.1912184535
 C   -2.4578029059    0.1988310469   -0.6194482783
 C   -2.8532957399   -0.9856624168   -1.5126181626
 C   -4.1814763049   -1.5467430990   -1.7581219599
 O   -3.4535686081   -0.8550434333   -2.7849516627
 C   -1.5280498802   -1.7129922598   -1.2468988156
 H   -0.5101221364    1.7218274260    0.6632485648
 H    0.9884807974   -0.5485142355   -0.1192443266
 H   -0.4382241963   -1.8251943797    1.5419605038
 H   -1.2679610700   -0.2700419136    2.0135186050
 H   -3.1744734948    0.4792624399    0.1584569060
 H   -2.1920687681    1.0884363009   -1.2016416241
 H   -4.2979856315   -2.6192444301   -1.9109649652
 H   -5.0664582681   -1.0309859263   -1.3864392793
 H   -0.8542499212   -1.6845580829   -2.1093699124
 H   -1.6052806764   -2.7433138536   -0.8877198350