18

 C   -0.3745385595    1.4751334966   -0.0906788963
 C    0.1448233270    0.0434332593    0.1012511307
 C    0.8787650396   -0.4955930176   -1.1041986560
 N    0.1296880140   -0.9384684222   -2.3162141528
 C    0.9170993984   -1.9195605156   -1.5037842356
 C    2.2927609509   -2.1850737580   -2.0940326335
 O    2.7331666368   -3.2519042886   -2.4492687172
 C    2.9897527308   -0.8656974849   -2.0900886000
 C    2.2149989760    0.0656848215   -1.5203965397
 H    0.4437588639    2.1790671148   -0.2730052152
 H   -1.0594115341    1.5364137452   -0.9422007090
 H   -0.9098778642    1.8152011074    0.8003635647
 H    0.8112853762    0.0046358880    0.9718420543
 H   -0.6942735007   -0.6261275788    0.3273344989
 H   -0.8530117213   -1.0601661158   -2.0627091322
 H    0.3973272807   -2.7090189990   -0.9738921496
 H    3.9737674831   -0.7282263768   -2.5189476282
 H    2.4694383725    1.1124041847   -1.3979037431