23

 C   -0.1653360817    1.5418011161    0.4983971883
 C   -0.1350235454    0.0705510637    0.9314054495
 C   -1.4016829829   -0.6523510521    0.5393681796
 O   -1.5830633917   -0.9568998383   -0.8514623451
 C   -1.4886907425   -2.0474355712    0.0750083542
 C   -0.3221885160   -3.0009134184   -0.0696185403
 C   -0.1883876987   -3.8887621203    1.1750784685
 C   -0.5024546384   -3.8320920522   -1.3429425115
 O    0.6479763963   -4.6496367255   -1.5042013013
 H    0.7545710515    2.0571131463    0.7894982934
 H   -0.2721719905    1.6185943089   -0.5876077765
 H   -1.0067640537    2.0732093131    0.9564194367
 H    0.7328651064   -0.4258679616    0.4883388901
 H   -0.0211201902    0.0030471507    2.0213639247
 H   -2.3023098989   -0.2424718023    1.0057371367
 H   -2.4452860880   -2.5526166539    0.2419271731
 H    0.5997542431   -2.4253094087   -0.2006987600
 H    0.6163393461   -4.6132646881    1.0361936978
 H    0.0270146036   -3.2920150158    2.0667807512
 H   -1.1150436499   -4.4454882551    1.3605577531
 H   -1.4165931611   -4.4443055776   -1.2572140008
 H   -0.6343321041   -3.1525543299   -2.1972490579
 H    0.5394988866   -5.1652983078   -2.3081161434