20

 C    0.1755750936    1.5025829432   -0.1332756412
 C    0.0709097596   -0.0168102845    0.0323809050
 C   -1.3666007503   -0.5165875741    0.1008133066
 C   -2.2414069726   -0.4472063340   -1.1840062883
 C   -2.7687205245   -1.8929933240   -0.8982451091
 C   -1.6144373159   -2.0494364223    0.1474229064
 C   -4.1304561253   -1.8988048776   -0.2631059311
 O   -5.0650064880   -2.5653326091   -0.6287893866
 H    1.2193167551    1.8254894802   -0.1924875717
 H   -0.3278984822    1.8386644774   -1.0462988277
 H   -0.2878292565    2.0252987576    0.7108636107
 H    0.5813628248   -0.5156245373   -0.8029426778
 H    0.6018569342   -0.3263406033    0.9425027157
 H   -1.8823406852   -0.0238057462    0.9337169651
 H   -2.9894959926    0.3475832009   -1.2481359679
 H   -1.6377670191   -0.4259201615   -2.0960150164
 H   -2.7726368261   -2.5910705908   -1.7367708137
 H   -0.7805726921   -2.6180937728   -0.2737637156
 H   -1.8773336317   -2.4891871481    1.1135980670
 H   -4.2300457352   -1.2127491137    0.6136456206