14

 N   -0.0096487350    1.2965074194    0.0993255357
 C   -0.0481329161   -0.0568451635    0.0430321244
 N   -1.1866708617   -0.6911402221    0.0281749187
 N   -1.0979202314   -2.0582705833    0.0092272541
 C    0.0531949979   -2.7608519286    0.0080369517
 O   -0.0211124141   -4.1104091027    0.0146122063
 C    1.2669612363   -2.1258475697    0.0026646710
 C    1.3086792656   -0.7003011951    0.0183854675
 O    2.3104937648    0.0160954350   -0.0066988120
 H    0.9067757557    1.6841476740   -0.0754785258
 H   -0.8334773259    1.8287274235   -0.1199600128
 H   -1.9912000905   -2.5132810117    0.1041336259
 H   -0.9123036372   -4.4097899794   -0.1968789033
 H    2.1781873015   -2.7060645457   -0.0326185616