17

 C    0.0039556230    1.4717368367    0.1107113680
 C    0.0756007465   -0.0179207428    0.0999968550
 C   -0.7125071395   -0.9706208358    0.9674321579
 C    0.7987079177   -1.0584730224    0.9166281392
 C    1.2467337974   -1.6408272926   -0.4152742885
 O    0.4303530621   -0.6731294998   -1.1289797139
 O    1.6398103346   -0.9042062592    2.0174593691
 C    1.4769506534   -1.7738169592    3.0490593705
 O    2.1659130159   -1.7412542017    4.0205442733
 H    0.9267412786    1.9054325330   -0.2850385382
 H   -0.8320761239    1.8193933086   -0.5055748883
 H   -0.1476979198    1.8390718722    1.1292638871
 H   -1.0983953622   -0.5262329152    1.8802322986
 H   -1.3344494633   -1.7432023548    0.5230606327
 H    2.3113928288   -1.4759758928   -0.6130452741
 H    0.9725347225   -2.6763073652   -0.6466896389
 H    0.6480485683   -2.4834679190    2.8766851305