18

 C    0.2457891177    1.3379023566   -0.4529765998
 C    1.4381170279    1.9659988679    0.3195604837
 C    2.1228237378    0.8055611190    1.0316291643
 C    2.4921995319   -0.4044246568    0.1928157301
 N    3.2499636839   -1.4285458599    0.8813156734
 C    2.4812883629   -1.8847059819    1.7872370278
 O    1.2179391417   -1.3903647714    1.8950609494
 C    1.1609912583   -0.3549988610    0.9322815609
 C   -0.1527828709    0.0710834251    0.3411285695
 H   -0.5867225082    2.0352848211   -0.5694813101
 H    0.5630030758    1.0502455749   -1.4604367546
 H    2.1062423754    2.5230891548   -0.3457240712
 H    1.0734319221    2.6711265277    1.0752705878
 H    2.7056217523    0.9899194451    1.9281803412
 H    2.6434329459   -0.3295241060   -0.8794674227
 H    2.7270917098   -2.6617385361    2.5003647053
 H   -0.8560245839    0.3116990007    1.1475633612
 H   -0.6177244806   -0.6929181998   -0.2892758360