13

 O    0.0624242169    1.4248222478    0.0168221613
 C    0.0090176759    0.0630226229    0.0184285577
 C    0.0360394127   -0.8403504759    1.3139076468
 O   -1.3906810471   -0.6291897554    1.5630562343
 C   -1.3178293599   -0.7887535568    0.1099506121
 C   -0.3092499823   -1.9531591474    0.2902886426
 O    0.6450584734   -1.9817050724   -0.7840456719
 C    0.8793692920   -0.6558885658   -0.9911122427
 O    1.6191651130   -0.1827738993   -1.8029524266
 H    0.6886628996    1.6787071764   -0.6776005611
 H    0.7234762389   -0.8338384367    2.1586806894
 H   -2.2356355660   -0.7213151324   -0.4725804808
 H   -0.6219648070   -2.9439016850    0.5994249089