18

 C    0.2231295913    1.5377686177    0.1543237097
 C   -0.0526692622    0.0382321471   -0.0643600743
 C    0.5660782872   -0.5091910850   -1.3121894607
 C   -0.0083986520   -0.8529729595   -2.5318346949
 C    1.0184109715   -1.2877344447   -3.3895519224
 C    2.2142799444   -1.2073595228   -2.6874585519
 N    1.9063461902   -0.7280755257   -1.4255243943
 C    3.5697798041   -1.5318178352   -3.0714336809
 O    3.9107683107   -1.9570837572   -4.1561370470
 H    1.2962339649    1.7385746409    0.2371098137
 H   -0.1607596549    2.1290929480   -0.6818414984
 H   -0.2556148120    1.8891153312    1.0732590429
 H    0.3020318029   -0.5277501000    0.8072361350
 H   -1.1323899742   -0.1307999834   -0.1190914406
 H   -1.0624321939   -0.7906921774   -2.7577597917
 H    0.9307173908   -1.6315898231   -4.4081632241
 H    2.5810585954   -0.5774952171   -0.6932404823
 H    4.3225734858   -1.3563562438   -2.2634661978