21

 C    0.3174475603    1.4986489452   -0.2215611270
 C    0.1347304100    0.0679853094   -0.0276197401
 C   -0.0234406702   -1.1145338639    0.1279443074
 C   -0.1891491604   -2.5471100693    0.3294999128
 O   -1.4283708292   -2.9786508688   -0.2104298935
 C   -1.6344193989   -4.3589478953   -0.0642126500
 C   -2.0447901597   -4.9283146999    1.3262445842
 C   -3.0752091776   -5.8238490597    0.5830168130
 C   -2.9702280072   -4.8671510953   -0.6372341026
 H    1.2322554154    1.7121739755   -0.7852936135
 H   -0.5222855051    1.9275176299   -0.7793530196
 H    0.3838827986    2.0277793553    0.7354431871
 H    0.6422302438   -3.0931717847   -0.1500005636
 H   -0.1370255042   -2.7809755384    1.4059561269
 H   -0.7788575485   -4.9194825750   -0.4756690626
 H   -1.2832201145   -5.4151429607    1.9398807492
 H   -2.5412767413   -4.1505233686    1.9142172030
 H   -2.6693523137   -6.8147169046    0.3620545453
 H   -4.0573966589   -5.9470211309    1.0426863789
 H   -3.7156762499   -4.0687593669   -0.5875801409
 H   -2.9684001189   -5.2938177133   -1.6423552347