17

 C    0.0330248681    1.4977530861   -0.0037247775
 C    0.0297529153   -0.0215212792    0.0354835841
 O    1.0958083812   -0.6414946163    0.0386487914
 C   -1.2489787243   -0.6977678667    0.0591685146
 C   -1.3673948609   -2.0940899992    0.0471648953
 N   -0.3705132756   -3.0344956175    0.1292634306
 N   -2.6913865855   -2.4010005638    0.0145601616
 C   -3.4516550666   -1.2290734101    0.0144008557
 C   -2.5918137117   -0.1752641359    0.0434147457
 H    1.0634845211    1.8545818343   -0.0165898464
 H   -0.4922342058    1.8636458426   -0.8926707192
 H   -0.4853015749    1.9080759697    0.8698388577
 H    0.5354475009   -2.5832095314    0.0175582571
 H   -0.4922591208   -3.8682461803   -0.4283721047
 H   -3.0645941409   -3.3332878125    0.0662383214
 H   -4.5273880610   -1.2775573402   -0.0106940027
 H   -2.8725668287    0.8664069702    0.0431894153