21

 C    0.2115457661    1.5071437820   -0.0342070546
 C    0.0947476812   -0.0182910519    0.0843603669
 C    0.5730754893   -0.5032285859    1.4590316806
 C   -1.3456052833   -0.4512631382   -0.2225430522
 N   -1.4665358329   -1.9115300793   -0.2842325698
 C   -2.0151081991   -2.6054612276    0.8634675854
 C   -2.8108757978   -2.4905351420   -0.4027221337
 C   -3.9829208025   -1.6479917402   -0.4172420831
 N   -4.9229048301   -0.9749724586   -0.4624441966
 H    1.2425478269    1.8328728866    0.1347236736
 H   -0.0934823535    1.8584737111   -1.0254473357
 H   -0.4201771448    2.0103570930    0.7073215217
 H    0.7342947228   -0.4771904786   -0.6806216653
 H   -0.0571222779   -0.0988931364    2.2609353494
 H    0.5577590996   -1.5941677973    1.5313339793
 H    1.5993360978   -0.1731801547    1.6496595031
 H   -2.0361838081   -0.0112887903    0.5170749429
 H   -1.6383781151   -0.0612559662   -1.2035456857
 H   -1.5636906608   -3.5608412342    1.1155558473
 H   -2.3594200580   -2.0136918040    1.7096600160
 H   -2.8800454797   -3.3443975074   -1.0710416195