14

 C    0.0501245265    1.4879471064    0.0462850855
 C    0.0077486039   -0.0273300513    0.0018661220
 O   -0.0500591580   -0.6845286257    1.0148517774
 N    0.0350947070   -0.6707789019   -1.2642176381
 C   -0.0859888255   -2.0921573535   -1.2426245171
 N    0.2954957771   -2.8134642185   -2.2051321553
 C    0.0960835739    0.0612709575   -2.4715125509
 O   -0.0416461998   -0.3911242682   -3.5709876008
 H    0.9794385726    1.8798419909   -0.3779237831
 H   -0.7853041822    1.9400704095   -0.4953933133
 H   -0.0061478769    1.7702825932    1.0970222676
 H   -0.5160718070   -2.4271170263   -0.2996493827
 H    0.1059535152   -3.7925875115   -1.9895070659
 H    0.2799181132    1.1304725295   -2.2881269052