18

 N   -0.0115879080    1.4528209240    0.0363543907
 C    0.1248319840    0.0042972994   -0.0487819450
 C    0.9233865270   -0.5142147239    1.1679517133
 N    0.2640477976   -0.0989358711    2.4258527659
 C    0.2289688148   -1.2330275466    3.3663840753
 C    0.5299728890   -2.4146965661    2.4876520804
 C    0.9198059568   -2.0290340796    1.2791140496
 C    2.3217154537   -0.0234137866    1.0926005292
 N    3.4210938988    0.3341951889    1.0658887579
 H   -0.3852907286    1.8259651949   -0.8290217790
 H   -0.6756932013    1.6768326504    0.7708919611
 H   -0.8281848445   -0.5485379005   -0.0541757040
 H    0.6660270842   -0.2478987921   -0.9673308831
 H    0.7001298707    0.7233308405    2.8206301741
 H    0.9703547056   -1.1500149100    4.1776936066
 H   -0.7568415013   -1.3094480403    3.8452086833
 H    0.4422763969   -3.4377731341    2.8315605201
 H    1.2208488447   -2.6597244471    0.4530430235