16

 N   -0.1327237720   -1.1650583667   -0.2352775223
 C   -0.0725357469   -0.0158984215   -0.1259141027
 C    0.0076906272    1.4358752875    0.0194209708
 C   -0.6153168050    1.9544614459    1.3739608269
 C    0.1816620158    3.2463826287    1.6046837852
 O    0.9309197365    3.4923972483    2.8426661418
 C    2.1788741579    3.6277929124    2.0907286416
 C    1.4810597004    2.9879228863    0.9180915657
 C    1.4609253582    1.9479443678    0.0975995597
 H   -0.5298511908    1.8733230202   -0.8331968351
 H   -1.6982735144    2.0822683228    1.3139018326
 H   -0.3847077098    1.2401264921    2.1684959958
 H   -0.3753084489    4.1515936300    1.3294958626
 H    2.4541858424    4.6833071417    1.9730467502
 H    3.0085621288    3.0740828516    2.5403848904
 H    2.2852929605    1.4267957130   -0.3704156631