15

 C   -0.0923311565    1.5714811026    0.0810472652
 C    0.0365693357    0.0679585554   -0.0293398631
 C    0.6776970888   -0.6282889795   -1.2187656847
 C    1.2684890570    0.1353126210   -2.3522131408
 O    1.1257396834   -0.1951324017   -3.5027591726
 C    1.3586104860   -0.6404035217    0.1611660377
 C    2.5586772549    0.1204359968    0.3807526554
 N    3.5195130013    0.7354154622    0.5736233582
 H    0.8179575575    2.0931272335   -0.2213759268
 H   -0.9174885026    1.9330430063   -0.5399129209
 H   -0.3013254944    1.8525252884    1.1176839575
 H   -0.8078418309   -0.4801563209    0.3784935072
 H    0.2388260205   -1.5699049796   -1.5300000486
 H    1.8572637521    1.0348397764   -2.0786497882
 H    1.3510963774   -1.5961151195    0.6741235746