14

 N   -0.0291392556   -1.1565940253   -0.0039350722
 C   -0.0187545669   -0.0014684063    0.0018546721
 C    0.0005790564    1.4620309594    0.0099828797
 C    1.4222150504    2.0023736541   -0.0007261011
 N    1.9946505513    2.2019968067    1.1876906657
 C    3.2478574690    2.6610806524    1.1661751212
 C    3.9237406848    2.9208817823   -0.0197875561
 C    3.2221678348    2.6820421955   -1.1951624091
 N    1.9686789705    2.2231475730   -1.1975812066
 H   -0.5302869326    1.8251720820   -0.8739408052
 H   -0.5130737701    1.8149390544    0.9081383809
 H    3.7188563227    2.8261669113    2.1322054669
 H    4.9406584482    3.2934027129   -0.0275552357
 H    3.6720731072    2.8643249776   -2.1681291804