16

 C    0.0775618882    1.4754424436   -0.1618684257
 C   -0.0763822511    0.0051190230   -0.0004096746
 C   -1.1489755883   -0.8292887342    0.1235368445
 C   -2.5981547585   -0.4720109570    0.1429289840
 O   -3.2678188996   -1.2258021695   -0.8652869072
 C   -0.6100078836   -2.1580674098    0.2480775371
 C    0.7359337887   -2.0271781687    0.1935343303
 O    1.0810803014   -0.7172667866    0.0468600089
 H    0.6940201792    1.7121604234   -1.0359497546
 H   -0.8978762026    1.9479958292   -0.2946044656
 H    0.5589792286    1.9317411176    0.7112192084
 H   -3.0251445687   -0.6982380954    1.1338763993
 H   -2.7223491284    0.6098526699   -0.0185691548
 H   -4.2137002772   -1.0878139528   -0.7539136736
 H   -1.1713766704   -3.0736577994    0.3459635675
 H    1.5569053123   -2.7236477932    0.2358908960