17

 O    0.1686988450    1.4073646770    0.0991224404
 C    0.0735926357   -0.0049391678   -0.0047754557
 C   -1.3681520061   -0.5041955877    0.1500287828
 C   -1.4635685319   -2.0243911987    0.0618471480
 C   -2.8805762785   -2.6768049795    0.0114924867
 N   -2.5114074869   -3.2200013428   -1.2985236232
 C   -1.2704718900   -2.6357653983   -1.3530299544
 O   -0.4130933408   -2.6067770160   -2.1970103145
 H   -0.2095098818    1.7859914084   -0.7004710023
 H    0.4966544196   -0.3773443510   -0.9474369064
 H    0.6906029805   -0.4049859446    0.8080863566
 H   -1.7641272367   -0.1537874123    1.1105589635
 H   -1.9923711381   -0.0525888028   -0.6340263008
 H   -0.8090162314   -2.5008379509    0.7986431653
 H   -3.0819651239   -3.4357436604    0.7736401048
 H   -3.7068232021   -1.9584812880   -0.0194543401
 H   -3.0342401025   -3.7424267148   -1.9856591808