17

 C   -0.6009627536    0.9822628093   -0.0562011643
 O    0.5813089136    0.1889966572    0.0980186497
 C    0.9359611451   -0.5125180491   -1.0118145668
 C    0.7128479044   -1.8335757854   -1.3046075871
 O    0.0038436869   -2.7600351270   -0.5858510938
 C    1.3438756632   -2.1191822182   -2.5527509613
 N    1.2449970594   -3.3558326416   -3.2164925330
 C    1.9381496297   -0.9517352964   -2.9760389840
 N    1.6530708785    0.0449252946   -2.0499726917
 H   -0.4622089100    1.7523438196   -0.8241848439
 H   -1.4590956333    0.3581970180   -0.3322480036
 H   -0.7860428663    1.4601399669    0.9084201368
 H   -0.1200474126   -2.4059929072    0.3016060476
 H    1.0565472209   -4.1034034305   -2.5596248303
 H    2.0777830531   -3.5823421630   -3.7453798261
 H    2.5022204384   -0.7377488343   -3.8684256729
 H    2.2020748025    0.8803201572   -1.9388753954