14

 C    0.0769835519    1.4343517673    0.0508731485
 N   -0.0823540369   -0.0078985690    0.0945106087
 C   -1.2725108578   -0.5988430864   -0.1028182884
 O   -2.3410790743   -0.0848231425   -0.3336550570
 N   -1.1858533358   -2.0393610522   -0.0122353151
 C   -2.1770611813   -2.9441572140   -0.1553797765
 N   -1.6792594117   -4.1469309487    0.0016417983
 N   -0.3467987746   -3.9669584609    0.2473054212
 N   -0.0397421362   -2.7188913873    0.2419330733
 H    0.7778210090    1.7243300627   -0.7380715271
 H   -0.8982882849    1.8742365851   -0.1577785622
 H    0.4444448538    1.8139868058    1.0092775151
 H    0.7097296975   -0.6071478074    0.2767731360
 H   -3.1982403586   -2.6758395627   -0.3645228849