14

 O    0.0136931839    0.0854936920   -0.4290432324
 C   -0.0507344081    1.2037575599   -0.0261702507
 C   -1.3063608973    2.0398718305    0.2481307328
 C   -0.7832843429    3.3395377352    0.8327435620
 C    0.0449961424    3.2314830874    2.1157886473
 C    0.7362623988    3.2005506261    0.7952499097
 O    1.0704965553    1.9405896681    0.2751569876
 C   -1.4344279245    4.5758503064    0.5184483686
 N   -1.9637546660    5.5733168087    0.2670070028
 H   -1.8364665499    2.2009340400   -0.6944055856
 H   -1.9732557111    1.4847006193    0.9122004679
 H    0.1352068952    4.1349006636    2.7071746368
 H   -0.0249355190    2.3078628773    2.6810840418
 H    1.3949423833    3.9909912854    0.4610879216