17

 C   -0.0320159634    1.4738608489    0.0853526795
 C   -0.0097104174   -0.0108013823   -0.0023888070
 C   -0.0723476385   -0.8610591706   -1.0296238469
 C    0.0151735992   -2.2323103896   -0.3172426211
 C   -1.0096881921   -2.0287679565    0.8535579662
 C    0.1041218698   -0.9985732554    1.1844118610
 O    1.0785799824   -1.9682365488    0.6779423251
 C    0.1331492401   -3.4445193604   -1.0822136006
 C    0.2048617899   -4.4552675790   -1.7281389359
 H    0.8837688958    1.8559671512    0.5537718691
 H   -0.1254932343    1.9320023992   -0.9028498165
 H   -0.8685234425    1.8253675028    0.7028187286
 H   -0.1547035097   -0.6989909725   -2.0937636180
 H   -2.0104486039   -1.6721908698    0.6035570151
 H   -1.0252426278   -2.8762200064    1.5418967362
 H    0.3144111772   -0.6272386249    2.1864875355
 H    0.2768131252   -5.3498141059   -2.2961445201