19

 C   -0.4336458327    1.3401774669   -0.0430080772
 C   -0.0549337364   -0.1082889754   -0.0439088570
 C    0.0428519291   -0.9159317151   -1.1050347607
 C    0.4779735702   -2.3237079279   -0.7699316923
 C    0.4669216904   -2.3151516494    0.7723516325
 C    0.2730824592   -0.8333461825    1.2425137658
 C   -0.9676277299   -1.2448548355    2.1043948178
 C   -0.8885027960   -2.6297149200    1.4377018438
 O   -1.6241494708   -3.5721469945    1.3904505806
 H    0.3764853293    1.9586252944    0.3646172118
 H   -0.6614849691    1.6999544598   -1.0497652314
 H   -1.3108746173    1.5239065790    0.5903040442
 H   -0.1512595382   -0.6034339649   -2.1264719547
 H   -0.1999623528   -3.0876233476   -1.1694454163
 H    1.4726760659   -2.5474653199   -1.1770617722
 H    1.2877251136   -2.8729218363    1.2302539044
 H    1.0818332278   -0.3598638460    1.8064862298
 H   -0.7615962144   -1.3024043535    3.1789405710
 H   -1.9004038279   -0.6929952418    1.9581157102