19

 O   -0.2089184042    0.1332639046    0.4728480947
 C   -0.0010269930    1.1536090780   -0.1275369998
 C    1.3738253555    1.7866755810   -0.2629775035
 O    1.2517648833    2.9195725586   -1.0803897254
 C    2.4417891777    3.6907818756   -1.2192907850
 C    3.4362045738    3.0504412998   -2.2301307550
 C    3.2305341219    3.8535343614   -3.4908607391
 C    2.4760314951    4.9299527874   -3.2829391576
 C    2.0339161630    5.0451247302   -1.8459797075
 H   -0.8065641132    1.7284252018   -0.6352784734
 H    1.7399312798    2.0459090567    0.7462119055
 H    2.0664602539    1.0312806592   -0.6676578970
 H    2.8958233443    3.8158827071   -0.2263963563
 H    4.4728202157    3.1226977065   -1.8742264245
 H    3.2302893437    1.9824952417   -2.3658088362
 H    3.6742190351    3.5705307009   -4.4387609926
 H    2.2103102370    5.6653280796   -4.0338234825
 H    0.9552191070    5.1930720269   -1.7294085269
 H    2.5271755734    5.8855336928   -1.3403847379