18

 C   -0.4252769753    1.2790306335   -0.5096429459
 C    0.0380976407   -0.0906453895   -0.0429345757
 C    1.1813697994   -0.7438679152   -0.7536209046
 N    1.3717970854   -0.2138545455    0.6009771234
 C   -0.9926549275   -0.9188016786    0.5354319513
 C   -1.8876997645   -1.5869087370    0.9884654696
 C   -2.9155773205   -2.4055289925    1.5698418562
 C   -4.3497063910   -2.1411324819    1.3391321731
 O   -3.7026616143   -3.2239342407    0.6849812830
 H    0.4003510077    1.8276980683   -0.9746973367
 H   -1.2315998345    1.1877828374   -1.2436234254
 H   -0.8029578020    1.8677108136    0.3323805385
 H    1.2149257189   -1.8260243418   -0.8290113864
 H    1.6090804509   -0.2093802410   -1.5985232957
 H    1.8377090290    0.6902181985    0.5572018015
 H   -2.6405592152   -2.9075527863    2.4969487816
 H   -5.0698541433   -2.4134218140    2.1099928455
 H   -4.6339964938   -1.3071357574    0.7001435167