21

 C   -0.0107163516    1.5167935040   -0.0221632625
 C   -0.0239559076    0.0018397524    0.0087818338
 C   -0.8724285722   -0.6851374575    1.0482599483
 C    0.6337405007   -0.7192526471    1.1707786997
 C    1.4009924682   -2.0148553536    0.9161701771
 O    1.6907602593   -2.2561274973   -0.4535316940
 C    0.5419457746   -2.1203437200   -1.2612931732
 C    0.1072766192   -0.6503325123   -1.3536566101
 O   -1.1435303961   -0.5272476889   -2.0276171396
 H    0.9353472179    1.8969211832   -0.4257865834
 H   -0.8225700897    1.8916856736   -0.6537092337
 H   -0.1392294722    1.9358978453    0.9806634330
 H   -1.4320244284   -0.0578069271    1.7339486398
 H   -1.3811229622   -1.6055023296    0.7801138444
 H    1.0680424198   -0.0815763097    1.9351250421
 H    2.3723343953   -1.9792423176    1.4169910185
 H    0.8449455394   -2.8738887420    1.3275809695
 H    0.8083174970   -2.4944041220   -2.2560318863
 H   -0.2939665289   -2.7349984131   -0.8879433844
 H    0.8923123702   -0.1086947245   -1.9049902626
 H   -1.0066355129   -0.7518092461   -2.9537543963