19

 O    0.0182861818    1.3777274132   -0.1977684258
 C    0.0015536813   -0.0187677285    0.0148018619
 C    0.2492221629   -0.4085907133    1.5048338471
 C   -1.2824193405   -0.4693117764    1.6667865818
 O   -2.0222386790   -0.4222303059    2.6038248189
 C   -1.4860716816   -0.4882403226    0.1346344843
 C   -2.5913890363    0.3080549602   -0.4949919155
 C   -3.1350327846   -0.0711439628   -1.8525638769
 C   -3.9704819981   -0.2906505829   -0.6178209865
 H    0.9204825609    1.6902564951   -0.0775830681
 H    0.6088609468   -0.5477643922   -0.7286883202
 H    0.7070544082   -1.3957363404    1.6288649752
 H    0.7807357298    0.3171636083    2.1254199677
 H   -1.5485850601   -1.5418060571   -0.1711188442
 H   -2.5438442164    1.3691739545   -0.2793745139
 H   -3.4123837451    0.7280870566   -2.5305982508
 H   -2.7147754388   -0.9425127407   -2.3445017460
 H   -4.1148222778   -1.3091988341   -0.2736495843
 H   -4.8225299033    0.3569524190   -0.4457827250