12

 N   -0.0119176436    1.3515889600    0.0098502396
 C    1.2971880781    1.8184263563   -0.0003722752
 C    2.1490098764    0.7605119710   -0.0145875653
 N    1.3495213512   -0.3848043059   -0.0130035991
 C    1.2951732348   -1.7606759864   -0.0199826267
 N    0.0409030887   -2.1506066883   -0.0098996572
 N   -0.7915388044   -1.0435416056    0.0043907179
 C    0.0266059231   -0.0184282143    0.0019916879
 H   -0.8473414887    1.9072263584    0.0213894021
 H    1.5166484877    2.8728299223    0.0032792985
 H    3.2235047220    0.7293395849   -0.0253361715
 H    2.1608255547   -2.4010750524   -0.0319855110