14

 C    0.0294416165    1.3474413218    0.0093927620
 O   -0.0350478309   -0.0854854016    0.0026380997
 C   -1.2683682556   -0.5997621026    0.0102404725
 O   -2.2881313052    0.0468293223    0.0219386331
 C   -1.2663597092   -2.0859879748    0.0027445968
 N   -0.1613592039   -2.8003735764   -0.0093511264
 O   -0.5777119494   -4.1156755204   -0.0126905642
 C   -1.9230439240   -4.1580809272   -0.0025473038
 C   -2.4317084980   -2.9030392938    0.0076930612
 H    1.0909120453    1.5922980999    0.0013203203
 H   -0.4675892982    1.7579178288   -0.8730372313
 H   -0.4519323666    1.7488184413    0.9046029546
 H   -2.3600156401   -5.1441230878   -0.0041198546
 H   -3.4574694506   -2.5790271096    0.0172710901