23

 C    0.3310472514    1.4879005058   -0.3178266722
 C    0.1382846793    0.0233921836    0.0211020419
 O    0.9744131331   -0.8429982622   -0.7817405035
 C    1.3871397281   -1.6043205849    0.3790566417
 C    2.8856148128   -1.8417634003    0.4170698226
 C    3.3556629064   -2.6880010218   -0.7606443597
 O    4.7601690244   -2.8629575622   -0.6357415488
 C    0.7117586041   -0.5818551159    1.3362053478
 C    1.6052474380    0.2961767408    2.2045213993
 H    1.3713394882    1.7982107093   -0.1915376873
 H    0.0504371270    1.6630472601   -1.3614104007
 H   -0.3042423552    2.1186945689    0.3134353253
 H   -0.9206665548   -0.2437459612   -0.1160136642
 H    0.8666759846   -2.5755586972    0.3939589979
 H    3.4258975978   -0.8902856732    0.3985137451
 H    3.1508104492   -2.3529619346    1.3511069714
 H    2.8316033962   -3.6584164357   -0.7539050470
 H    3.0933074949   -2.1784374911   -1.6988395586
 H    5.0727473965   -3.3310195606   -1.4152370997
 H   -0.0593444773   -1.0365762310    1.9641120433
 H    2.3997061814    0.7839179881    1.6340126892
 H    1.0172131489    1.0809991389    2.6918693447
 H    2.0805906049   -0.2957155536    2.9935751214