18

 C    0.5811224294    1.5415700764    0.0440140954
 C    0.7463394596    0.0316758905   -0.1048471537
 C    0.0784798473   -0.5352367538   -1.3410130075
 O   -0.5549093082    0.1407112034   -2.1181764243
 C    0.2415716543   -2.0555746516   -1.5579303780
 C   -0.3057450648   -2.5467692281   -2.9158449579
 O    0.8640514536   -3.0884743194   -3.5852102635
 C    1.8789479453   -2.9411543438   -2.7132088905
 N    1.6770113286   -2.4171908212   -1.5741419677
 H    1.0151006462    2.0678546672   -0.8102083882
 H   -0.4746810140    1.8202470852    0.0941987118
 H    1.0759668387    1.8941636807    0.9530840765
 H    1.8003413634   -0.2685289031   -0.1429104739
 H    0.3372909896   -0.5038583921    0.7640873621
 H   -0.2392941620   -2.5542846311   -0.7065089409
 H   -1.0451607369   -3.3455053716   -2.8305436773
 H   -0.7070165127   -1.7244336297   -3.5110600821
 H    2.8369759325   -3.3030589080   -3.0700757205