16

 C   -0.0092644878    1.4304671328    1.1126437081
 C   -0.2503440328    0.4127309806   -0.0135889132
 C    0.7974694512   -0.6970806490    0.1042503619
 O    1.6930633242   -0.8794681415   -0.6743823240
 C   -1.6345680192   -0.2106569094    0.0164235231
 N   -2.3475251730   -0.0472701502    1.0746542557
 O   -3.5732679776   -0.6851148451    0.9976991513
 C   -2.0405586622   -0.9668957931   -1.1206425646
 C   -2.3228500171   -1.5912113713   -2.1103565046
 H    0.9750481106    1.8905776886    0.9910282861
 H   -0.7717836476    2.2121325714    1.0887054790
 H   -0.0568526621    0.9549974538    2.0955789568
 H   -0.0993237071    0.8803599376   -0.9914072575
 H    0.6768093243   -1.3249272164    1.0173004305
 H   -3.9811617484   -0.4573098815    1.8411393154
 H   -2.5846693255   -2.1481906473   -2.9764476340