15

 C    0.3298442879    1.4672949198    0.1596765910
 N    0.0779961176    0.0362650945    0.0848214806
 C    0.2550659618   -0.5705126930   -1.0014691337
 N    0.0302218213   -1.9272629352   -1.1235533527
 C    0.2022897841   -2.6604227448   -2.2735874312
 N   -0.0308821842   -3.9152718253   -2.2917784440
 C    0.6638663430   -1.8304365896   -3.3964925188
 N    0.8916157076   -0.5743754483   -3.3593799906
 O    0.6863707784    0.0819395266   -2.1454953662
 H    1.3657836052    1.7200579324   -0.0989822687
 H   -0.3228615382    2.0364795581   -0.5142483959
 H    0.1402043474    1.8013756756    1.1819821395
 H   -0.2846868137   -2.4015308946   -0.2888255441
 H    0.1462399315   -4.3018436180   -3.2170687050
 H    0.8362297602   -2.3000711582   -4.3601939303