19

 C   -0.0088599500    1.6901718477    0.0231657270
 C    0.0847245150    0.1647467710    0.1056133070
 C    0.6705718063   -0.4959094850   -1.1595623626
 C    0.5735868419   -2.0698265849   -1.2226062893
 C   -0.2036873022   -2.0029058083   -2.5685701615
 C   -0.2986649177   -0.4847407268   -2.3958197590
 O   -0.9371762173    0.3787968525   -2.9174683541
 C    1.9895077678    0.0033021016   -1.5055898995
 C    3.0829932541    0.3990851962   -1.8147347727
 H    0.9819412712    2.1355433802   -0.1031843063
 H   -0.6275765667    1.9966940710   -0.8240917702
 H   -0.4505944936    2.0953195849    0.9385004847
 H    0.7037071957   -0.1349449559    0.9600251880
 H   -0.9116655192   -0.2623551220    0.2745251675
 H    1.5326998956   -2.5846513793   -1.2533478170
 H   -0.0250634922   -2.4683540471   -0.4007725415
 H    0.4030029532   -2.2673120510   -3.4404552045
 H   -1.1583650334   -2.5296841681   -2.6407272337
 H    4.0460876318    0.7564951131   -2.0839170624