19

 C   -0.0637167449    1.5614667687    0.0167033104
 C    0.0206392719    0.0330031104   -0.0039906942
 C    0.7032214497   -0.5036405959   -1.2665042518
 C    0.7784627566   -2.0327001239   -1.2706434363
 N    1.4179735717   -2.5520113576   -2.4725132697
 N    0.8422344809   -2.5395177946   -3.6685590941
 C    1.8023306507   -3.0609504543   -4.4232016914
 N    2.9110894765   -3.3738507302   -3.7177950899
 N    2.6513595632   -3.0419635995   -2.4759956454
 H    0.9332600572    2.0132052886   -0.0234923738
 H   -0.6327896038    1.9377570180   -0.8401869757
 H   -0.5551906981    1.9182217226    0.9266398405
 H    0.5662126265   -0.3168529324    0.8822160120
 H   -0.9889548795   -0.3917343619    0.0718426501
 H    0.1583525961   -0.1752069518   -2.1588232073
 H    1.7193610175   -0.0989092317   -1.3462096985
 H    1.3729192275   -2.4055955335   -0.4339856757
 H   -0.2207456130   -2.4736126922   -1.2154674690
 H    1.7000797834   -3.2200969389   -5.4843238804