19

 O   -0.0993987467    1.4598769858   -0.1080319743
 C    0.0314974092    0.0480786949   -0.0895661445
 C   -1.3688484439   -0.5418136657    0.1004029090
 C   -1.3789569688   -2.0401902929    0.0834634137
 C   -1.6219405276   -2.8692131067    1.1064055961
 C   -1.5326140012   -4.3315251397    0.7207355267
 C   -1.2598301285   -4.2706290747   -0.7777469115
 O   -2.2961641390   -3.6459647077   -1.5369502567
 C   -1.1456154154   -2.8531963434   -1.1580494306
 H    0.7763524722    1.8429775984   -0.2121561637
 H    0.4737273489   -0.3229955098   -1.0286273582
 H    0.6827180078   -0.2879045650    0.7325317273
 H   -1.7714500490   -0.1713758024    1.0486237178
 H   -2.0099215751   -0.1462287379   -0.6977116905
 H   -1.9006522597   -2.5496754963    2.1052227619
 H   -0.7208843542   -4.8477189302    1.2501310691
 H   -2.4562265090   -4.8802188360    0.9419442825
 H   -0.7286417183   -5.0724856994   -1.2836414329
 H   -0.5488779216   -2.4910384212   -1.9905214211