21

 C    0.0780479424    1.5853824221    0.2648038205
 C   -0.0606786349    0.0860953302   -0.0086772960
 C    0.6793001237   -0.4392967632   -1.2668477921
 C    0.6705233991   -1.9911948551   -1.2112317986
 O    1.0749937712   -2.5923954861   -2.4293802267
 C   -0.0357670870    0.0189659416   -2.5762309493
 O   -1.2797833012   -0.6266389412   -2.7610816081
 C    2.0710883363    0.0093833724   -1.3235205522
 C    3.2266778708    0.3330896381   -1.4213823121
 H    1.1249482775    1.8679283980    0.4071916298
 H   -0.3238738096    2.1908624994   -0.5535381508
 H   -0.4726710763    1.8562796056    1.1706547978
 H    0.3007162243   -0.4717795689    0.8640647631
 H   -1.1168613236   -0.1756000834   -0.1379454448
 H    1.2906779901   -2.3254955489   -0.3684017248
 H   -0.3541977128   -2.3281421910   -1.0345522594
 H    1.9781208671   -2.3025809220   -2.6057008039
 H   -0.2370204256    1.0924014707   -2.5257883824
 H    0.6326678172   -0.1537818474   -3.4267583633
 H   -1.0826186962   -1.5090815539   -3.0955491625
 H    4.2410567475    0.6410875931   -1.4890797943