18

 O    0.2712281111    1.3903253996    0.2001399350
 C    0.1660974657   -0.0104029258    0.0820469795
 C   -1.3023215219   -0.4483619825    0.1253446327
 O   -2.0442066779    0.2797239754   -0.8494771041
 C   -1.4779805496   -1.9467712827   -0.0606965230
 C   -2.9100912897   -2.5057512958   -0.1972807218
 C   -2.4670709294   -2.8907221149   -1.5911472869
 N   -2.9861201899   -3.4927890930   -2.5571537116
 O   -1.2010307670   -2.3328588201   -1.4571850023
 H   -0.4206263979    1.7511981316   -0.3693170066
 H    0.6220661169   -0.3792330434   -0.8530428074
 H    0.7201646416   -0.4536326029    0.9172645664
 H   -1.7276175376   -0.1613447312    1.0948115265
 H   -1.8003957358   -0.0894674890   -1.7090755242
 H   -0.8260023512   -2.5098424366    0.6139101394
 H   -3.1739140413   -3.3390146931    0.4544799787
 H   -3.6939463755   -1.7472906099   -0.1782177736
 H   -2.3427975607   -3.5641050057   -3.3470833168