19

 O    1.0115594081   -0.4898149329    0.1486607868
 C    0.5280904529    0.6009868350   -0.0185314318
 C    1.3175868693    1.8954596915   -0.0364147017
 C    1.0174198237    2.7738356893   -1.2412226839
 C    0.8465882123    4.0560229723   -0.9153329717
 C    0.9692383267    4.3058212131    0.5624845924
 C   -0.3629306723    4.5774301276    1.3217418006
 C   -0.4957712806    3.0521213568    1.5835812002
 C    0.9920231821    2.8524805506    1.1426973688
 H   -0.5669014015    0.7173966756   -0.1834473648
 H    2.3746868828    1.6003268933   -0.0168785569
 H    0.9897012937    2.3767349821   -2.2505154829
 H    0.6573435183    4.8530532455   -1.6275642540
 H    1.7991228267    4.9804938927    0.7989590209
 H   -0.1998103102    5.1483603142    2.2395785384
 H   -1.1658390895    5.0550277007    0.7542335046
 H   -0.7337712072    2.7508883209    2.6057472643
 H   -1.2160943719    2.5788092133    0.9142922577
 H    1.6572023965    2.6958808284    1.9926566729