14

 C   -0.0871529972    1.4955800763    0.0097943191
 C    0.0508934935   -0.0042253342    0.0029170548
 O    1.0944296233   -0.6081943634   -0.0082769870
 N   -1.1696490424   -0.7243243862    0.0109189235
 C   -1.2949575602   -2.0899946067    0.0070225332
 C   -2.6356246559   -2.3592759786    0.0176905107
 C   -3.2596988095   -1.0813795088    0.0278877282
 N   -2.3796750865   -0.0975743401    0.0238053726
 H    0.9123564434    1.9287761099    0.0025265574
 H   -0.6573938218    1.8312568361   -0.8599099891
 H   -0.6417326075    1.8246361359    0.8920739846
 H   -0.4178302868   -2.7142947086   -0.0029220086
 H   -3.1074975774   -3.3283473941    0.0182144418
 H   -4.3161006049   -0.8533713773    0.0379513588