19

 C   -0.3928604568    1.4870653168   -0.1111839491
 C    0.0040712798    0.0335455799    0.0615865437
 O    0.6497623175   -0.4200935031   -1.1471124236
 C    1.6420002385   -1.3072008000   -0.8615712025
 O    2.3187378440   -1.8120096418   -1.7089963437
 C    1.6931150158   -1.5331124536    0.6507038031
 C    3.0842591403   -1.8785635327    1.1701494964
 C    1.0195863618   -0.2670609267    1.1911798319
 O    2.0119731559    0.7347896906    1.3177750293
 H    0.4917254438    2.1042916455   -0.2856875499
 H   -1.0641288964    1.5988428640   -0.9658543562
 H   -0.9165129144    1.8486864936    0.7807886465
 H   -0.8897564578   -0.5866981194    0.2185408915
 H    1.0090351553   -2.3726348096    0.8418200227
 H    3.7558278209   -1.0244947139    1.0720506096
 H    3.0482503556   -2.1695357837    2.2238217215
 H    3.4925168567   -2.7090508920    0.5893714417
 H    0.5033434239   -0.4348561201    2.1459047909
 H    1.6078696357    1.5231638262    1.6923361963