16

 O   -0.0827796900    0.0659572894   -0.1793240951
 C   -0.0963850844    1.2544932566   -0.0409160897
 C   -1.1859443864    2.3416196342   -0.1159373268
 N   -0.1167843741    3.4000460346   -0.2070515063
 C    0.6632977760    3.3410980563    1.0241430212
 C    0.1149318094    3.0230631756    2.4139582618
 C   -0.6968234401    4.1106719202    2.9497384058
 C   -1.3672330302    5.0156831421    3.3679086358
 C    0.9666375402    2.3165871584   -0.0217752622
 H   -1.7295275784    2.2786568955   -1.0624230977
 H   -1.8972706380    2.4637994409    0.7037763791
 H    1.3854138192    4.1551567609    1.0455754753
 H   -0.4586270302    2.0914087506    2.4198743139
 H    0.9750099477    2.8432822583    3.0712726609
 H   -1.9597120665    5.8121797159    3.7452755386
 H    1.9027889357    2.3010054507   -0.5690784947