17

 C    0.9072929113    0.2490458671    0.9017792990
 C   -0.3067798604   -0.2561696542    0.1249459902
 C   -1.2574311695    0.6624574569   -0.5408108381
 N   -0.3638228679   -0.2018815616   -1.3422651339
 C    1.5592859639    1.4756192674    0.3453635101
 C    2.6737056670    1.5979456372   -0.4559249438
 N    2.8011060991    2.9321178209   -0.6447934097
 N    1.8334809629    3.6147619894   -0.0079421642
 N    1.0828456735    2.7366771540    0.5895772951
 H    0.5985635034    0.4528218512    1.9334529868
 H    1.6503366640   -0.5560595692    0.9481125178
 H   -0.7007483533   -1.1863131795    0.5307754885
 H   -2.3111251554    0.4045010262   -0.5968971755
 H   -1.0459906002    1.7265281145   -0.4936541859
 H    0.4118319335    0.3616452843   -1.6872374355
 H    3.3590652175    0.8799190664   -0.8740913648
 H    3.4986795207    3.4370206690   -1.1680646761