23

 C    0.0090806164    1.5150386777   -0.3978069364
 C    0.0039753701    0.0778375291    0.1264269642
 O    0.6331294239   -0.0034559966    1.4087572583
 C   -1.3855750377   -0.5245551335    0.1506475990
 C   -1.9182796184   -1.2847594161   -1.0472124053
 C   -1.5603990378   -2.0110631799    0.2185170454
 C   -0.4716142914   -3.0866996709    0.3691912611
 C   -1.5466627902   -4.0244091905    0.9949005774
 C   -2.5254702975   -2.8167508371    1.1007685148
 H    1.0247922921    1.9197775923   -0.3920529050
 H   -0.3853833937    1.5627766314   -1.4176684388
 H   -0.6187019467    2.1575370547    0.2324967221
 H    0.6399945976   -0.5394045075   -0.5194751247
 H    0.0887836288    0.4929857320    2.0298624360
 H   -2.1169177673    0.0703350652    0.6997603025
 H   -2.9671515964   -1.1712493725   -1.3038761486
 H   -1.2607087082   -1.4014819896   -1.9049109742
 H    0.0059957776   -3.4389218825   -0.5494442675
 H    0.3064912249   -2.7892270831    1.0774162483
 H   -1.8976962515   -4.7855520989    0.2938393827
 H   -1.2780342006   -4.5164784605    1.9320036687
 H   -2.6021936455   -2.4202516840    2.1185519878
 H   -3.5366041584   -2.9696378592    0.7124512222