19

 C   -0.3023315024    1.5462593842   -0.0044366758
 C    0.0215581644    0.0559152806   -0.0463602570
 O    0.7291151381   -0.3001902797   -1.2449975895
 C    2.0086981202   -0.8016484100   -0.8732157254
 C    2.8990709410    0.3162577007   -0.2394244297
 C    2.3884549021   -0.1417757641    1.1269423331
 C    1.8706445951   -1.4528968141    0.5243986864
 C    0.8983831567   -0.4752784355    1.0887832437
 O    0.2839369938   -0.7895794102    2.2976797286
 H    0.6042285255    2.1559691320    0.0341803657
 H   -0.8762163763    1.8366245968   -0.8887984593
 H   -0.9106597860    1.7733481186    0.8790068111
 H   -0.9200052436   -0.5116016636   -0.0252194725
 H    2.4151428371   -1.3682074282   -1.7094737640
 H    3.9634748607    0.0875525566   -0.3516609171
 H    2.7089656765    1.3389449483   -0.5787247185
 H    2.8738481467   -0.0066888274    2.0870542596
 H    1.9789289933   -2.4822747482    0.8360660677
 H    0.1931844271    0.0221403533    2.8080270327