15

 O   -0.1352189086    0.0820909722   -0.3833717618
 C    0.0035488133    1.1751376737    0.0957977358
 C    1.3227927822    1.9466765697    0.0429098864
 C    2.5782384303    1.2170457129   -0.5292670543
 N    2.7097138518    2.1850920470   -1.6730291599
 C    1.4631986323    2.0696970751   -2.4491351906
 C    1.4462737301    2.8664472175   -1.2067956278
 C    1.5445118868    2.6479027817    1.2965491730
 N    1.6886235626    3.1955049896    2.3045365348
 H   -0.8353385975    1.7221335623    0.5734968969
 H    3.4453526666    1.2820452611    0.1265847428
 H    2.3986099341    0.1821332357   -0.8283067238
 H    1.4949175932    2.6268817029   -3.3797542813
 H    0.9493030124    1.1136517951   -2.4974168672
 H    1.3381436004    3.9443111234   -1.1670886128