20

 C    0.1311972272    1.5260328721    0.0774402339
 C    0.0345542845    0.0294924370   -0.0181666266
 N   -0.0400366948   -0.7416905230    0.9963914182
 O   -0.0110338981   -0.0522256776    2.2115677220
 C   -0.0111011895   -0.6766597859   -1.3651460870
 C    1.2108098380   -0.3313110224   -2.2273377465
 O   -0.0289958651   -2.0912959927   -1.1954827233
 C   -1.3314355169   -0.3173606081   -2.1007915360
 O   -1.4844896853   -1.1209588592   -3.2475601942
 H    1.1145721311    1.8174233285    0.4628534250
 H   -0.0160866205    2.0087521762   -0.8888657775
 H   -0.6088575410    1.9035447832    0.7882457441
 H   -0.0848635016   -0.7627982976    2.8577895347
 H    2.1210927564   -0.7054801731   -1.7526248265
 H    1.0956233769   -0.8092790277   -3.2025176926
 H    1.3073998339    0.7467085348   -2.3839882272
 H   -0.1658753748   -2.2485432973   -0.2486981986
 H   -2.1674100755   -0.4546575656   -1.3958856106
 H   -1.3333620682    0.7253342722   -2.4341885166
 H   -1.3140495165   -2.0223298137   -2.9412487146