18

 C   -0.0134644514    1.4230518323    0.4450059289
 C    0.1277179670   -0.0428554632    0.1203609083
 O   -1.0476778563   -0.7053408532   -0.2678587097
 C    1.4257304649   -0.5726110603   -0.4744292287
 O    2.5112039642    0.2804095678   -0.6478594650
 C    1.0264823125   -0.9525641569    0.9310510597
 O    1.8770966953   -0.4143840756    1.9107692693
 C    1.3382374918   -0.1931272443    3.1363170529
 N    2.0610596814    0.2800016139    4.0524088120
 H    0.9462378271    1.8625744485    0.7200505269
 H   -0.3850742038    1.9643302219   -0.4326579228
 H   -0.7256819634    1.5743550952    1.2622442134
 H   -1.2743307138   -0.4079794103   -1.1569017988
 H    1.3385739118   -1.3421378633   -1.2385940941
 H    3.0157342049    0.2808102839    0.1755355758
 H    0.6765658867   -1.9622961759    1.1283200206
 H    0.2788678011   -0.4704250275    3.1959791520
 H    1.5192471503    0.3829104470    4.9078416992