23

 C    0.0055508384    1.5462390165    0.3395174934
 C   -0.0421746542    0.0626808601   -0.0715333615
 C   -1.4228610405   -0.5063785528   -0.0738868123
 C   -2.2024194654   -0.9662489925   -1.0648387546
 C   -1.9817949910   -1.0936604544   -2.5332098022
 C   -3.4916981874   -1.3848933547   -0.3295976876
 C   -3.6835998319   -0.1638134998    0.6321061645
 C   -2.3119843664   -0.6871721638    1.1759861533
 C   -2.8848358267   -2.1206733253    0.9127523203
 H    1.0357004583    1.9163598698    0.3529018874
 H   -0.5702301266    2.1619389967   -0.3585316007
 H   -0.4162986227    1.6944430373    1.3388957030
 H    0.4069543282   -0.0531518578   -1.0647642969
 H    0.5919252729   -0.5117127003    0.6194984837
 H   -0.9897510216   -0.7394865373   -2.8283455962
 H   -2.0776939950   -2.1360082785   -2.8653723840
 H   -2.7243453421   -0.5190571473   -3.1028817106
 H   -4.3098292322   -1.8032911638   -0.9175179431
 H   -3.7015280313    0.8329402846    0.1841912219
 H   -4.5114458976   -0.2898466581    1.3381803323
 H   -1.9124509347   -0.3867335537    2.1455157443
 H   -3.6361728015   -2.4329106816    1.6460140384
 H   -2.1679124589   -2.9235414431    0.7229320373