19

 C    0.0492982540    1.5024580777   -0.2172846436
 O    1.4726341989    1.4491116883    0.1430711164
 C    1.1880765479    0.2600538368    0.9106918369
 C    1.8258510490   -1.1285697685    1.0373462808
 C    0.5171188030   -1.7615051179    1.5955120778
 C   -0.1771533993   -0.7205274843    2.4555655072
 C    0.6821822475    0.5256469229    2.3566968146
 C   -0.7222758971   -0.9848742308    1.0666801069
 C   -0.0673073048   -0.0201876479    0.1002276004
 H   -0.5033830087    2.1867053608    0.4346243960
 H   -0.0825807377    1.7944645330   -1.2619593135
 H    2.1352377343   -1.5502319786    0.0777255993
 H    2.6497770501   -1.2081729869    1.7531298258
 H    0.4547292131   -2.8184320225    1.8180332202
 H   -0.7301774975   -0.9908254840    3.3460498863
 H    1.5064420698    0.5482079024    3.0769788741
 H    0.1145156047    1.4543362496    2.4476016212
 H   -1.6573666694   -1.5047775207    0.9033871539
 H    0.1953874723   -0.5446629195   -0.8240992707