21

 C   -0.4107531646    1.3688809655    0.1738775810
 C    0.0364585303   -0.0595217381    0.0276783626
 O   -0.2543906515   -0.9328189671    1.1346006707
 C    1.1157270696   -0.6954910220    0.7886970373
 C    1.6913141074   -1.7938507879   -0.0717936916
 O    0.7443462672   -1.9920012854   -1.1112844865
 C   -0.0579900118   -0.8094734420   -1.3092375411
 C   -1.4746634097   -1.2868052186   -1.6210426671
 C    0.5348025804    0.0194524179   -2.4570866611
 H    0.1532843486    2.0355106136   -0.4848370146
 H   -1.4732703370    1.4715547670   -0.0724181241
 H   -0.2718670966    1.6981576654    1.2062529274
 H    1.7218434532   -0.1789023822    1.5289994705
 H    2.6767443272   -1.4857666155   -0.4592257387
 H    1.8121463562   -2.7443072117    0.4595647395
 H   -1.8674771801   -1.8526097788   -0.7738739229
 H   -2.1387459881   -0.4406734525   -1.8250545818
 H   -1.4661532465   -1.9344406187   -2.5021887195
 H    0.6080057604   -0.6043951306   -3.3519286699
 H   -0.0885415302    0.8872202729   -2.6936325648
 H    1.5397443756    0.3776111688   -2.2101155752