20

 C   -0.0657983381    1.5848773603    0.0218430129
 C   -0.0222109815    0.0559781431    0.0354609270
 C    0.6991603703   -0.5350001659   -1.1960871091
 C    2.1033487600   -0.1155900384   -1.2585320237
 C    3.2580832491    0.2175612058   -1.2954858902
 C    0.6186095961   -2.0553312373   -1.3016206310
 C    1.1785696119   -2.7298456289   -2.5241324140
 N    0.0559628676   -2.6734733866   -0.3380106785
 O    0.0255572291   -4.0591035369   -0.5609882534
 H    0.9412493694    2.0121296274    0.0139379893
 H   -0.5955959139    1.9610499911   -0.8609500874
 H   -0.5868096539    1.9629279012    0.9065047689
 H    0.4748100391   -0.3054133094    0.9402958784
 H   -1.0356121791   -0.3546692811    0.0572354294
 H    0.2030214524   -0.1375919893   -2.0970726444
 H    4.2765192726    0.5162458197   -1.3313155896
 H    1.8897440057   -3.5093600798   -2.2358160355
 H    0.3769759425   -3.2283669186   -3.0798072742
 H    1.6806866395   -2.0148040659   -3.1770785480
 H   -0.4063645690   -4.3818003306    0.2369096730