17

 C   -0.0010614610    1.4814170327    0.0049772692
 C   -0.0180343847    0.0263231098   -0.0021669149
 C   -0.0302000888   -1.1769234382    0.0055872494
 C   -0.0544496711   -2.6363380054   -0.0299424294
 N   -1.4277624258   -3.1312137326   -0.0777837730
 C    0.8513047855   -3.1338629795   -1.2129327954
 O    2.1837563698   -2.6873159695   -1.1344332666
 C    0.7805750280   -4.6092789807   -1.2926438026
 N    0.7317655305   -5.7643767456   -1.3047212093
 H    0.7368446567    1.8717471339   -0.7040917707
 H   -0.9789825720    1.8894943377   -0.2721665927
 H    0.2516972374    1.8692882906    0.9976295090
 H    0.3986303025   -3.0293471471    0.8927586716
 H   -1.9075463488   -2.7642040972   -0.8939361863
 H   -1.4378952859   -4.1455712681   -0.1365185056
 H    0.4487480382   -2.7189372427   -2.1428824878
 H    2.5723103296   -3.0213408581   -0.3172570450