21

 C    0.6360393389    1.0960513991    1.1822504371
 C   -0.2246929152   -0.0368333920    0.6355006957
 O    0.5721208627   -1.0848377427    0.0859656117
 C    0.5806942856   -2.3099638895    0.7772692178
 C    1.5449375652   -2.3528402855    1.9723204313
 O    1.0617580413   -1.5375091926    3.0494482921
 C    0.9172600016   -2.3085744430    4.2400476297
 C    1.3212109683   -3.7025357307    3.8521594340
 C    1.6875793521   -3.7243845642    2.5762439530
 H    1.3228682644    1.4575049157    0.4108704389
 H    0.0031466880    1.9339510846    1.4957715316
 H    1.2146671957    0.7561408627    2.0438460213
 H   -0.8794462386   -0.4303558841    1.4221983542
 H   -0.8632870215    0.3350793673   -0.1773611608
 H   -0.4265773780   -2.5842807301    1.1273771955
 H    0.9035709609   -3.0658655869    0.0499233631
 H    2.5115152648   -1.9494581108    1.6291529640
 H    1.5568521990   -1.8935318545    5.0354863752
 H   -0.1216853355   -2.2526169069    4.6005623245
 H    1.3137077420   -4.5355444457    4.5436254507
 H    2.0385284283   -4.5808772804    2.0147933995