21

 C    0.1021806897    1.4736934235    0.0181778813
 N    0.0399420349    0.0222461598   -0.0004881772
 C    0.6068161374   -0.5340708955   -1.2238536014
 C    0.4003167878   -2.0507276529   -1.2601365565
 N    0.9331280099   -2.6593287572   -0.0562636662
 C    0.4627306826   -2.0839193986    1.1951726296
 C    0.6629696996   -0.5681140576    1.1817494066
 C    1.8480532935   -3.6670428340   -0.0736316548
 O    2.3366003075   -4.1948963724    0.9039056752
 H    1.1367571990    1.8666177029    0.0019397822
 H   -0.4260859666    1.8785415701   -0.8509372262
 H   -0.3875749795    1.8525877986    0.9207568643
 H    0.1055622125   -0.0779382493   -2.0845528410
 H    1.6898874597   -0.3138714514   -1.3130870017
 H   -0.6750871859   -2.2625115516   -1.3411547342
 H    0.9008726404   -2.4847818267   -2.1307110750
 H   -0.6049386880   -2.3085380218    1.3219321110
 H    1.0222788018   -2.5555469821    2.0040484525
 H    1.7474055366   -0.3447058972    1.2263052670
 H    0.2015267772   -0.1335878697    2.0749197029
 H    2.1070606699   -3.9623092170   -1.1104452783