19

 C   -0.3374676926    1.4300518094    0.2380061470
 C   -0.3443008305   -0.0644534491    0.0343132289
 O   -0.6270410739   -0.8663963605    0.8944413353
 C    0.0408120505   -0.5626688578   -1.3830677165
 O    0.3189397717    0.2464087702   -2.2408440686
 C   -0.0107680651   -2.0474382605   -1.6022625325
 C   -1.4251578035   -2.6236875547   -1.9785603772
 C   -0.7254893789   -3.5181310251   -3.0360617951
 C    0.5304581831   -2.6107318761   -2.9383901553
 H    0.6552563310    1.8334802825    0.0143293906
 H   -1.0235346544    1.9074186450   -0.4688724870
 H   -0.6222156054    1.6642008273    1.2638915734
 H    0.3710500136   -2.5630907366   -0.7191230721
 H   -1.9815261505   -3.1069710021   -1.1743078693
 H   -2.0584185375   -1.8615810512   -2.4416654909
 H   -0.5350693052   -4.5233958215   -2.6505387870
 H   -1.2082157593   -3.6062885032   -4.0117089017
 H    0.5443035790   -1.8291278353   -3.7018272456
 H    1.5076948379   -3.0971660405   -2.9111147963