21

 C   -0.2597809838    1.4877299230   -0.0638954584
 C    0.0587833175   -0.0087076303    0.0583213278
 C    0.8505521893   -0.5344614108   -1.1401678045
 N    0.7859707426   -0.3084629346    1.2895254766
 C    0.1504263031   -0.4458625577    2.4880084439
 O   -1.0580961753   -0.4498691766    2.6271656030
 N    1.0714416405   -0.5555388548    3.5669206116
 C    1.6513248817   -1.8713303408    3.8659658731
 C    0.6209206781   -1.2612902988    4.7526695359
 H    0.6602343527    2.0815175736   -0.1153201578
 H   -0.8424237876    1.6871244215   -0.9692764976
 H   -0.8410856903    1.8204615367    0.7994397695
 H   -0.8862542642   -0.5540184633    0.1375343248
 H    1.8159019034   -0.0209476095   -1.2309784853
 H    1.0422641231   -1.6070818956   -1.0458984994
 H    0.2990032738   -0.3614303733   -2.0685469929
 H    1.7752765476   -0.1147934014    1.3193474870
 H    1.3445747859   -2.7070020046    3.2418285832
 H    2.7004549790   -1.8688482330    4.1483709385
 H    0.9145973076   -0.8128217967    5.6969336244
 H   -0.3850575647   -1.6680359130    4.7173510667