20

 O    0.2469631488    1.4081540816   -0.4187666334
 C    0.1478429099    0.0362573465   -0.0937699183
 C   -1.2982603238   -0.3829918594    0.1983880511
 N   -2.1821624424   -0.2181329398   -0.9518617372
 C   -2.0997983994   -1.1895761369   -2.0567110955
 C   -3.4204183847   -1.9030702683   -2.4087914887
 O   -4.2052817109   -1.2147124987   -3.3439164616
 C   -2.9814968404    0.8723844121   -1.0431231371
 O   -3.7315027637    1.1306714492   -1.9726731496
 H   -0.1399416715    1.5389799794   -1.2905099589
 H    0.5786909153   -0.6009091844   -0.8811679693
 H    0.7469265160   -0.1140688353    0.8105199246
 H   -1.3285604252   -1.4272290499    0.5316707198
 H   -1.6812555652    0.2355106775    1.0151605782
 H   -1.7355553421   -0.6947053907   -2.9651647386
 H   -1.3548939232   -1.9313359637   -1.7567264098
 H   -3.1669334868   -2.8686545795   -2.8629289429
 H   -3.9622031386   -2.1183818812   -1.4710044983
 H   -4.2620172028   -0.2963340037   -3.0299603926
 H   -2.8928548595    1.5372790250   -0.1667921218