21

 C    0.1214299434    1.5333871461   -0.1755450329
 C    0.0333914864    0.0300538964    0.1033392870
 C   -1.4005407736   -0.5328407456    0.1561148468
 C   -1.4566663267   -2.0394348421   -0.1428388709
 C   -2.8855338544   -2.5501088248    0.0241449571
 C   -3.3423442820   -2.2858025769    1.4486791862
 O   -3.1538382998   -0.9259267197    1.8749925304
 C   -2.1102802559   -0.1610516749    1.4623310571
 O   -1.8409851780    0.8194622232    2.1044466524
 H    1.1660770738    1.8557530618   -0.2295779508
 H   -0.3504842418    1.7815625506   -1.1337159551
 H   -0.3773356791    2.1014060158    0.6107184029
 H    0.5721169523   -0.5148885861   -0.6821828885
 H    0.5415299529   -0.2030536537    1.0460989256
 H   -1.9954489772   -0.0278534910   -0.6218461765
 H   -1.0850957817   -2.2221196699   -1.1563214651
 H   -0.7859979248   -2.5797802029    0.5393749459
 H   -3.5516899983   -2.0419648942   -0.6838895883
 H   -2.9574951414   -3.6246773915   -0.1756201917
 H   -4.4096898045   -2.4811688280    1.5800319254
 H   -2.7942928895   -2.9320931226    2.1475287829