16

 C    0.2271612481    1.5246879149   -0.2239838686
 C   -0.0314585639    0.0345298809   -0.0800640266
 O   -1.3953615793   -0.2846820521   -0.0804737718
 C    0.7820031876   -0.8553220805   -1.0507749010
 N    1.8046719391   -1.0396167561    0.0075076333
 C    0.8280044183   -0.6675833521    1.0513312644
 C    1.3452257684    0.1281750382    2.1606252936
 N    1.7186672379    0.7808928791    3.0390487859
 H    1.2996908872    1.7304243571   -0.2610186978
 H   -0.2360724865    1.8919071010   -1.1448194940
 H   -0.1879796291    2.0787375077    0.6261172914
 H   -1.8765243233    0.4098832165    0.3823461778
 H    0.2110621140   -1.7578727315   -1.3026574508
 H    1.1570950301   -0.3889135097   -1.9665942691
 H    2.1885533272   -1.9735468861    0.0968390825
 H    0.2416797841   -1.5043134373    1.4543583708