15

 C   -0.0312721572    1.5236791990    0.0075322169
 C    0.0025605396    0.0231717397   -0.0307669349
 C   -0.0519445124   -0.7187944358   -1.1719509557
 N   -0.0244249307   -2.0832893088   -1.2392674837
 C    0.0685151411   -2.6893828743   -0.0945365570
 N    0.1502689867   -4.0362310820   -0.0093697476
 O    0.1233111921   -2.0985746979    1.1060547670
 C    0.0938837625   -0.6741192592    1.2282162370
 O    0.1451851122   -0.2317670138    2.3412573780
 H    0.8692892351    1.9285146964    0.4816500709
 H   -0.1059252510    1.9354387877   -1.0024720004
 H   -0.8821002927    1.8862363292    0.5943290160
 H   -0.1261859572   -0.2174258080   -2.1345612319
 H   -0.0433202677   -4.5606966126   -0.8450085945
 H    0.0250344895   -4.4749040896    0.8864043998