19

 C   -0.0241186255    1.5297646653   -0.0046563055
 C   -0.0150919178    0.0333026507    0.0243791566
 C    0.4644676259   -1.0166294818   -0.9491853410
 C    1.2951409312   -1.7039638419    0.1251833409
 C    0.4804512815   -0.8784661797    1.2037371791
 O    1.1957358000   -0.2128488459    2.2055731473
 C   -0.7185127868   -1.7157312369    1.5935021109
 C   -1.5505089320   -1.7796234854    0.5483690698
 C   -1.0383177437   -0.9139949566   -0.5489220148
 H    0.9642481594    1.9352255438    0.2351477086
 H   -0.3094266943    1.8944297255   -0.9970466322
 H   -0.7351596672    1.9371255805    0.7227330286
 H    0.7430060544   -0.9012200954   -1.9906227978
 H    1.2864219381   -2.7969183937    0.2008966382
 H    2.3225368049   -1.3305569172    0.0989947015
 H    1.5148957512   -0.8640370493    2.8390014684
 H   -0.7734157091   -2.2936230369    2.5093996428
 H   -2.4376590788   -2.3956535640    0.4664447915
 H   -1.6916991216   -0.5662566210   -1.3417794931