19

 C   -0.2437972251    1.4375280331    0.8981984502
 O   -0.1396796615    0.0491226160    1.1136017961
 C    0.7139559255   -0.5875489730    0.1867643657
 C    0.7424633826   -2.0590035776    0.4860543532
 C   -0.4823868602   -2.8247427392    0.9709149610
 C    0.7326635495   -2.8461534853    1.8283937376
 C    1.7221245155   -3.8850887224    1.2772327276
 C    1.7711987305   -3.0255324110   -0.0149171892
 O    2.5201280308   -3.0009247862   -0.9525406151
 H   -0.6525506746    1.6652925133   -0.0985030236
 H   -0.9201121653    1.8354020242    1.6583453768
 H    0.7322795826    1.9383544681    0.9916529195
 H    0.3617251994   -0.4191371427   -0.8453663711
 H    1.7334026086   -0.1706483671    0.2475028117
 H   -1.2795548730   -2.1618513082    1.2881154754
 H   -0.8087576689   -3.7264207079    0.4589674812
 H    0.7648376861   -2.4082506666    2.8165068323
 H    2.7043642791   -3.8846186912    1.7583307960
 H    1.3610222385   -4.9148349162    1.1982449547