23

 C    0.7271761134    1.4607293254    0.2022347183
 C    0.1033412873    0.0905542618    0.0240820055
 C    0.4471835849   -0.7160343266   -1.2462974193
 C    0.9806993762   -1.7920896490   -0.2656687526
 C    0.1174144322   -3.0474168530   -0.1770489597
 C    2.4764365275   -2.0857886330   -0.3795723886
 C    3.0699795594   -2.7855987788    0.8383912863
 O    4.4787366687   -2.8376383169    0.6498558716
 O    0.7135684434   -0.9132148140    0.8711386634
 H    1.7997422093    1.4328356520   -0.0135675152
 H    0.2544929437    2.1868368583   -0.4687904203
 H    0.5937450668    1.8100030131    1.2311395655
 H   -0.9767553284    0.1460493635    0.2215096264
 H   -0.3959294452   -1.0177376116   -1.8703210431
 H    1.2156447977   -0.2587806823   -1.8740739576
 H    0.2770815488   -3.6925754699   -1.0481625006
 H    0.3512018193   -3.6220770840    0.7237179576
 H   -0.9426217226   -2.7801003889   -0.1369671190
 H    2.6647304236   -2.6871799992   -1.2778445487
 H    3.0138220213   -1.1401349560   -0.5082834250
 H    2.8035320102   -2.2166305069    1.7407803242
 H    2.6536949194   -3.7988608491    0.9461567833
 H    4.8686142631   -3.2379761850    1.4322815175