21

 C    0.0100027066    1.5338783954    0.1212156089
 C    0.1094183665    0.0115881619    0.0349662921
 C    0.9992758991   -0.5449732676   -1.1176600585
 C    1.9300295642   -1.4290211668   -0.2907502653
 C    2.3269000421   -0.4394969532    0.9259905128
 C    0.8055697099   -0.6475336253    1.2691043567
 C   -0.2672133157   -1.3065485345    2.1834048145
 O   -0.3523923488   -2.4173540878    1.2019313144
 C    1.0351349851   -2.0540545145    0.8421802377
 H    0.9921469397    2.0084848133    0.2194214569
 H   -0.4633587402    1.9436485445   -0.7776049137
 H   -0.5946235652    1.8419139924    0.9818250717
 H   -0.8979200917   -0.3998280526   -0.0594519991
 H    0.4266128255   -1.1129655451   -1.8558509033
 H    1.5483768044    0.2393314811   -1.6493772707
 H    2.6958268658   -2.0087119733   -0.8098234900
 H    3.0171772503   -0.8942640173    1.6367305353
 H    2.6768687487    0.5547157623    0.6385420624
 H    0.0953620397   -1.6776216608    3.1486611579
 H   -1.2299853297   -0.8006891271    2.2986828769
 H    1.6847495439   -2.6263068248    1.5161259723