17

 C   -0.0359210588    1.5126160206    0.0215887736
 C    1.5133153515    1.5525012440    0.0143112378
 C    2.1416791304    1.1899134906    1.3838425660
 C    1.8425878992   -0.3104398950    1.1362305065
 C    0.3512957048   -0.6797002118    1.3414867191
 C   -0.0071707711   -0.0361751592   -0.0217411783
 C    1.5268323963    0.0259487816   -0.3688223606
 H   -0.5561476120    1.9914020799    0.8589413222
 H   -0.4372663539    1.9175108452   -0.9128660957
 H    1.9931259862    2.3416715367   -0.5659348841
 H    3.2204823854    1.3753139296    1.3753636045
 H    1.7169309246    1.6550013266    2.2806753112
 H    2.5897329120   -1.0332322526    1.4664124777
 H    0.2135800816   -1.7649907242    1.3043786679
 H   -0.1523004812   -0.2964713758    2.2362190857
 H   -0.7609982049   -0.5363170798   -0.6310705682
 H    2.0070114901   -0.4137695666   -1.2400667153