21

 C   -0.0213542212    1.5257145959   -0.0645244767
 C    0.0185144764    0.0078052018   -0.1184858538
 O    0.7990640501   -0.4410553360    0.9901668514
 C    0.7702304179   -1.8218399893    1.2635985765
 C    1.2936342623   -2.6918767862    0.1186644644
 C    1.4255709152   -2.1353568361    2.6446799861
 C    0.1651785745   -2.9310535754    3.0970919779
 C   -0.5633880986   -2.3559272249    1.8728932972
 O   -1.7156207252   -2.2398958332    1.5653452442
 H    0.9908276982    1.9388908991   -0.1040499899
 H   -0.5906825704    1.9204384814   -0.9114473784
 H   -0.4941372946    1.8650675350    0.8613308475
 H   -0.9925019133   -0.4124076280   -0.0606729884
 H    0.4704984140   -0.3256944976   -1.0643340398
 H    2.2977153145   -2.3596717020   -0.1648381812
 H    1.3516391838   -3.7411592152    0.4245779402
 H    0.6434336591   -2.6381449396   -0.7585452984
 H    2.3646345268   -2.6889736333    2.6069727293
 H    1.5651878023   -1.2138428086    3.2113682162
 H    0.2765051576   -4.0183760684    3.0349378216
 H   -0.2745146893   -2.6849300194    4.0662040540