21

 O   -0.0432643026    1.4240426523   -0.2281542320
 C    0.0033923318    0.0305711237    0.0493545923
 C   -1.4048740993   -0.5188833365   -0.0141359608
 C   -2.1801748201   -0.5225014128   -1.3659767839
 C   -2.8843639560   -1.7937855671   -0.8129047060
 C   -1.5997462132   -2.0596918026    0.0151468665
 C   -4.0040911148   -1.3543719351    0.1385403881
 O   -3.7020421194   -0.1113951234    0.7572558338
 C   -2.3280285689    0.0948089102    1.0561791471
 H    0.8480319544    1.7773057742   -0.1563990156
 H    0.6295253456   -0.5006914425   -0.6859382126
 H    0.4344343002   -0.1634368471    1.0467838773
 H   -2.7958758048    0.3465402333   -1.6038207089
 H   -1.5173003570   -0.7543431696   -2.2037639242
 H   -3.2322029403   -2.5651247604   -1.5040080444
 H   -0.8334289488   -2.5821610055   -0.5662030040
 H   -1.7082327838   -2.5428313497    0.9924881935
 H   -4.9424464710   -1.1927875528   -0.4039899222
 H   -4.1831513080   -2.1384355133    0.8942355264
 H   -2.0728695022   -0.3279580155    2.0437139316
 H   -2.1878704519    1.1781600401    1.0999892980