17

 C   -0.0978666364    1.5363048913    0.0261851968
 C    0.0629522044    0.0163733196   -0.0030869676
 N    0.7324334328   -0.4946129764    1.1994676120
 N    2.0490924275   -0.6964758079    1.0862898564
 C    2.6921442396   -1.1380896947    2.1326028301
 C    2.0525704872   -1.4105682287    3.3738053334
 C    0.7174187074   -1.1999554974    3.4837379901
 C   -0.0471006315   -0.6921307290    2.3604120283
 O   -1.2433767052   -0.4418471610    2.3565066130
 H    0.8762659240    2.0285160696    0.1014245612
 H   -0.5844675348    1.8753292194   -0.8932627337
 H   -0.7173349008    1.8359629310    0.8743238414
 H   -0.9148375259   -0.4663823368   -0.0521628574
 H    0.6742731106   -0.3027132842   -0.8482939509
 H    3.7563728043   -1.2910531297    1.9949307808
 H    2.6379324960   -1.7821301492    4.2088205871
 H    0.1618815307   -1.3841619359    4.3953886390