13

 O   -0.3065560410    0.4710949884    0.7749209750
 C    0.0946922042    1.0414451068   -0.2032537201
 C    1.3092113669    1.9657941094   -0.1985415958
 N    1.2031807364    2.9452937195   -1.2571175230
 C    1.3349987507    4.1537221249   -0.9542251037
 O    1.2308208788    5.1042849627   -1.9292919229
 C    1.3754290826    6.4150138731   -1.5688122931
 O    1.2980539406    7.2953195117   -2.3624382840
 H   -0.3794859201    0.9250909581   -1.2011656922
 H    1.4381123828    2.3798032735    0.8125568332
 H    2.1783254313    1.3231338513   -0.4067602387
 H    1.5354853155    4.5503099331    0.0498388212
 H    1.5659113412    6.5454955576   -0.4886083858