21

 C    0.4877366300    1.0602320653   -2.8451412204
 O    0.5598656254   -0.1504801732   -2.1293419001
 C    0.8049016010   -1.2655864877   -2.9610913206
 C    0.7917649706   -2.5110801874   -2.1102853910
 C    1.7729943317   -3.6336981419   -2.2711098468
 C    2.8549790333   -3.6874334364   -3.3313521941
 C    1.8556046410   -2.7401594611   -1.0316171555
 C    2.9516615532   -1.7652799075   -0.8308036901
 O    3.4359497355   -1.5206999862    0.2482618272
 H    1.4242323622    1.2731845304   -3.3850212821
 H   -0.3350921574    1.0536874035   -3.5775801122
 H    0.3097761482    1.8573995016   -2.1199323436
 H    0.0223105661   -1.3454241884   -3.7349284868
 H    1.7593509553   -1.1375150893   -3.4942529508
 H   -0.2069095649   -2.7951414894   -1.7919728658
 H    1.3627260553   -4.6150001316   -2.0465039579
 H    3.2864447635   -2.7113991088   -3.5604884574
 H    3.6737675709   -4.3374612930   -3.0062474965
 H    2.4542238148   -4.0994792011   -4.2638327427
 H    1.5132239572   -3.1696719497   -0.0960972783
 H    3.3246589471   -1.2541467682   -1.7443124848