19

 C   -0.0200712803    1.4696878226   -0.0103821308
 C   -0.0028340341    0.0177487249   -0.0100971750
 C    0.0109347063   -1.1930516032   -0.0096695530
 C    0.0269280651   -2.5522620318   -0.0097372003
 C    0.0311595852   -3.7649837165   -0.0027000368
 C    0.0679349280   -5.1996140173   -0.0172560132
 C    1.2054678156   -5.8125290504   -0.8232040161
 C   -0.3954935856   -5.9272308106    1.2403377163
 C   -1.2664417482   -5.9370943095    0.0184844274
 H    0.9968044366    1.8788138651   -0.0140512389
 H   -0.5395447560    1.8629715504   -0.8918221890
 H   -0.5305285315    1.8602887620    0.8774954409
 H    2.1768607059   -5.4964254786   -0.4308780971
 H    1.1581463641   -6.9050575182   -0.7805131904
 H    1.1488924151   -5.5082424536   -1.8728024239
 H    0.1398473192   -6.8336996596    1.5020460892
 H   -0.7034844824   -5.3219504887    2.0842451835
 H   -2.1692461915   -5.3385462349    0.0279157348
 H   -1.3322728016   -6.8503624920   -0.5632149277