18

 C    0.0134729759    1.4996175524   -0.0678418430
 C   -0.0197581483   -0.0101305149    0.0265185881
 C   -1.2552892575   -0.6888463797   -0.5785023747
 O   -1.8779117225   -1.6403298355    0.2627409007
 C   -0.9869324768   -2.6212860385    0.7552123888
 C    0.0569839945   -1.9855034754    1.6781064065
 O    0.3759049380   -2.4865346731    2.7318149031
 C    0.6260934757   -0.6913755547    1.1991826099
 N    1.2802885261   -0.6614639289   -0.1374005627
 H    0.9555054501    1.8848408555    0.3287900505
 H   -0.0688913067    1.8226526276   -1.1118665786
 H   -0.8162787981    1.9429844947    0.4921761568
 H   -2.0227329722    0.0609129942   -0.7872896882
 H   -0.9762728368   -1.1563830321   -1.5398584195
 H   -1.5688944665   -3.3354957799    1.3402258985
 H   -0.4970628927   -3.1715572584   -0.0692732083
 H    1.1373542681   -0.1124073541    1.9630306389
 H    1.1836383795   -1.5642634892   -0.5996498468