14

 O   -0.1348760480   -0.0455041301   -0.2462025589
 C    0.0097907228    1.0769670353    0.1565430061
 C    1.3079835361    1.8642262814    0.0372942281
 C    2.4655027534    1.1674612808   -0.6915386339
 O    2.3853198367    2.0862597246   -1.8031047926
 C    1.3025295299    2.8130286969   -1.2124138127
 C    1.5931071946    2.5691750717    1.3445559647
 O    0.8460690863    3.3875940735    1.8173070838
 H   -0.8114708363    1.6492573890    0.6353597503
 H    3.4364955771    1.2233158680   -0.1823380322
 H    2.2562355662    0.1352815033   -0.9872338335
 H    0.3896233986    2.7769474585   -1.8192764919
 H    1.5512328730    3.8573809545   -0.9919473886
 H    2.5374631196    2.2742018625    1.8529135115