23

 C   -0.0544873203    1.5169793900   -0.0417900891
 C    0.0324310325    0.0073432499    0.0269058806
 C    1.3660947253   -0.6926600165   -0.2122158522
 C    0.7344406873   -0.6953913523    1.1431451731
 C    1.2074284914   -0.1259337518    2.4956994890
 C   -0.0897442069   -0.7658023854    3.0767813202
 C    0.2053396113   -1.8575187838    2.0041321996
 C    1.5190776836   -2.4757085256    2.5293168003
 C    2.2817894666   -1.1578353591    2.9034902632
 H    0.8526468457    1.9835603521    0.3556478142
 H   -0.1759521450    1.8586387712   -1.0758476461
 H   -0.9036864147    1.8988141238    0.5365448288
 H   -0.8364942524   -0.5072925526   -0.3800898209
 H    1.3714803008   -1.6117709125   -0.7909818462
 H    2.2364178435   -0.0621998942   -0.3750569765
 H    1.4427249209    0.9296899395    2.6346737608
 H   -0.0846385593   -1.0671085496    4.1292123232
 H   -0.9847208363   -0.1839490475    2.8485501547
 H   -0.5675137541   -2.5370171637    1.6418180842
 H    1.3555387052   -3.1292393156    3.3913783720
 H    2.0391158627   -3.0539081907    1.7605273998
 H    3.2071529392   -1.0361952666    2.3337272920
 H    2.5292391028   -1.0997032293    3.9675840155