17

 C    0.1065079741    1.4666940076    0.0548638555
 C    0.0280563928   -0.0190361479   -0.0348085783
 N    0.0267955740   -0.7326263877   -1.1420552740
 C   -0.0427828382   -2.0429452942   -0.7225742801
 C   -0.0891743157   -2.1041555869    0.6243379008
 N   -0.0471249753   -0.8283930673    1.1030222500
 O   -0.1937805609   -3.3072152175    1.2230960879
 C   -0.0951486777   -4.2455705272    0.0870562562
 C   -0.1499215060   -3.4392537639   -1.2633700949
 H    1.0071041987    1.8052924279    0.5823290271
 H    0.1340154084    1.8685600582   -0.9589645287
 H   -0.7593613521    1.8977630560    0.5725229164
 H   -0.0523820520   -0.5258124182    2.0619433457
 H    0.8553992043   -4.7742437320    0.1992971849
 H   -0.9144611263   -4.9579131977    0.1974206432
 H   -1.0855478235   -3.6258764397   -1.8050819099
 H    0.6711831354   -3.7394165195   -1.9230920018