17

 N    0.1259988801    1.1193537150    0.2923106873
 C    0.0181317265   -0.0806396585   -0.0464731210
 O    0.9664470777   -0.9814941031   -0.5283937083
 C   -0.0464899354   -2.0023920494   -0.7959465601
 C   -0.2365444446   -3.0000032045    0.3628331516
 N   -1.1874932494   -2.0664318188    1.0517538329
 C   -2.6344354535   -2.2690052022    0.6901500935
 C   -2.6072967743   -1.0308485452   -0.2489010331
 C   -1.0951258700   -1.0874753999   -0.1132816767
 H    1.0872073785    1.4533247984    0.2036612817
 H   -0.0158464110   -2.3232699523   -1.8371052007
 H   -0.6988469626   -3.9467061679    0.0605494587
 H    0.6646524808   -3.2078065912    0.9457655826
 H   -2.8207495003   -3.2140864119    0.1650436435
 H   -3.2976905422   -2.2129680337    1.5564972841
 H   -3.0255296187   -1.1354884009   -1.2512846568
 H   -3.0137219615   -0.1305871039    0.2168842707