20

 C    0.1377153644    1.5988224866    0.1501427869
 C    0.0731178063    0.0709037583    0.1050275451
 C    0.5536741592   -0.5082866526   -1.2413678960
 C    0.5245217021   -1.9939592918   -1.3126012608
 C   -0.2857700031   -2.8966727867   -1.9436935041
 N   -1.4274831142   -2.6467531037   -2.7260269213
 C    0.1992830430   -4.2011469354   -1.5836212892
 C    1.2594642403   -3.9936852043   -0.7626746426
 O    1.4729056709   -2.6706425018   -0.5777273416
 H    1.1605594503    1.9578652334   -0.0107129756
 H   -0.4941042606    2.0471567585   -0.6253659860
 H   -0.2013496657    1.9833409896    1.1169787429
 H    0.6884771441   -0.3540436537    0.9062439710
 H   -0.9523919792   -0.2691516702    0.2921099799
 H   -0.0691152682   -0.1066621702   -2.0517000376
 H    1.5739850904   -0.1508495568   -1.4385650812
 H   -1.4708076738   -1.6901243430   -3.0547834193
 H   -1.4866039340   -3.2664042827   -3.5248889407
 H   -0.2024971770   -5.1527358788   -1.8963032708
 H    1.9378289749   -4.6573523748   -0.2518805988