14

 O    0.0853842735    1.3729908404    0.0212943832
 C    0.0713289042    0.0304870358   -0.0728949630
 C    0.0355502547   -0.7560302426   -1.2077736166
 C   -0.0023925539   -0.8802014183   -2.6518151637
 C   -0.0222089187   -2.1884570235   -2.9693238551
 C    0.0023067421   -3.0492837638   -1.7185730275
 N    0.0377591972   -2.0188454930   -0.6891878189
 N    0.0717929973   -2.0400312795    0.6378610695
 N    0.0921568004   -0.7743350273    1.0181299514
 H    0.1111496317    1.5812836904    0.9644845638
 H   -0.0126586408   -0.0479031001   -3.3400211436
 H   -0.0514379307   -2.6142483272   -3.9621034047
 H   -0.8875643995   -3.6800839393   -1.6130417714
 H    0.8852290126   -3.6956234720   -1.6585078433