21

 C   -0.0901429930    1.4756687809    0.0381652646
 C   -0.0552001678   -0.0098378746   -0.0319112248
 C   -0.0590226242   -0.8743746775   -1.0529998606
 C    0.0115668846   -2.2211539536   -0.3230493079
 O   -0.9511571046   -2.0025134548    0.7628718404
 C    0.0161596842   -0.9818198025    1.1651410906
 C    1.1620846204   -1.9872404766    0.7402636707
 C    1.3237104016   -3.1529314448    1.7182429878
 C    2.5297356484   -1.4738801606    0.3051172388
 H    0.8005608062    1.8727377758    0.5422994699
 H   -0.1404554942    1.9229981726   -0.9585235718
 H   -0.9558500705    1.8274959607    0.6135779217
 H   -0.0868068334   -0.7021212841   -2.1192893022
 H   -0.1227680369   -3.1560101898   -0.8681841279
 H   -0.1115727989   -0.6073067391    2.1824724538
 H    0.3557658795   -3.5333851006    2.0447478269
 H    1.8831715931   -3.9711442114    1.2500175269
 H    1.8935217700   -2.8382198128    2.6003394947
 H    3.1055214871   -1.1398326075    1.1761005715
 H    3.1038645607   -2.2792719308   -0.1673284696
 H    2.4647863775   -0.6452951589   -0.4013406035