21

 C    0.0173841509    1.5862516357    0.0017326865
 C    0.0182648171    0.0549004672   -0.0039570025
 C    0.6637357260   -0.5118266691   -1.2791450561
 C    0.6788648977   -2.0567900609   -1.2915221071
 C    1.3221380753   -2.5792276570   -0.0184322638
 O    2.2990395379   -3.2944218821   -0.0135848113
 C    0.6916033134   -2.0479570562    1.2628078810
 C    0.7209471941   -0.5067897726    1.2535479144
 O    2.0565971372   -0.0215577481    1.3685035609
 H    1.0418844934    1.9663339188    0.0368335082
 H   -0.4709189294    1.9843180045   -0.8934240927
 H   -0.5141781304    1.9772608083    0.8757745615
 H   -1.0240104207   -0.2963242249    0.0368064508
 H    0.1366650135   -0.1425634540   -2.1648812633
 H    1.6933040170   -0.1395790685   -1.3526197607
 H   -0.3549177499   -2.4260056634   -1.3362330752
 H    1.2214257394   -2.4532729542   -2.1527447392
 H   -0.3514199016   -2.3838717834    1.3146090657
 H    1.2314484870   -2.4432933971    2.1265827301
 H    0.1987127527   -0.1342789722    2.1431693470
 H    2.6617496092   -0.6600784406    0.9773004859