16

 C    0.4590976056    1.4456997625   -0.2952086130
 C    0.0470659699    0.0364585165    0.0698591933
 O    0.6652562717   -0.9624648590   -0.7755939035
 C    1.3297581901   -1.6114695891    0.3294706810
 C    2.7760437057   -1.6133431712    0.2268763680
 C    3.9749740740   -1.6199769454    0.1532350701
 C    0.6670467738   -0.6160779455    1.3475376723
 C    1.5329378133    0.1975721876    2.1780644544
 N    2.2097909949    0.8566588505    2.8439942627
 H    1.5438954417    1.5668909744   -0.2412416659
 H    0.1338315473    1.6648441922   -1.3164330752
 H   -0.0082427892    2.1698697106    0.3799180039
 H   -1.0443253626   -0.0676138121    0.0473463169
 H    0.9610742934   -2.6362797786    0.4590682557
 H    5.0356329257   -1.6191866592    0.0904765328
 H   -0.0734514151   -1.1102788344    1.9787868965