13

 N    0.1737155645    0.9852760583   -0.7581551649
 C   -0.0264188087    0.0250925843    0.1701011204
 O    0.7350257245   -0.2154064707    1.0896126751
 C   -1.2991890929   -0.7996280690    0.0197559050
 C   -1.1277073775   -2.2770586671    0.2556578258
 N   -1.7779155720   -1.4492960949    1.2543688913
 C   -2.3009109498   -0.3190456580   -0.8996403139
 N   -3.0404220757    0.1082709849   -1.6798672009
 H    0.9918969749    1.5661184686   -0.6752633661
 H   -0.5066098873    1.1906819464   -1.4710291812
 H   -1.7771576140   -2.9616437440   -0.2803612751
 H   -0.1075964770   -2.6053253430    0.4302736875
 H   -1.0915873391   -1.2049199657    1.9714382370