18

 C   -0.6560177902    1.3235673295    0.0036265972
 C    0.0448633728   -0.0259945471    0.0140199466
 C    1.2384422914   -0.2534242506   -0.9762365945
 C    2.1609533758   -0.6434816390    0.2105902064
 O    2.9519150320   -1.7848578942    0.1313929386
 C    2.8554443434    0.5387044610    0.8940317826
 O    1.6860827144    0.8231328054    1.6976957164
 C    0.9857069399   -0.3393207164    1.2086446951
 H    0.0578509102    2.1271619296    0.2025897493
 H   -1.1321596834    1.5116012686   -0.9644543959
 H   -1.4322706627    1.3711788534    0.7749329792
 H   -0.6877933208   -0.8340858686   -0.0922850784
 H    1.0737368687   -1.0757028219   -1.6803790529
 H    1.5638243669    0.6210395521   -1.5481204797
 H    2.4760152762   -2.4585169440   -0.3648513662
 H    3.7043750408    0.2258997049    1.5143758360
 H    3.1500765968    1.3851165384    0.2620195614
 H    0.6299902078   -0.9835933811    2.0174457489