23

 C   -0.0382236329    1.4856861734   -0.0652353760
 C   -0.0633769010   -0.0387100826    0.0696842330
 C   -1.4639835154   -0.6131211197   -0.0915764861
 O   -1.4005890596   -2.0180699482    0.0436344135
 C   -2.6540742095   -2.6500061836   -0.1013002302
 C   -2.4521636517   -4.1509410303    0.0813213374
 C   -1.9192526510   -4.5175888619    1.4786360387
 C   -3.7185047343   -4.9248990007   -0.2127447991
 O   -4.7697351128   -4.4376888813   -0.5450356756
 H    0.9774173184    1.8738540420    0.0531197139
 H   -0.4034644067    1.8059248083   -1.0472640503
 H   -0.6668907791    1.9645379656    0.6936203846
 H    0.5894249936   -0.4980991289   -0.6814570721
 H    0.3263465749   -0.3404997462    1.0487627270
 H   -2.1440682302   -0.1870021885    0.6666122731
 H   -1.8782868843   -0.3436237896   -1.0787178002
 H   -3.3728605473   -2.2725644736    0.6447127262
 H   -3.0867281413   -2.4433456640   -1.0918297772
 H   -1.7083390702   -4.4910601958   -0.6563543815
 H   -1.7471056093   -5.5946322208    1.5705346427
 H   -0.9771464446   -3.9971202175    1.6579800076
 H   -2.6291915024   -4.2189843652    2.2576180690
 H   -3.6147342337   -6.0285878210   -0.0890246085