20

 C   -0.0073145988    1.4887523366   -0.0138977072
 C    0.0204716405   -0.0166107811   -0.0097691943
 N    0.0618570432   -0.7299250226    1.0521094206
 O    0.0779354490    0.0694720850    2.2076452724
 C   -0.0002632095   -0.7563787424   -1.2956528998
 C    1.0422541912   -0.6586307428   -2.4635315177
 C   -0.0270553718   -1.6822299749   -2.9368931729
 C    0.0218857519   -2.2951148460   -1.5068913614
 C   -1.1059855767   -0.6973607254   -2.4066099561
 H    0.8761617889    1.8875423858    0.4948291816
 H   -0.0410244074    1.8817948365   -1.0313564939
 H   -0.8772368658    1.8552865296    0.5404273380
 H    0.1088598863   -0.5906300853    2.9079603440
 H    1.0885656474    0.2905911715   -3.0051340268
 H    2.0408998503   -1.0486488437   -2.2485152576
 H   -0.0424608317   -2.2203462888   -3.8844680729
 H    0.9422986808   -2.8085868923   -1.2188419899
 H   -0.8629008790   -2.8411283436   -1.1710191187
 H   -2.0771556990   -1.1228889568   -2.1394141647
 H   -1.2150588195    0.2490587610   -2.9440986227