17

 O   -0.0544231552    1.4075050891   -0.2085697414
 C    0.0623365180    0.0060744917   -0.0255067557
 C   -1.3364397377   -0.5488402188    0.1581641240
 C   -2.2899006093   -0.4961450576   -1.0791547655
 C   -2.5775781092   -1.9999506328   -0.8883205817
 O   -3.3524410864   -2.7814456496   -1.3550687692
 C   -1.4952792529   -2.0822887698    0.1833384565
 C   -0.4948744134   -3.1524454396    0.3545646857
 O   -1.5126792815   -2.9156111122    1.3223231324
 H    0.8271054978    1.7733820920   -0.3277684376
 H    0.5377539212   -0.4746462620   -0.8968713301
 H    0.6750728938   -0.2336620182    0.8585952027
 H   -1.7992645817   -0.0950861706    1.0390045520
 H   -3.1629220188    0.1545519606   -0.9997041511
 H   -1.7805822153   -0.2803467531   -2.0236215115
 H   -0.5985428375   -4.0706787516   -0.2209879728
 H    0.5166466979   -2.8903007175    0.6610821535