20

 C   -0.0248794235    0.7418835715    0.9861632087
 O   -1.2972154807    0.2980500831    0.5705731730
 C   -1.2887123932   -0.4192723666   -0.6513342294
 C   -0.9276246877   -1.9049127022   -0.4690996482
 C   -1.9519218311   -2.5946078821    0.4346651723
 O   -1.4236199802   -3.8521715322    0.8696661354
 C   -0.7435428593   -2.5615642105   -1.8498650358
 N   -0.8011661047   -3.9187642994   -1.8536284396
 O   -0.5474068863   -1.9031090227   -2.8571105464
 H   -0.1709331301    1.3358442605    1.8919222618
 H    0.6593456338   -0.0871365644    1.2221059598
 H    0.4516156572    1.3718047671    0.2198022470
 H   -2.3011425078   -0.3341927395   -1.0614033059
 H   -0.6033413852    0.0301546453   -1.3777737533
 H    0.0433433611   -1.9743981589    0.0409749990
 H   -2.1442845244   -1.9409823350    1.2938073116
 H   -2.8976453011   -2.7357420053   -0.1100815086
 H   -2.0821636923   -4.2793526422    1.4254884039
 H   -0.9274918307   -4.4288457056   -0.9916608003
 H   -0.6434208440   -4.3968052010   -2.7252938651