25

 C   -0.1987469039    1.5790511912   -0.0122987316
 C    0.0298884012    0.0628843877   -0.0136154154
 C    0.8588305104   -0.4474109054   -1.1705231617
 C    1.6521889813   -1.4640091786   -0.8287790933
 C    2.5653717784   -2.2505507557   -1.7146610783
 C    1.4803643168   -1.7948465292    0.6387378731
 C    0.7633063141   -0.5472990101    1.2368373517
 C    1.8316068572    0.4134100287    1.7890463319
 C   -0.2194248775   -0.9157450573    2.3544108845
 H    0.7423429466    2.1360208312   -0.0389159554
 H   -0.7804962179    1.8737879175   -0.8923395812
 H   -0.7595286845    1.9014306634    0.8717868875
 H   -0.9665272190   -0.4059495078   -0.0706890948
 H    0.7685940142   -0.0409315769   -2.1738592816
 H    2.5482750214   -1.8818314020   -2.7441704450
 H    3.6015103636   -2.2101794462   -1.3542248084
 H    2.2862152320   -3.3123739028   -1.7300684123
 H    0.8666436911   -2.7014354222    0.7524694358
 H    2.4319482143   -2.0070371243    1.1434452409
 H    2.5530020217    0.6939343544    1.0149057744
 H    1.3894257800    1.3310733747    2.1886269755
 H    2.3842790301   -0.0668034123    2.6039323560
 H    0.2992760661   -1.3761766304    3.2030387298
 H   -0.7424719189   -0.0297170205    2.7327210953
 H   -0.9760279286   -1.6246762371    2.0009728727