13

 O    0.0957989331    1.3590765377    0.0521352693
 C    0.0706681624    0.0099858369    0.0547230236
 N    0.0690159622   -0.7071309695   -1.0549596252
 N    0.0666878090   -2.0231259894   -0.6699483202
 C    0.0274550676   -2.1324130945    0.6881041712
 C    0.0461302189   -0.8332742634    1.1907638653
 N    0.0299525905   -0.9497159374    2.5494071055
 N    0.0020593288   -2.2457803233    2.9315134226
 C    0.0009640877   -2.9809094672    1.8207398690
 H    0.1090015713    1.6395193890   -0.8720149965
 H   -0.0466980285   -2.7272920494   -1.3749527888
 H    0.0470391765   -0.2338807747    3.2533132593
 H   -0.0217236895   -4.0568600047    1.8908377050