19

 O   -0.0312801633    1.3738947698    0.0239840067
 N    0.0614333820   -0.0316287116    0.0224556203
 C   -1.0810304002   -0.6030890939    0.0015314943
 C   -2.4296427351    0.0722821619    0.0106166556
 C   -3.3217898030   -0.5094119497    1.1275696807
 C   -3.3891569179   -2.0414817295    1.0674955617
 C   -1.9864426548   -2.6623234964    1.1212987527
 C   -1.0888599897   -2.1107507260   -0.0038822015
 H    0.8957698186    1.6305981549    0.0564841846
 H   -2.3154941181    1.1508421460    0.1170396865
 H   -2.9113382040   -0.1121536375   -0.9606026115
 H   -2.9171603816   -0.2031818389    2.1009036917
 H   -4.3257114900   -0.0771714077    1.0553685308
 H   -4.0044277947   -2.4237784387    1.8896555588
 H   -3.8870438381   -2.3483282919    0.1367509952
 H   -1.5248920550   -2.4358196337    2.0912972734
 H   -2.0443401632   -3.7536375781    1.0461349651
 H   -1.4857269762   -2.4563061992   -0.9700978155
 H   -0.0637303758   -2.4798082100    0.0795479802