17

 O   -0.1073860060    0.1881407026    0.7384365106
 C    0.4153785583    0.6738878569   -0.2316703855
 C    1.4004865614    1.7950936057   -0.1488591732
 O    2.2830803215    1.9432514393   -1.2682846846
 C    1.3292776855    2.9743223043   -1.0483762938
 C    0.2768668387    3.2020483565   -2.1066189918
 C    0.8714384485    3.9434936301   -3.3253049441
 C   -0.1218763505    4.2086787972   -4.3572861764
 C   -0.9631420832    4.4118346430   -5.1910228337
 H    0.2142681433    0.3100862962   -1.2617241676
 H    1.8510111097    1.9244824228    0.8344036358
 H    1.7668256901    3.8894843159   -0.6409383852
 H   -0.1537615816    2.2551500045   -2.4396664813
 H   -0.5376350744    3.7970104252   -1.6787369957
 H    1.3210042011    4.8891769134   -2.9947785442
 H    1.6899665327    3.3431188055   -3.7406334856
 H   -1.6955275451    4.5980691909   -5.9369256039