19

 C    0.2845558696    1.3002251909    0.1974134367
 N   -0.2031837622   -0.0571599811    0.0552229448
 C    0.1793221330   -0.8155896049   -1.1403253129
 C   -0.0806424549   -2.2707402596   -0.6778265777
 N   -0.1557419418   -2.2148180840    0.7929507491
 C   -0.2134070129   -0.9724170833    1.1001586252
 C   -0.3488311827   -0.4880260178    2.5028168273
 C    0.2639001218   -1.2303560235    3.6025499904
 O    0.8624837049   -0.0211716344    3.1214218464
 H    1.3821117386    1.3573110516    0.1223256192
 H   -0.1454161713    1.9334433131   -0.5853271467
 H   -0.0091517502    1.7091658720    1.1653745453
 H   -0.4118973765   -0.5175000312   -2.0115935387
 H    1.2416822605   -0.6404887837   -1.3756959976
 H   -1.0349906590   -2.6491672459   -1.0662909107
 H    0.6979329575   -2.9671895943   -1.0012626584
 H   -1.2190888462    0.1375914060    2.7035200846
 H   -0.1734563571   -1.1670282108    4.5972977284
 H    0.8017135088   -2.1453916291    3.3706673250