21

 C   -0.2106679032    1.5595673731    0.0097018539
 C   -0.0274374539    0.0357034898    0.0564070602
 C    0.6313403271   -0.4886869852   -1.2371960014
 C    1.0317874087   -1.9485378915   -1.1256940013
 O    0.7143986089   -2.7795934906   -1.9448835593
 C    1.8987775743   -2.3080016891    0.0824704588
 C    3.3899588182   -2.2958426296   -0.3271082957
 C    1.6267664491   -1.4162768193    1.2673026689
 C    0.7710164163   -0.3953848605    1.2629019192
 H    0.7578118268    2.0678383264   -0.0558096612
 H   -0.8084866226    1.8564875872   -0.8577472380
 H   -0.7195458964    1.9214132137    0.9091293707
 H   -1.0304656427   -0.4124641012    0.1315018915
 H   -0.0185415740   -0.3665469971   -2.1070414274
 H    1.5477100684    0.0936848887   -1.4119697589
 H    1.6434817255   -3.3443644185    0.3395908835
 H    3.7056281211   -1.2967393532   -0.6442322198
 H    4.0185495869   -2.5906808850    0.5189652030
 H    3.5646068556   -2.9953983297   -1.1489112328
 H    2.1675655791   -1.6625889007    2.1792430469
 H    0.6163483867    0.1768014523    2.1754598392