18

 C   -0.0207027114    1.6157054048   -0.0125933603
 C    1.5281843289    1.5292581580    0.0235675443
 C    1.3861697383    0.0585725102    0.5348826197
 C   -0.0692313089    0.0637933530   -0.0092805226
 C    2.3504599750   -0.9694860557    0.0661483934
 C    2.1969743215   -1.9754494922   -0.8310295037
 O    3.3852625781   -2.6500049381   -0.9356538453
 C    4.2056084189   -2.0018037139   -0.0811696652
 N    3.6657282779   -1.0083149943    0.5412410275
 H   -0.4247997442    2.0333828490    0.9140352373
 H   -0.4807114226    2.1347285404   -0.8561095771
 H    1.9591957745    1.5518804746   -0.9813477794
 H    2.0736524647    2.2310996036    0.6572013106
 H    1.3795412883    0.0645398622    1.6302220182
 H   -0.8365015954   -0.4307750287    0.5907292172
 H   -0.1149441809   -0.3303236146   -1.0294695495
 H    1.3863374361   -2.3419606840   -1.4354540595
 H    5.2154656411   -2.3735925344   -0.0030121056