17

 C   -0.3853280040    1.0186373515   -0.1882697294
 O    0.5856080132    0.0230672272    0.0890216285
 C    1.0004716871   -0.6531678097   -1.0401018650
 C    1.5729765826   -2.0168222607   -0.9298281646
 O    1.0011569845   -2.7624303844    0.1269525259
 C   -0.3155966419   -2.6707598288   -0.4697073611
 C    0.2016511796   -1.8172594793   -1.6373356819
 C   -0.2100235461   -1.9026894924   -2.9906105772
 C   -0.5697542231   -1.9699552434   -4.1381753259
 H    0.0156709018    1.7954893264   -0.8554975912
 H   -1.2819760634    0.5882135271   -0.6545265499
 H   -0.6562947466    1.4734343623    0.7665290733
 H    1.4595358160   -0.0376736942   -1.8173773017
 H    2.5434603273   -2.3239147768   -1.3046895627
 H   -0.6627010060   -3.6577759556   -0.7878208019
 H   -1.0434596151   -2.2016926539    0.1994737948
 H   -0.8828977059   -2.0331722953   -5.1506255799