23

 C    0.0220438997    1.3906578931   -0.0008487099
 O    0.0112944137   -0.0085318259    0.1303909595
 C   -1.2758591306   -0.5641556898   -0.0463669974
 C   -1.1689366197   -2.0769873487    0.0830022323
 C   -2.5242638421   -2.7769054370   -0.0742436081
 O   -3.1515131513   -2.4468074252   -1.3076378259
 C   -2.3975676280   -4.3062469010    0.0459655314
 C   -3.7557010098   -4.9976057603    0.1219791839
 O   -1.6732470366   -4.7059451616   -1.1234579526
 H    1.0521425351    1.7273903114    0.1421385513
 H   -0.3216902413    1.7124481554   -0.9972666932
 H   -0.6178610702    1.8793605020    0.7521311537
 H   -1.9729549879   -0.1609165779    0.7107276196
 H   -1.6849934772   -0.2973618455   -1.0324636539
 H   -0.4718696466   -2.4580168120   -0.6709677423
 H   -0.7442899152   -2.3213633339    1.0645008449
 H   -3.2062960314   -2.4256505809    0.7107198801
 H   -2.6965907096   -2.9820279658   -1.9718275077
 H   -1.8101397608   -4.5433943111    0.9467725739
 H   -4.2729164136   -4.7340773721    1.0501289075
 H   -4.3803614940   -4.6940495370   -0.7219403793
 H   -3.6417146010   -6.0880747424    0.1074958558
 H   -1.7628664018   -5.6575782537   -1.2273161337