18

 C    0.0092962662    1.3706378780   -0.2772923756
 O    1.2626830755    1.5759096408    0.4014112305
 C    1.4440189309    0.1557676697    0.5894264714
 C    0.0317522504   -0.1433193363    0.0409269555
 C   -0.9903442742   -0.5928363331    1.0679155869
 C   -2.4346934363   -0.7728706476    0.5221164171
 N   -2.7146851548   -2.2154453058    0.6366125151
 C   -1.6925973344   -2.7185517546    1.1886357565
 O   -0.6429675711   -1.9320473234    1.5280509317
 H   -0.8049687661    1.9528682180    0.1732120638
 H    0.0717833369    1.6180165603   -1.3446226471
 H    2.2683919966   -0.2359047214   -0.0194466034
 H    1.6196103760   -0.1054658386    1.6392825765
 H   -0.0025241006   -0.8063301067   -0.8271323738
 H   -0.9516313276    0.0626212775    1.9442818256
 H   -3.1754589385   -0.2077775020    1.0965871699
 H   -2.5236628643   -0.4572962406   -0.5236858941
 H   -1.5623431745   -3.7669712442    1.4335983634