17

 N   -0.0321830117   -1.1798632760   -0.1044245307
 C   -0.0480177609   -0.0283214225   -0.0008419878
 C   -0.0531572589    1.4191107092    0.1179242038
 C   -0.0902572448    1.9688442560    1.5781862142
 N    1.3528454421    2.2616863215    1.4739281177
 C    1.3540128684    2.1008269344    0.0207590461
 C    2.5433237342    1.4812100565   -0.7303082535
 O    2.5193354063    2.5397018475   -1.7149940602
 C    1.5430464178    3.2794732085   -0.9660325737
 H   -0.8044916600    1.8345550270   -0.5562708341
 H   -0.7446360559    2.8452675382    1.6613455711
 H   -0.3496212681    1.2505155107    2.3598698561
 H    1.6667019279    3.1580100420    1.8292754523
 H    3.4677779154    1.4805507175   -0.1385844510
 H    2.3901154564    0.4916281807   -1.1739880753
 H    0.6794029863    3.5729462342   -1.5761607512
 H    1.9704359754    4.1780269846   -0.4950405637