18

 O    0.3354266931    1.2517612627   -0.5387195572
 C    0.0657677075   -0.0284987392   -0.0156245004
 C    0.0685763480   -0.2150177405    1.5285047194
 C   -1.3499140075   -0.8545876964    1.4540671014
 O   -2.3953658508   -0.1207594466    2.0666872724
 C   -2.7224849681    0.9694683752    1.2151721944
 C   -2.5233163777    0.4590621987   -0.2246520303
 C   -1.4006608534   -0.5769146391   -0.0813887771
 H   -0.1066983689    1.9051516314    0.0132770392
 H    0.7662431344   -0.6975151863   -0.5218101488
 H    0.8602636550   -0.8528523654    1.9283367169
 H    0.0768504329    0.7274047253    2.0859241492
 H   -1.4213128009   -1.8862917946    1.8021956978
 H   -3.7480200914    1.2737026717    1.4400429880
 H   -2.0687866084    1.8351287584    1.4207132910
 H   -3.4353732186   -0.0271290473   -0.5808121429
 H   -2.2687810869    1.2590000343   -0.9251199018
 H   -1.5350735384   -1.4322647522   -0.7449392413