13

 N    0.0832015436   -1.1684563752   -0.0615360344
 C    0.0320058697   -0.0151032353   -0.0394135655
 C   -0.0164204396    1.4432615783    0.0124413364
 C   -0.2533881232    2.0976089287    1.4486745162
 C    1.1216967944    2.7580561024    1.3231099272
 O    2.0776578949    1.7035176529    1.1459212772
 C    1.3813387178    2.1602307931    0.0079580154
 C   -0.9182693321    1.9898201691   -0.9967687683
 N   -1.6062156598    2.4688997055   -1.7913878286
 H   -1.0931170663    2.7923462139    1.4301606154
 H   -0.3607007016    1.3825275160    2.2646932857
 H    1.4730041252    3.6858730973    1.7548407271
 H    1.9312333571    2.4796736534   -0.8680907538