14

 O    0.0108549908    0.0464632113    0.0038374085
 C   -0.0388975316    1.2362380938    0.0104709288
 C   -1.3076280867    2.1387838111    0.0332084653
 C   -0.6663599357    3.4772360774    0.0306828424
 C    0.6886768437    3.3413725863    0.0105395143
 O    1.1043269393    2.0203251021   -0.0020237240
 C    1.3066333606    4.6084243445    0.0079589884
 C    0.2523458034    5.5079771749    0.0276387861
 N   -0.9411589359    4.8189247822    0.0413042093
 H   -1.9218526585    1.8947878557   -0.8415146295
 H   -1.8964988201    1.8859741923    0.9227402421
 H    2.3558693119    4.8519395442   -0.0059058123
 H    0.2626972583    6.5855447234    0.0328996981
 H   -1.8505906894    5.2451948408    0.0564623425