18

 C   -0.0067936224    1.4478881720    0.0130918315
 N   -0.0085985545   -0.0110123423   -0.0334954427
 C   -0.0750229795   -0.6801818037   -1.2201237961
 C   -0.0771821391   -2.0388078833   -1.2672226378
 C   -0.0081687373   -2.7575302450   -0.0440585507
 C    0.0592359899   -2.1187358612    1.1602115551
 C    0.1336029930   -2.8269417275    2.4808784358
 C    0.0617758037   -0.6638280970    1.2162389333
 O    0.1191147743    0.0030891232    2.2436439894
 H    0.9028664555    1.8057901746    0.5009896201
 H   -0.0648171308    1.8384942832   -1.0034557945
 H   -0.8556502315    1.8046910874    0.6010969990
 H   -0.1250516729   -0.0607259578   -2.1074735566
 H   -0.1305288006   -2.5480491087   -2.2198027776
 H   -0.0092534744   -3.8440526653   -0.0699237972
 H    0.1264811614   -3.9119808073    2.3498072265
 H    1.0398558136   -2.5402804442    3.0254241098
 H   -0.7060664783   -2.5406454470    3.1235180128