21

 C    0.0212870304    1.5921274707    0.0959606132
 C   -0.1121408060    0.0772796628   -0.0903500264
 C    0.6834439454   -0.5346121975   -1.2679513134
 C    0.2211804305    0.0488660367   -2.6253396469
 C    2.2062054380   -0.3158447681   -1.0947163006
 C    0.4165402665   -2.0413359263   -1.2807007254
 O   -0.2981605554   -2.6167610412   -0.4907176982
 C    1.0656338370   -2.9617629512   -2.3416364681
 O    1.8090048911   -2.6289251918   -3.2261406453
 H    1.0535988725    1.8973672210    0.2922814287
 H   -0.3334863547    2.1507457554   -0.7755061637
 H   -0.5793306609    1.9133511683    0.9524438745
 H    0.1961998716   -0.4291494168    0.8309443544
 H   -1.1691642284   -0.1793821473   -0.2212904573
 H    0.4344071445    1.1207141687   -2.6597812380
 H    0.7426852906   -0.4233174697   -3.4591424633
 H   -0.8570430951   -0.0826952753   -2.7659028267
 H    2.5559487980   -0.7107715678   -0.1348517544
 H    2.7702030775   -0.7949187649   -1.8962983343
 H    2.4318723979    0.7537474013   -1.1182353825
 H    0.7484235489   -4.0148896970   -2.1809300462