20

 C   -0.0304436753    1.5261640651   -0.0417438810
 C   -0.0103976279   -0.0111590095   -0.0199896007
 C   -1.4387835605   -0.5581293740   -0.0970246152
 C    0.9016269595   -0.5276846242   -1.1758290786
 C    2.2543561103   -0.6981986740   -0.5340135083
 C    2.1831176123   -0.6952342058    0.7935439948
 C    0.7444548308   -0.5452279804    1.2601659899
 C    0.5825226605    0.2768771987    2.4591513981
 N    0.4534011877    0.9137188718    3.4154543786
 H    0.9822583437    1.9376204451    0.0096169162
 H   -0.4930571924    1.8780014544   -0.9693973878
 H   -0.6015101315    1.9325550743    0.7973883359
 H   -1.9343913825   -0.2194560278   -1.0129069202
 H   -1.4495458405   -1.6534192096   -0.0964639907
 H   -2.0398951070   -0.2133380665    0.7512219690
 H    0.5401943530   -1.4886080616   -1.5688920299
 H    0.9123157300    0.1677906823   -2.0227513774
 H    3.1640999266   -0.8423313127   -1.1058579552
 H    3.0027536463   -0.8271315117    1.4886410404
 H    0.3470951968   -1.5386944638    1.5180999521