17

 C   -0.0842308676    1.5489806735   -0.0419059104
 C    0.0641217407    0.0660393599   -0.0014361269
 C    0.5948467011   -1.0079043929   -0.8864280856
 C    1.3819029396   -1.6887947791    0.2421770958
 C    0.4129612853   -0.9742104744    1.2022909358
 O    0.7351207467   -0.7157968031    2.5058161135
 C   -0.9799475427   -1.5116239548    0.8801980632
 O   -1.8648168778   -1.8224293881    1.6392368851
 C   -0.8985402460   -1.0461417129   -0.5263827848
 H    0.8564182530    2.0428135493    0.2244782645
 H   -0.3742577075    1.8899602840   -1.0409506483
 H   -0.8496913657    1.8878213118    0.6642931982
 H    0.8754341887   -0.9217896556   -1.9283726337
 H    1.4142701657   -2.7831101908    0.2865779715
 H    2.3921193027   -1.2771339830    0.3144459852
 H   -0.0687562802   -0.8689820167    3.0250175750
 H   -1.6854661164   -0.9337202771   -1.2587179880