19

 O    0.4959671004    0.5260604628   -1.1570835011
 C    0.2310410008    1.3629883758   -0.3439039652
 C   -1.0806558318    1.8807838929    0.2636802109
 C   -0.2834069785    3.0851821824    0.8576473420
 C    1.0610710684    2.3899139281    0.4386889962
 C   -0.4935995731    4.4515821011    0.1554673545
 C   -0.1429747518    5.4478081512    1.2350230250
 C   -0.1088402809    4.8772993485    2.4383768628
 C   -0.4271775794    3.4027320351    2.3639660728
 H   -1.8849782944    2.1011954298   -0.4441976249
 H   -1.4688595912    1.1946792599    1.0252356692
 H    1.5918705347    1.9214315729    1.2752587958
 H    1.7798276299    2.9743230125   -0.1421283969
 H    0.1142614828    4.5540193484   -0.7513771914
 H   -1.5394962632    4.5811802964   -0.1607451609
 H    0.0103522022    6.5018415967    1.0326959407
 H    0.0769046905    5.3914914581    3.3746123520
 H   -1.4523021076    3.2125999465    2.7163657251
 H    0.2296471422    2.7800513611    2.9830993634