19

 C   -0.4150776324    1.5292796442   -0.1610658097
 C   -0.0649648656    0.0575911941   -0.0199327892
 C    1.0802520943   -0.6340100175   -0.8022790334
 C    2.3524735937    0.1714522162   -0.4503076525
 C    2.1355235238    0.1847244629    1.1053989280
 C    2.1964554507    1.5224780046    1.7904774601
 O    1.3207256188    1.9829692135    2.4811182913
 C    0.7817649977   -0.5602531452    1.1268671502
 O    1.0848124556   -1.6731750676    0.2246839923
 H    0.4601967856    2.1818425815   -0.1838365999
 H   -0.9745068281    1.6928524798   -1.0885419987
 H   -1.0405449287    1.8595190896    0.6731471293
 H   -0.9583044413   -0.5634601249   -0.1236931319
 H    0.9735155662   -1.0083508704   -1.8207432983
 H    3.2585373117   -0.3611787846   -0.7425644882
 H    2.3719236980    1.1670547616   -0.9031281402
 H    2.9039985982   -0.4383000368    1.5812664836
 H    3.1525120075    2.0769356852    1.6406808244
 H    0.3662299844   -0.8549817663    2.0888141329