13

 O    0.0130805889   -0.0727565643   -0.2130137988
 C   -0.0272025691    1.1365001225   -0.0959406086
 C    1.1667076560    1.9534693757   -0.0101565087
 C    2.1619581025    2.6264083027    0.0594424856
 C   -1.2662219681    1.8752531597   -0.0305686410
 C   -2.3093337637    2.4814552799    0.0271127186
 C   -3.5661685678    3.1701687245    0.0794595955
 C   -3.9081720617    4.0447125620    1.2237858772
 O   -3.5417488532    4.6012793488   -0.0277740081
 H    3.0449224250    3.2155527983    0.1195501921
 H   -4.3835320708    2.6949346071   -0.4605729785
 H   -4.9555595188    4.1463751140    1.5035458952
 H   -3.1843333792    4.1690835690    2.0263401095