16

 O    0.1311271357    1.5540007686    0.0375546149
 C    0.0218838896    0.1557828890    0.0680369056
 C    0.6400896775   -0.4315066071   -1.1961871901
 O    1.1183474910    0.2698658654   -2.0544456440
 C    0.7118899073   -0.4454183606    1.2649317222
 C    1.7069361889    0.1664011331    1.9948378055
 N    2.1008835025   -0.7070922971    2.9738504721
 C    1.3802485494   -1.8701008643    2.8836574172
 C    0.5077893658   -1.7399911271    1.8290028102
 H    0.5316907398    1.7589751092   -0.8229933731
 H   -1.0397672007   -0.1540795503    0.0699378784
 H    0.6397919531   -1.5368691312   -1.2695927658
 H    2.1302968547    1.1519667184    1.9039854424
 H    2.7944028790   -0.5104653112    3.6738824600
 H    1.5419286541   -2.6816793411    3.5744432413
 H   -0.2062838278   -2.4821868739    1.5046677932