12

 C    0.0866157245   -1.2284968846   -0.0049640897
 C    0.0396577129   -0.0261386004    0.0022101887
 C    0.0035567598    1.3837644728    0.0103978560
 C   -1.1186769106    2.1860064936    0.0305633279
 O   -0.7602417428    3.4998480378    0.0326674565
 C    0.5924535226    3.5399361506    0.0138532147
 C    1.1184182627    2.2884321687   -0.0003717149
 C   -2.4919953927    1.8721604595    0.0481837780
 N   -3.6175102740    1.5974956426    0.0625302216
 H    0.1140940335   -2.2903439827   -0.0110794635
 H    1.0279068196    4.5255737027    0.0130931990
 H    2.1610417845    2.0167319194   -0.0165301043