19

 O   -0.0865589106    1.4461331749   -0.0526287946
 C   -0.0353523300    0.0303160848   -0.0277773487
 C   -1.4145511789   -0.5046346798    0.1535315377
 C   -2.5526405552    0.1664306976    0.2979346330
 C   -3.3486310962    1.3380840867   -0.2105351380
 O   -4.3625269845    0.3887084021   -0.6777331683
 C   -3.7700195170   -0.6806579844    0.1411413721
 C   -3.2302484574   -1.9825878384   -0.4724130823
 C   -1.7480709151   -1.9960727229    0.0356706224
 H    0.8118702161    1.7788245242   -0.1318884274
 H    0.3898711732   -0.3747982197   -0.9641773697
 H    0.6164279432   -0.3366254574    0.7856758504
 H   -3.7660887081    2.0113968850    0.5494576629
 H   -2.9028016836    1.9235851955   -1.0192706474
 H   -4.4016224727   -0.8480073368    1.0248075142
 H   -3.7901370029   -2.8811766420   -0.1980806272
 H   -3.2410553417   -1.8867164324   -1.5626757092
 H   -1.0756581118   -2.5053739803   -0.6644351477
 H   -1.6569599069   -2.5278584169    0.9926034976