15

 C    0.0679404315   -1.2240045617   -0.0420191852
 C    0.0222063204   -0.0239107110   -0.0212337335
 C   -0.0212116237    1.4306028911    0.0188594516
 C   -0.2515506705    2.1020176738    1.4528426892
 C    1.1158934359    2.7730707264    1.3116450994
 O    2.0861333749    1.7268784786    1.1567319143
 C    1.3725447686    2.1506381660    0.0088485471
 C   -0.9119050838    1.9849510221   -0.9926827541
 C   -1.6193528223    2.4782659773   -1.8293698220
 H    0.1096759405   -2.2848350813   -0.0655702212
 H   -1.0959118356    2.7912947994    1.4330286389
 H   -0.3438830200    1.3988986965    2.2816198268
 H    1.4605813624    3.7137115458    1.7226493307
 H    1.9248954044    2.4674400286   -0.8674576543
 H   -2.2538883726    2.8958669285   -2.5716022177