13

 O   -0.2956186417    0.4100082432   -0.7383286566
 C    0.0809693023    1.0953548964    0.1731030555
 C    1.3313474806    1.9408746548    0.0869397302
 C    2.3355303560    1.5662817832   -0.9926055605
 C    1.5320532979    2.8106343221   -1.1917806871
 C    0.4935751667    2.8916418738   -2.1820808686
 N   -0.3210917390    3.0073384640   -2.9935212772
 C    1.7955035338    2.5108531983    1.3221580368
 N    2.1498434584    2.9553670296    2.3291436663
 H   -0.4572032684    1.1591402725    1.1378697651
 H    3.3865224892    1.6773400144   -0.7585444545
 H    2.0490669573    0.6967637725   -1.5725683125
 H    2.0311571470    3.7545655752   -0.9996130969