21

 C   -0.3395050647    1.4223800900   -0.2768069699
 C    0.0207121255   -0.0305603450   -0.0342614466
 O    0.5874960860   -0.5487854102   -1.2533962749
 C    0.9685925127   -1.8417701436   -1.2192668127
 O    0.8517216820   -2.5412317127   -0.2388984175
 C    1.5431528136   -2.2896917235   -2.5252320756
 C    1.6199230442   -1.2876877388   -3.6587895350
 C    2.6366913541   -3.3417453155   -2.3902076903
 C    1.2758718836   -3.7545379189   -2.8472832793
 H    0.5461855767    2.0055906540   -0.5444693798
 H   -1.0689013688    1.5146780987   -1.0865521825
 H   -0.7747790545    1.8534184113    0.6297024941
 H    0.7519831957   -0.1440603742    0.7722037720
 H   -0.8536908741   -0.6321435616    0.2331947435
 H    2.2364513055   -0.4252503515   -3.3890279564
 H    2.0593735261   -1.7542966441   -4.5455297450
 H    0.6283256939   -0.9131618691   -3.9292301656
 H    3.4414621291   -3.2976537252   -3.1157530184
 H    2.9285778216   -3.6122172597   -1.3827584012
 H    0.6577086130   -4.3010735914   -2.1455144198
 H    1.1270589587   -3.9996817190   -3.8931206091