20

 C   -0.0015150140    1.4657424374   -0.0246706993
 C    0.0270900845   -0.0380477409   -0.0572964089
 C    0.5642519743   -0.9623905477   -1.1698654728
 C    0.0589598010   -1.9412194712   -0.0894326338
 C    0.0806776983   -3.4453692638   -0.1076031335
 C    0.5404827039   -1.0007272076    1.0772157573
 C   -0.8345100595   -1.0354763053    1.7727033024
 C   -1.1631626291   -1.0155836836    0.2670107965
 H    1.0101986962    1.8803939189   -0.0995515764
 H   -0.5867966883    1.8665059296   -0.8600994285
 H   -0.4472212379    1.8380485549    0.9044138413
 H    0.0207995132   -0.9553866275   -2.1225403864
 H    1.6460184401   -0.9412552785   -1.3496267482
 H    1.1055230696   -3.8231608636   -0.1974490491
 H   -0.3503547369   -3.8635059752    0.8088228651
 H   -0.4926537320   -3.8370992276   -0.9555101252
 H    1.5399174963   -0.9914351465    1.5188808241
 H   -1.0888105329   -1.9463856159    2.3241200457
 H   -1.1188294416   -0.1526974865    2.3543834141
 H   -2.1365138551   -1.0235158395   -0.2295266845