15

 O    0.0454021105   -0.0239146094   -0.3856932745
 C   -0.0032405613    1.1313646177   -0.0715152424
 N   -1.1201164639    1.9201349595    0.0945384771
 C   -0.8252312530    3.3130778756    0.3212134305
 C   -1.0239832470    3.8192221225    1.7776042743
 C    0.4485948510    3.4218031761    2.1025391188
 C    0.7059170574    3.2007075964    0.5880505098
 O    1.1088057929    1.8933548773    0.1983294484
 H   -2.0070505187    1.5722190184   -0.2268578329
 H   -1.1845730019    3.9592536173   -0.4859946208
 H   -1.1911841921    4.8988335933    1.8125722547
 H   -1.8078306234    3.3202665175    2.3500689802
 H    1.0640954856    4.1804755341    2.5891134292
 H    0.5381029342    2.4864849230    2.6583284533
 H    1.3579517997    3.9279364006    0.1039349442