13

 C    0.0208297188    1.4341224559   -0.0165776839
 N   -0.1072655663   -0.0029513227   -0.1181297492
 C   -1.2586294220   -0.6628405483    0.0948864575
 O   -2.3383525496   -0.1748211603    0.3964819654
 C   -1.0760224880   -2.1864693487   -0.0886943763
 N   -2.2282787830   -2.8471547270    0.1245338193
 O   -0.0011144458   -2.6778154137   -0.3894833838
 H    0.7478440883    1.7130940507    0.7537750672
 H    0.3372200761    1.8714220739   -0.9697174496
 H   -0.9570008041    1.8359911887    0.2533983692
 H    0.6794687615   -0.5908188327   -0.3595349648
 H   -3.0424525375   -2.3041630089    0.3678509693
 H   -2.2665869883   -3.8482914869    0.0413042099