18

 C   -0.0997142467    1.5040083101   -0.0159200163
 N    0.0918618038    0.0671874762    0.0395433515
 C    0.7304320421   -0.5482724989   -1.1498611311
 C    1.3840439962   -1.8931462150   -0.6739872125
 C    1.5733524150   -1.5444277401    0.7665628982
 C    0.8149606700   -0.4679097453    1.1142728714
 N    0.8249932845   -0.2203124513    2.4545346662
 C    1.5934480942   -1.1863850827    2.9366486941
 N    2.0497211566   -2.0378529235    1.9643760231
 H    0.8360514591    2.0543223713   -0.2230933759
 H   -0.8242953643    1.7531713924   -0.7976612739
 H   -0.4940574799    1.8462404001    0.9435073034
 H    0.0002205522   -0.6943931251   -1.9506277012
 H    1.5252952127    0.1166491815   -1.5282579192
 H    0.6951667547   -2.7388187598   -0.8139084010
 H    2.2916698495   -2.1129246950   -1.2453638428
 H    1.8704346805   -1.3067260483    3.9731791332
 H    2.6752198999   -2.8119589268    2.1079065627