17

 O   -0.7791709079    0.7839192751   -0.5360462135
 C    0.1232407701    0.8933156242    0.2565256329
 C    1.2384474755    1.9008781790    0.2020926309
 C    1.3084534108    3.0574678012   -0.8289288588
 C   -0.0168166536    3.8125109716   -0.5860720198
 C    0.3672059483    4.2201391203    0.8478681192
 O    1.5210462594    5.0820795541    0.5918273764
 C    2.1802952296    3.8611591623    0.2610109032
 C    1.3384912419    3.0363402663    1.2556924160
 H    0.1931184205    0.2049253392    1.1327118527
 H    2.1822268712    1.3387628580    0.2472733983
 H    1.6431602999    2.8885253856   -1.8494005518
 H   -0.1318304078    4.7034931658   -1.2059400986
 H   -0.8922208209    3.1722242933   -0.6802277883
 H   -0.3669909211    4.6574304703    1.5218664854
 H    3.2661269578    3.9005433171    0.1923474679
 H    1.5904744064    2.8953887066    2.3045737977