16

 N   -0.1055227514    1.3127655571   -0.0256776308
 C   -0.0446717535    0.0451393844    0.0119082473
 N    1.1113351843   -0.7433024809    0.0348865074
 C    1.0693824796   -2.1332831775    0.0637057172
 O    2.0632757657   -2.8188467081    0.0702883856
 C   -0.3668484725   -2.6468703325    0.0603039951
 C   -1.1644810942   -1.9261984194   -1.0589413811
 C   -1.2916605857   -0.8099799707    0.0145423205
 N   -1.0988163171   -1.8398268157    1.1072729486
 H    0.8237974897    1.7395327666   -0.0333358475
 H    2.0258581310   -0.3119966227    0.0567583301
 H   -0.3763364088   -3.7311438319    0.1596728449
 H   -0.6770074870   -1.7037995422   -2.0123146823
 H   -2.1255768681   -2.4150416140   -1.2350542333
 H   -2.1770078861   -0.1799734100    0.0697521338
 H   -2.0008283759   -2.2902779024    1.2580794046