21

 C   -0.1356100998    1.6076013962    0.0385878395
 C    0.0806477631    0.0981366082   -0.0005506549
 C    0.7870233850   -0.4974653219   -1.2197730562
 C    2.1863745571    0.0770983964   -1.6012407533
 C    2.7879569332   -1.3497772839   -1.4858466894
 C    1.4966137079   -1.8307267217   -0.7700937431
 C    1.5295760020   -1.7819827396    0.7679004540
 C    0.9037318501   -0.4418096610    1.1790601443
 O    1.0375596201    0.0991671374    2.2467738727
 H    0.7976032833    2.1460755535   -0.1523191811
 H   -0.8677519816    1.9235401139   -0.7103137063
 H   -0.4916357752    1.9090517987    1.0272210341
 H   -0.8972659477   -0.4038359735    0.0935597565
 H    0.1290945431   -0.6057882741   -2.0841620223
 H    2.2657952490    0.5707889811   -2.5720675404
 H    2.5804960131    0.7621648801   -0.8440299022
 H    2.9151155772   -1.8270787188   -2.4610634100
 H    3.7246991243   -1.4519926608   -0.9301187545
 H    1.0748238060   -2.7672317461   -1.1392912508
 H    0.9208919586   -2.5786903514    1.2126621520
 H    2.5292864413   -1.8766653727    1.2016065013