17

 O    0.1400546838    1.3878522993   -0.1601515705
 C    0.0436177612   -0.0047278253    0.0058033167
 C    0.6388581762   -0.5772467201    1.3397048765
 C   -0.5404011316   -1.3864448714    1.9016190638
 C   -1.1989237450   -1.9655090606    0.6401545313
 C   -1.4179117341   -0.5677346472    0.0346181051
 C   -2.0624380615    0.1449822944    1.2179957260
 O   -2.8141901820    1.0779949136    1.2416978733
 O   -1.5340483824   -0.4159492720    2.3466154485
 H   -0.5042274123    1.8259959230    0.4095065542
 H    0.5638238420   -0.4324696661   -0.8557193892
 H    1.5107822104   -1.2114831210    1.1594694103
 H    0.9333242640    0.2291459556    2.0146477814
 H   -0.3343884408   -2.0556676593    2.7346106445
 H   -0.5275222798   -2.5985392881    0.0544945913
 H   -2.1247752943   -2.5055842060    0.8508923139
 H   -1.9699480137   -0.4576619189   -0.8951942273