20

 C    0.0545411434    1.5294018443    0.1318908336
 C   -0.0525926880    0.0084402423   -0.0005086466
 C    0.7901221653   -0.5482601653   -1.1528319111
 C    0.6269647989   -2.0725834261   -1.3107497416
 O   -0.7186831810   -2.4137989022   -1.5109870422
 C    1.4703883823   -2.6190180468   -2.4658709647
 C    2.9682027721   -2.4211509982   -2.4354006071
 O    0.9123398753   -3.1958135914   -3.3766440579
 H    1.0887721314    1.8442446905    0.3126142587
 H   -0.2882897700    2.0312666099   -0.7798363324
 H   -0.5548936647    1.8985412806    0.9625413032
 H    0.2630111040   -0.4680612739    0.9373900582
 H   -1.0947314683   -0.2847795831   -0.1601267681
 H    0.4912141649   -0.0691417914   -2.0946171020
 H    1.8480974241   -0.3073115795   -0.9879230621
 H    1.0007944081   -2.5543712520   -0.3883937424
 H   -0.7336745389   -2.8819810289   -2.3625211012
 H    3.2071356647   -1.3918132656   -2.7266286554
 H    3.3726163503   -2.5746232178   -1.4304991174
 H    3.4426736862   -3.1024523354   -3.1428321915