20

 C   -0.0246231498    1.4653883644   -0.1275975304
 C    0.0027049993    0.0142205446   -0.0076556422
 C    0.0378225715   -1.1855297300    0.0925227579
 C    0.0390877383   -2.6412754624    0.2045384073
 C   -1.3584705673   -3.2554739550    0.0716852535
 C   -2.0871419388   -3.1856198555   -1.2987057109
 C   -2.5998553272   -4.6309273684   -1.0534642277
 C   -1.4846662027   -4.8035887790    0.0133351729
 H    0.9730490446    1.8961670556    0.0138378911
 H   -0.3812229419    1.7784289586   -1.1153705700
 H   -0.6868204980    1.9166434839    0.6198722241
 H    0.6918976563   -3.0705228196   -0.5686807124
 H    0.4765193551   -2.9396170329    1.1676260308
 H   -2.0046697807   -2.8521003183    0.8584459377
 H   -2.8247836071   -2.3935982200   -1.4440077074
 H   -1.3698800733   -3.1461232163   -2.1254039622
 H   -3.5958652802   -4.6366097458   -0.6013653147
 H   -2.6017881766   -5.3204227223   -1.9008213547
 H   -0.5847530595   -5.2578475391   -0.4156504951
 H   -1.7316604620   -5.3319205924    0.9376718425