17

 C   -0.3398410746    1.5491451463    0.6101813923
 N    0.1352639296    0.1891173720    0.7613716093
 C   -0.2334694689   -0.6562141764   -0.1035344604
 N    0.1852717429   -1.9782962620   -0.0187843810
 C   -0.1754721590   -2.9457492352   -0.9204972558
 O   -0.8924698191   -2.7459584090   -1.8775687051
 C    0.3935745340   -4.3530580921   -0.6523584765
 C    1.2442932742   -4.5035642101    0.5175383933
 C    1.9437824608   -4.5975748650    1.4910909141
 H   -0.9882611682    1.7003748652   -0.2669148756
 H   -0.8952451863    1.8443294202    1.5078777300
 H    0.5164031129    2.2288303789    0.5305831962
 H   -0.8813158176   -0.4658777337   -0.9642266153
 H    0.7883606613   -2.2245138072    0.7553092376
 H   -0.4712352462   -5.0237868697   -0.5922583991
 H    0.9311800136   -4.6416390095   -1.5629035262
 H    2.5638724106   -4.6966125026    2.3479966022