23

 C   -0.0451881154    1.5606864255   -0.0328219058
 C    0.0468149273    0.0332962564   -0.0153248769
 C    0.6606185052   -0.5292239911   -1.3076805544
 C    0.7010131794   -2.0645369165   -1.3070682949
 C    1.4324635542   -2.6084910789   -0.0720959082
 C    0.8307691864   -2.0504938879    1.2234284578
 C    0.8110450578   -0.5002265302    1.2319372793
 C    2.1670062730    0.0418791381    1.3287972019
 C    3.2875346817    0.4725477277    1.4114958758
 H    0.9491143340    2.0121251116   -0.1064295335
 H   -0.6383930530    1.9044924554   -0.8865655044
 H   -0.5177406187    1.9420857178    0.8791300600
 H   -0.9727756695   -0.3697106162    0.0736667823
 H    0.0891679307   -0.1660478993   -2.1700737438
 H    1.6791547764   -0.1338333733   -1.4174794651
 H   -0.3274209859   -2.4525244882   -1.3191291923
 H    1.1799141141   -2.4294019722   -2.2227214480
 H    1.3944760254   -3.7034107460   -0.0576551113
 H    2.4924665177   -2.3300927354   -0.1230311178
 H   -0.2047463382   -2.3996435772    1.3290331448
 H    1.3828612262   -2.4158486009    2.0950729580
 H    0.2615450344   -0.1704508309    2.1242751706
 H    4.2733695469    0.8585849319    1.4926510460