21

 C    0.8817722337    1.3025333727   -0.0596582327
 O    0.9858393134   -0.0737430367   -0.3340858369
 C   -0.1299934601   -0.5808636917   -1.0422812041
 C    0.0688296730   -2.0752478450   -1.1925433220
 C   -0.5936415801   -2.9237795743   -2.3095613768
 C    0.3464116223   -2.3146969120   -3.3726534301
 C    1.1775737111   -2.6790380065   -2.1104431524
 C    2.6582188851   -2.7060317307   -1.9040875288
 O    0.4226723469   -3.9680906619   -2.0600603954
 H    0.8180513157    1.9013383810   -0.9825186095
 H   -0.0027921624    1.5304761303    0.5561842038
 H    1.7794625813    1.5963369252    0.4898378547
 H   -1.0607236773   -0.3823467425   -0.4827214205
 H   -0.2278447392   -0.0685949725   -2.0121195693
 H    0.0384253553   -2.5761097737   -0.2216581720
 H   -1.6296883610   -3.2495956082   -2.4054394043
 H    0.5306039539   -2.9586607387   -4.2336384036
 H    0.2347527062   -1.2652377787   -3.6523309904
 H    3.0454700974   -1.6833850820   -1.8847178257
 H    2.8972973647   -3.1795452875   -0.9472494477
 H    3.1548097901   -3.2622042366   -2.7049131660