14

 N   -0.0188055425   -1.0543595443   -0.5003174230
 C   -0.0053381688    0.0383114206   -0.1257788359
 C    0.0352183165    1.4223102466    0.3478550910
 C    1.4161662667    2.0349026017    0.1735390933
 C    1.8250122570    2.6413415307   -1.1319471705
 C    1.5723519127    3.5471641230    0.0662846444
 C    0.4095369815    4.3894727265    0.0824189758
 N   -0.5380892316    5.0534293263    0.0983537130
 H   -0.7162542525    2.0058731525   -0.1947957663
 H   -0.2603492905    1.4414250757    1.4030902309
 H    2.1955999200    1.5432668506    0.7462880324
 H    2.8515026422    2.5357093279   -1.4612173945
 H    1.0917325189    2.6706766936   -1.9297999102
 H    2.4391321104    3.9805302589    0.5529064397