22

 C   -0.4092094680    1.4766988602    0.2126128769
 C    0.2499988594    0.1319622299   -0.1111394825
 C    0.9148658893   -0.5004696311    1.1093358912
 N   -0.0186283323   -1.1005947544    2.1051268496
 C    0.9016924541   -1.9905553625    1.3792249630
 C    0.2375557628   -2.9491031206    0.4073787466
 C    2.0556483214   -2.6177248479    2.1382762696
 C    2.0282503329    0.2683941803    1.6146590391
 C    2.9384312369    0.9519063013    2.0073636618
 H    0.3262526354    2.2004457999    0.5759534175
 H   -0.8895465860    1.8972804225   -0.6758934028
 H   -1.1724465507    1.3489798928    0.9861756496
 H   -0.5031862405   -0.5545130292   -0.5027023498
 H    1.0071398797    0.2598972134   -0.8938758963
 H    0.3290589885   -0.9238863874    3.0454020466
 H   -0.6932000377   -2.5471887817    0.0073152704
 H    0.9072367340   -3.1915053618   -0.4248649490
 H   -0.0044977190   -3.8850096360    0.9235902633
 H    1.6880905077   -3.4440330898    2.7577179678
 H    2.7986524112   -3.0297715765    1.4466116552
 H    2.5618867962   -1.8959081032    2.7821458128
 H    3.7449524149    1.5459501618    2.3598113695