19

 C   -0.3316363772    1.5154372001   -0.0308860717
 C    0.0030262908    0.0311421208   -0.0124410496
 C    1.1502138925   -0.4229737014   -1.0555832180
 C    2.1577052511   -0.1974386678    0.1246977047
 C    2.9030895563   -0.8640914596    1.3533538929
 O    1.9108024692   -0.1212968915    2.2046878727
 C    1.0188929603   -0.5037097623    1.0464607921
 C    1.0425172622   -2.0382222715    1.1894445180
 C    2.3366798210   -2.2818668192    1.3915545703
 H    0.5609037525    2.1420982104    0.0510280117
 H   -0.8432508527    1.7781981175   -0.9626483128
 H   -0.9961527927    1.7730145307    0.7997451261
 H   -0.9186503233   -0.5584278478   -0.0689069392
 H    1.0191579296   -1.4646958963   -1.3530857934
 H    1.2822348865    0.2080031098   -1.9380051824
 H    2.3915008055    0.8684832889    0.1664298767
 H    3.9376743115   -0.6601294196    1.6302634884
 H    0.1880044002   -2.6979417751    1.1362125529
 H    2.8789174467   -3.1991065861    1.5668680805