23

 C   -0.2165462838    1.5202559839   -0.1092071158
 C    0.0271963909    0.0294427618    0.0256691860
 C    1.3629427487   -0.6325247058   -0.2204611106
 C    2.6030832602    0.2322483930   -0.0743371955
 O    2.4840766695    0.8986838057    1.1803299867
 C    1.6943684258    0.0922157872    2.0796578943
 C    2.6084476688   -0.8948317836    2.8254371508
 C    1.0219534978    1.0430735618    3.0698311089
 C    0.7447125599   -0.6735187101    1.1602583328
 H    0.6385694474    2.1092461282    0.2242076233
 H   -0.4188088158    1.7738540639   -1.1562319828
 H   -1.0914566652    1.8284193305    0.4741471877
 H   -0.8061579185   -0.5629395361   -0.3478939250
 H    1.4252366106   -1.5103347065   -0.8540189289
 H    3.5066282081   -0.3963975503   -0.1100886596
 H    2.7043767590    1.0078008375   -0.8423564864
 H    3.3756514821   -0.3458735364    3.3791699603
 H    2.0369927825   -1.5008372872    3.5363844798
 H    3.1071709838   -1.5751980294    2.1287611719
 H    0.3705357881    1.7535886642    2.5591145765
 H    0.4207137661    0.4782638994    3.7890830040
 H    1.7779494895    1.6061411403    3.6256591773
 H    0.3104016947   -1.5865428719    1.5534829843