18

 O   -0.1697037605    1.3959036924    0.1392611218
 C   -0.0492752372   -0.0118242135    0.0050457414
 C   -1.4276798670   -0.5980724768    0.0206798339
 C   -2.6699781576   -0.2433243103   -0.8571728058
 C   -3.1374782483   -1.2833770307    0.2059139547
 C   -1.8437969335   -2.0930873723   -0.0918127333
 N   -2.3331072986   -0.5454212810    1.2431672488
 C   -2.7729507689    0.5853540472    1.8943696450
 O   -3.9227042662    0.7804195035    2.2254788888
 H    0.7131731882    1.7738626329    0.1920892095
 H    0.4385417899   -0.2910794732   -0.9424815382
 H    0.5356956393   -0.4522160513    0.8269100172
 H   -3.0639310117    0.7670460949   -0.7479347080
 H   -2.6475771038   -0.5724360434   -1.8996995307
 H   -4.1404433618   -1.6450002124    0.4164612384
 H   -1.7675382608   -2.5438555407   -1.0823747070
 H   -1.4932798821   -2.7481754221    0.7065263763
 H   -1.9374695594    1.2581362069    2.1626357370