17

 O   -0.2655684153    0.3228849130   -0.7124170605
 C    0.0597389455    1.0870849832    0.1677553475
 C    1.2768223717    1.9151488733    0.1468277460
 C    1.7001201551    2.9826564986    1.1617995975
 C    2.1497656807    3.9119148249   -0.0135377179
 C    1.7283113622    2.8360547053   -1.0189881842
 C    2.4342329173    1.5357126776   -0.7799956331
 C    3.7823977696    1.4437311121   -0.2975091755
 C    4.9115692801    1.3685265512    0.1104023978
 H   -0.5798912972    1.2310899329    1.0681009861
 H    0.8492854004    3.3902948548    1.7131024125
 H    2.4754387140    2.6807856623    1.8701102590
 H    1.5443016293    4.8165045532   -0.0871998459
 H    3.2076746438    4.1844224041   -0.0393188853
 H    1.1869182654    2.9957636809   -1.9437740232
 H    2.1280913210    0.7536059057   -1.4700717899
 H    5.9112066666    1.2930185569    0.4606887290