19

 C   -0.1659060238    1.5803184783   -0.0348411289
 C    0.0011025418    0.0488326834   -0.0450071249
 C    0.6943549336   -0.4286347468   -1.2964243982
 C    1.8118000271   -1.1479151971   -1.2057876225
 C    2.3570721160   -1.4879280670    0.1484720417
 C    1.3354228422   -1.8783189405    1.2583150279
 O    2.2921933040   -1.4291284657    2.2870881310
 C    2.3094526883   -0.3843639761    1.2461630136
 C    0.7520339721   -0.4370033437    1.1966189086
 H    0.8084886366    2.0796542216   -0.0411386784
 H   -0.7218603753    1.9206899769   -0.9143071358
 H   -0.7109002386    1.9081845432    0.8563898868
 H   -1.0097023817   -0.3879062282   -0.0188890190
 H    0.2616104374   -0.1581052642   -2.2558669931
 H    2.3374912093   -1.5025936590   -2.0869365558
 H    3.2703828026   -2.0831687471    0.1573722792
 H    0.8259844012   -2.8300762230    1.4160521030
 H    2.9765463750    0.4665679860    1.3901108171
 H    0.2862523024   -0.1247615011    2.1346887978