21

 C    0.0576358700    1.2665853870   -0.3065882061
 O   -0.0634707685   -0.0188763708    0.2784049446
 C   -1.3275534929   -0.5767677354    0.1608572432
 C   -1.7994856376   -1.1577513373   -1.1505851207
 C   -1.4822832941   -2.0700379341    0.0232285125
 C   -0.3049994577   -3.0095240210   -0.0278843368
 C   -2.6796370516   -2.4119825970    0.8954724952
 O   -3.3740721339   -1.1849014317    1.1185575011
 C   -2.4219785373   -0.1292930395    1.1219604439
 H    1.1045236805    1.5625126634   -0.2083321031
 H   -0.2156617459    1.2517165526   -1.3705522070
 H   -0.5691716870    2.0112174115    0.2038777398
 H   -2.8336929509   -1.0136694925   -1.4484075773
 H   -1.0785905729   -1.1626164001   -1.9614042262
 H    0.5547632852   -2.5212542171   -0.4941567738
 H   -0.0042158621   -3.3180336582    0.9797961305
 H   -0.5377296695   -3.9145781323   -0.5999412834
 H   -3.3914914550   -3.1057576626    0.4352951552
 H   -2.3325288807   -2.8511489887    1.8459139382
 H   -1.9755186258    0.0258447904    2.1182289295
 H   -2.9521050721    0.7829736934    0.8288440108