19

 C   -0.0217447374    1.5231095697    0.0236208725
 C    0.0255311712    0.0125848301    0.0280848421
 C    0.9817347348   -0.7997089170   -0.9029408928
 C    0.7136941276   -1.9315882887    0.1279440965
 C    0.6669234828   -0.8033466959    1.1959256003
 C   -0.7826255658   -2.2206130894   -0.0969682244
 C   -1.3051334382   -0.7483340935   -0.1728403014
 H    0.9731848992    1.9560287510    0.1736533850
 H   -0.4114287179    1.9043491368   -0.9278393481
 H   -0.6736877982    1.9012985780    0.8201243786
 H    0.6768968763   -0.9614096218   -1.9426964906
 H    2.0093862636   -0.4285875335   -0.8660988040
 H    1.3811288758   -2.7885871669    0.2265686132
 H    1.6599799204   -0.4326370334    1.4634507044
 H    0.0705393740   -0.9684090440    2.0999415381
 H   -0.9642966987   -2.7810867225   -1.0189430320
 H   -1.2265194769   -2.7840639003    0.7292612829
 H   -2.0314491155   -0.5144534897    0.6122887608
 H   -1.7692333373   -0.5114677391   -1.1357364511