12

 O   -0.2470826904    0.0545677743    0.2764660009
 C   -0.0317244208    1.2086245758    0.0252711029
 C    1.3618832913    1.7533435793   -0.2889699921
 C    1.3373445339    2.8282261734   -1.3219400628
 N    1.9741646370    2.7293631831   -2.4596270952
 O    1.6678824490    3.9324441432   -3.1093173040
 C    0.8750623410    4.6092307319   -2.2812227530
 N    0.6247119353    4.0026799310   -1.1652134341
 H   -0.8364935515    1.9737275514    0.0285047259
 H    1.7457613288    2.1785524100    0.6490936116
 H    2.0148443114    0.9327726682   -0.5888907090
 H    0.5270943851    5.5771792283   -2.6110771611