19

 C    0.0488019469    1.5638854149    0.0688686444
 C    0.0083020046    0.0347410647    0.0327775527
 C    0.6568920725   -0.5302057976   -1.2366650910
 N    0.6719345906   -1.9788913884   -1.2737460220
 N    1.6434603694   -2.6912893632   -0.6185604533
 C    1.3140611101   -3.9345149860   -0.9056711095
 N    0.2000630373   -4.0910241389   -1.6750925283
 C   -0.1766803289   -2.8391160474   -1.8806610245
 N   -1.2382582800   -2.4334254947   -2.6744008150
 H    1.0795995898    1.9329847140    0.0369646433
 H   -0.4853487578    1.9998603097   -0.7829202980
 H   -0.4134373945    1.9478357272    0.9825180534
 H    0.5324225686   -0.3832226483    0.8987783308
 H   -1.0295055632   -0.3168456155    0.0976557102
 H    0.1336349868   -0.1826030186   -2.1343605975
 H    1.6956652814   -0.1955620994   -1.3102054725
 H    1.8962150562   -4.7697691304   -0.5447436715
 H   -1.7821816150   -3.2345527066   -2.9670429680
 H   -1.8329610246   -1.7299726956   -2.2566585137