18

 C   -0.0182277381    1.4723253505   -0.0347311751
 C    0.0033400052   -0.0377994494   -0.0211079076
 C   -0.4895884060   -0.7980663706   -1.2056590764
 C   -1.1850087670   -1.8627088125   -0.8091188382
 C   -1.2291991633   -1.9341887160    0.6971782076
 N   -0.4499004089   -0.7612299986    1.1721894591
 C    0.9978932275   -0.7609572379    0.8907890217
 C    1.8198536918   -1.9134386852    0.4536659405
 O    1.4274455901   -2.9994974353    0.0927276768
 H    0.6816650639    1.8640755920   -0.7805846643
 H   -1.0200363874    1.8356927324   -0.2870911420
 H    0.2555911344    1.8745981140    0.9433520659
 H   -0.2935468108   -0.4922860392   -2.2255339065
 H   -1.6400030230   -2.6068583605   -1.4513220545
 H   -2.2510108756   -1.8403946036    1.0871773894
 H   -0.8086923688   -2.8674753941    1.0790235744
 H    1.5477389753   -0.1092217067    1.5696164829
 H    2.9110917708   -1.6905584693    0.4969083764