19

 C    0.0786115394    1.5148736147    0.2286297850
 C   -0.0006876679    0.0210226105   -0.1185037328
 C   -1.4122928589   -0.4972134718   -0.0891305131
 C   -2.1083656552   -0.9674870467    1.1367683246
 C   -1.9127206285   -1.9771228897    0.0037281299
 C   -2.9281372758   -1.6836185812   -1.0474825799
 O   -3.7111906241   -2.3350991772   -1.6830466953
 C   -2.4656150919   -0.1993672783   -1.1630034131
 O   -3.3654540956    0.8419234100   -0.8627568386
 H    1.1093016138    1.8764948256    0.1668182613
 H   -0.5333774832    2.1098270412   -0.4563700612
 H   -0.2876598394    1.7010800430    1.2430645418
 H    0.4286822004   -0.1495522543   -1.1141692514
 H    0.6107036383   -0.5563489363    0.5858258324
 H   -1.4736563779   -1.1577623334    1.9970375318
 H   -3.1023646101   -0.6094904698    1.3815865541
 H   -1.3583117485   -2.8955255198    0.1536624052
 H   -1.9929866558   -0.0598606951   -2.1498234609
 H   -4.1244271093    0.7483859084   -1.4494304498