18

 O    0.0666255594    0.1223098504    0.3948774407
 C    0.0249929463    1.3010591823    0.1320951415
 C   -1.1960463984    2.1150759579   -0.1718124873
 C   -1.3500291025    3.3275631543    0.6934649523
 N   -0.7933416566    3.4591028915   -0.6431320218
 C    0.6947345274    3.5055454695   -0.6507998454
 C    1.2019366626    2.2313565731    0.0152936506
 C    2.2595467394    2.1698063648    1.1087727718
 C    2.5584733945    1.6210281101   -0.2473930426
 H   -2.0575661637    1.6350032819   -0.6218822934
 H   -2.3439053793    3.7446984343    0.8251666961
 H   -0.6906773112    3.4296011754    1.5530904129
 H    1.0104609129    3.5521666283   -1.6984419201
 H    1.0292346231    4.4240690089   -0.1580888202
 H    2.7147807053    3.1101169250    1.4023853966
 H    2.0870934696    1.4653814201    1.9155855264
 H    2.5737119172    0.5421959743   -0.3620881289
 H    3.2300990840    2.1734059277   -0.8962736195