16

 N   -0.1049551145    1.2552555368    0.3726164432
 C   -0.0216397068    0.0312469670    0.0302841856
 N    1.1643792161   -0.6764943156   -0.1750731135
 C    1.3398963842   -1.9248263760   -0.7573248183
 O    2.4341064006   -2.4411679568   -0.7850752278
 C    0.1198667906   -2.5431987608   -1.4248315181
 C   -1.2061490448   -2.0587608287   -0.8914183415
 N   -1.3238211671   -2.0473410774    0.5674137215
 C   -1.2643667633   -0.7603613921   -0.1688608164
 H    0.8166870456    1.6885810349    0.4620693025
 H    2.0265923396   -0.2598364793    0.1525456314
 H    0.1970887502   -2.3087969993   -2.4945010633
 H    0.2188094971   -3.6277074786   -1.3290030593
 H   -2.0786626294   -2.3361328981   -1.4781112719
 H   -2.2822490337   -2.2231248492    0.8564938640
 H   -2.1566652343   -0.1483542069   -0.2267725582