20

 C    0.0815480199    1.5495936636    0.0305607835
 C    0.0006169012    0.0217847534    0.0300558964
 C   -1.4344341559   -0.5273785709   -0.0009733653
 C   -1.4419136596   -2.0503674049   -0.2149639513
 N   -2.1361600794   -0.0880659244    1.2137011910
 C   -3.5785818717   -0.2847421827    1.2007496533
 C   -4.1902600484    0.2715453989    2.4126206283
 N   -4.6723145814    0.6858000209    3.3769892153
 H    1.1199420561    1.8879735675    0.0962285750
 H   -0.3457692595    1.9660546389   -0.8886951116
 H   -0.4734691391    1.9658100381    0.8744603322
 H    0.5426435289   -0.3831502584   -0.8328619344
 H    0.5073663360   -0.3801313218    0.9192251626
 H   -1.9613798370   -0.0551130547   -0.8430163338
 H   -0.9026011577   -2.5565959917    0.5946722241
 H   -2.4574323751   -2.4570476959   -0.2491458651
 H   -0.9519837624   -2.3144138843   -1.1576965586
 H   -1.7340418098   -0.5394579505    2.0301753196
 H   -3.9950975545    0.2438203005    0.3340881343
 H   -3.9130053707   -1.3336148417    1.1149224345