17

 O    0.4222210193    1.3175769147   -0.1745141256
 C    0.1868231152   -0.0582502770   -0.0986066377
 C   -0.0633141011   -0.7030198982   -1.4963986750
 C   -0.6808683643   -1.9160003554   -0.7751825506
 C   -1.2304530152   -0.6660085418   -0.0328266872
 C   -1.5184687672   -0.0129139863   -1.4222495434
 N   -1.1971328688   -0.6002826490    1.4329126980
 C    0.2455835196   -0.5697502013    1.3831020048
 N    1.1685278526   -0.7186055801    2.2269781767
 H    0.4647906041    1.6773497792    0.7178939669
 H    0.5881218315   -0.7123543307   -2.3729591388
 H   -1.4056931197   -2.5004368470   -1.3445475625
 H    0.0089453809   -2.5532149047   -0.2157990546
 H   -1.5306796877    1.0734085722   -1.4638476443
 H   -2.2914667041   -0.4705604363   -2.0446637878
 H   -1.6849621216   -1.2673904088    2.0231781641
 H    0.8080230367   -0.9588320196    3.1536386770