18

 C   -0.6553119046    0.7092759832    0.1425170953
 O    0.6931173782    0.7061850522   -0.3366304039
 C    1.0276304142   -0.2835437935   -1.1826681408
 C    0.6766493129   -1.6188594241   -1.3271266369
 N   -0.2670518191   -2.3369918563   -0.5353201688
 C    1.4801664521   -2.0721122350   -2.4122210611
 C    1.5041006519   -3.4435785757   -3.0070753809
 N    2.2621246103   -1.1095052652   -2.8877318549
 N    1.9677662517   -0.0278278810   -2.1223994157
 H   -1.3573349275    0.8397207605   -0.6894017725
 H   -0.8924083697   -0.2213278960    0.6616136918
 H   -0.7268180115    1.5611990674    0.8203944071
 H    0.1962315133   -2.9325689466    0.1451584562
 H   -0.8372833425   -2.9457411096   -1.1134780232
 H    0.5407539918   -3.7087919645   -3.4599140308
 H    2.2693213023   -3.4943630981   -3.7844125254
 H    1.7251332539   -4.2071481806   -2.2520600990
 H    2.4403139723    0.8466470029   -2.2725438866