16

 O    0.2324086706    1.4213672654   -0.2503575057
 C   -0.1403132786    0.0989642499    0.0353045250
 C    0.0827324790   -0.3988868488    1.5015183948
 N   -1.3652473496   -0.5585796519    1.6163356432
 C   -1.6657059961   -0.0193144248    0.2815302099
 C   -2.0717667364   -1.0163196261    2.6658288628
 O   -1.5759856609   -1.4003618930    3.7152092684
 C   -3.5905440632   -1.0536669596    2.5003778439
 O   -4.1931344795   -0.7050395134    1.5183124361
 H    1.1811035837    1.4470428714   -0.4108684558
 H    0.2363282490   -0.6031591541   -0.7175204326
 H    0.6419361086   -1.3303500262    1.6335715487
 H    0.4888632013    0.3704239034    2.1671568415
 H   -2.1659363269    0.9528223301    0.2988101663
 H   -2.2192831421   -0.6998406743   -0.3680598835
 H   -4.0837140289   -1.4475738881    3.4125580170