15

 N    0.0612472045    1.2830414774    0.0137089210
 C   -0.0292792600    0.0210804592   -0.0656306091
 N   -1.2436089856   -0.6453685043   -0.0148181792
 C   -1.5095614483   -2.1026961762   -0.0494144670
 C   -3.0340491159   -1.7570291379   -0.0049189130
 C   -2.6001179612   -0.2799343010    0.0534878079
 O   -3.1518868953    0.7743997807    0.1307931487
 C   -1.0153701853   -2.8008901370   -1.2238468314
 C   -0.5958138932   -3.3821860330   -2.1881938612
 H    1.0375473135    1.5666871289   -0.0519820816
 H    0.8021653807   -0.6846897396   -0.1862059667
 H   -1.1614255955   -2.6024592283    0.8614215988
 H   -3.5836752541   -2.0230347341   -0.9081166259
 H   -3.5669462737   -2.1128737568    0.8777474949
 H   -0.2308993308   -3.8942146178   -3.0446445361