19

 C   -0.0235649315   -1.2077103225   -0.0824780358
 C   -0.0141102223   -0.0066201839   -0.0127390487
 C   -0.0021014654    1.4368198368    0.0581298641
 C   -0.2288002626    2.1707449608    1.4243159064
 C    0.6706358003    3.2911532020    0.8307036321
 C    1.3608904365    2.1956020914   -0.0200017817
 C   -0.1849237710    4.1687754900   -0.0894281310
 O   -1.2553917954    3.4263411903   -0.6608862291
 C   -0.9564235579    2.0786467847   -0.9818030130
 H   -0.0288682480   -2.2680559134   -0.1378740566
 H   -1.2571699577    2.4188473338    1.6938653719
 H    0.2613597588    1.6375080060    2.2406275651
 H    1.2845178335    3.8953821586    1.5013661618
 H    2.1446008963    1.6681128361    0.5277579894
 H    1.7238082285    2.4653275091   -1.0170445574
 H   -0.6595676181    4.9834481364    0.4681294953
 H    0.4460303114    4.6183358060   -0.8742751470
 H   -0.5048007211    1.9940513485   -1.9831995911
 H   -1.9153560142    1.5523205994   -0.9945533944