22

 C   -0.1850792160    1.6451532034    0.4545044138
 O    0.0533152439    0.2804303261    0.1796416648
 C    0.6841775089   -0.4444550648    1.2093536922
 C    2.1308357415   -0.0138939481    1.3993004293
 C   -0.1903249472   -0.8067700625    2.4736876550
 C   -1.1232631071   -1.6209561700    1.5312238370
 C    0.3464274995   -1.9690278757    1.1573259548
 N    0.7359329763   -2.0000011123    2.6248244638
 C    0.3081211927   -3.1250579706    3.4454161373
 H    0.7428853628    2.2270191976    0.5359060722
 H   -0.7675757941    2.0383439669   -0.3823460033
 H   -0.7630227357    1.7817764160    1.3804453053
 H    2.1939005846    1.0072758060    1.7888696480
 H    2.6342312127   -0.6786854902    2.0984294824
 H    2.6460958823   -0.0345151725    0.4335455056
 H   -0.4502775086   -0.1801543558    3.3301548094
 H   -1.7075326550   -2.4136524086    1.9948051152
 H   -1.7089828606   -1.0722311391    0.7965270436
 H    0.7214761968   -2.7094012390    0.4472989257
 H    0.9638071005   -3.9757828325    3.2309381702
 H    0.4512545068   -2.8569250231    4.4977057319
 H   -0.7316035351   -3.4648122309    3.3248181557