20

 C   -0.3021558249    1.4044870054   -0.0082225378
 C    0.4758843810    0.0957498700    0.1132033114
 N    0.8215322965   -0.4486844229   -1.1913687914
 C    0.8187110789   -1.8139629554   -1.4093878158
 O    0.3731407289   -2.6172787542   -0.6063750571
 N    1.3683660007   -2.1831587035   -2.6230802837
 C    1.2568421078   -3.5524082851   -3.1031725735
 C    2.5159047678   -3.9959202701   -3.8454522979
 H    0.2837947077    2.1737052875   -0.5248224403
 H   -1.2299315068    1.2547866267   -0.5679709691
 H   -0.5529370425    1.7926723136    0.9838410944
 H    1.3763393029    0.2502561641    0.7265219690
 H   -0.1185676038   -0.6718618112    0.6118524456
 H    1.4456247974    0.1064626717   -1.7566792804
 H    1.4497434134   -1.4669323011   -3.3285173237
 H    1.0825715213   -4.1681308446   -2.2189916787
 H    0.3768680878   -3.6712673941   -3.7530644254
 H    2.7058897548   -3.3688362906   -4.7244172106
 H    3.3924448793   -3.9373883808   -3.1937283709
 H    2.4096678618   -5.0278757853   -4.1941059740