18

 C   -0.2037500605    1.6400524229   -0.1460475207
 C    0.0418554891    0.1329768815    0.0078460205
 C   -1.2749342171   -0.5740522464    0.3142932776
 O   -1.3707686936   -1.6245375654    0.8956388126
 C    0.7274951668   -0.4782571428   -1.2332239605
 C    0.6423922987   -1.9470456683   -1.4943695796
 N   -0.0842791142   -1.0109706890   -2.3614971145
 C    1.9322006594    0.2110962539   -1.6310058428
 C    2.9504344267    0.7803941278   -1.9222336192
 H    0.7355081038    2.1673518875   -0.3212773932
 H   -0.8675638674    1.8464357473   -0.9928212864
 H   -0.6672590527    2.0515713873    0.7560972591
 H    0.7025865303   -0.0553289226    0.8621619881
 H   -2.1860989215   -0.0374027400   -0.0404183020
 H    1.4869357299   -2.4365030185   -1.9686722912
 H    0.0903873080   -2.5510285678   -0.7809253625
 H   -1.0723258451   -0.9992522332   -2.1147432149
 H    3.8475386794    1.2770643356   -2.1987062906