18

 O    0.4020506787   -0.2348511019   -0.4339759198
 C    0.1045245814    0.8939729572   -0.1506452364
 C    1.1150413626    2.0238447066    0.0548410875
 O    2.3994364050    1.5246481890    0.3406471181
 C    3.2581877458    1.6497264741   -0.8055356036
 C    2.3650655239    2.0837894607   -1.9754220247
 C    1.2523014655    2.8178882871   -1.2480011820
 C    0.1443475930    3.5733272728   -1.8744617623
 N    1.2801195973    4.2843564034   -1.2557547167
 H   -0.9597762045    1.2129801776   -0.0516349426
 H    0.7632635881    2.6569627505    0.8831802386
 H    4.0255677524    2.4045104109   -0.5903778809
 H    3.7510001407    0.6881103900   -0.9738975275
 H    2.8748099548    2.7313833260   -2.6898444338
 H    1.9651565861    1.2106872876   -2.5000030158
 H    0.0862932104    3.6520611601   -2.9564344661
 H   -0.8200382023    3.5943062421   -1.3721682094
 H    1.0083118711    4.6571633462   -0.3488560027