22

 C   -0.1943927034    1.4976508324   -0.0689449691
 C    0.0502322121    0.0051835982    0.0366772789
 C   -1.1577192028   -0.8548692699   -0.2771371663
 C    1.4177011286   -0.5265779164   -0.2484860004
 N    0.8984105293   -0.5232958109    1.1187173896
 C    1.5130178019    0.3409926272    2.0904653607
 C    0.7446966662    0.5849837908    3.3767547478
 C    1.9085497043   -0.3771022892    3.3608591669
 O    1.6793890277   -1.7459811975    3.4325557426
 H    0.7064786366    2.0815731241    0.1308750281
 H   -0.5413043552    1.7509964756   -1.0763966890
 H   -0.9689146829    1.8160274411    0.6374862197
 H   -1.4872394855   -0.7018426721   -1.3109572511
 H   -0.9251471457   -1.9135887345   -0.1395347570
 H   -1.9961933934   -0.6033017773    0.3821927996
 H    1.5511860248   -1.5032947751   -0.7071611552
 H    2.1983047932    0.1942815058   -0.4874805381
 H    2.1557170987    1.1399233625    1.7222339686
 H    0.8548713517    1.5496300597    3.8606536098
 H   -0.2430132846    0.1424327846    3.4477391743
 H    2.8286911673   -0.0865949348    3.8587361714
 H    1.2228109509   -1.9629662943    2.6031015282