21

 C    0.3673581630    1.0209912779   -4.7954538041
 O   -0.0276204213   -0.2295494041   -4.2650841019
 C   -0.3091056903   -0.1874885245   -2.8804989381
 C   -1.6674726502    0.4815268259   -2.6477153603
 O   -1.9899693497    1.0316781907   -1.6282897310
 C   -0.3851075082   -1.5939301017   -2.2999104523
 C   -0.6829472769   -2.7969392977   -3.1631813041
 C    0.6674575148   -2.6641273897   -2.4999670710
 C    1.9347953163   -2.4603257802   -3.3016424583
 H   -0.4090027128    1.7897326926   -4.6667470460
 H    1.2921541328    1.3837613929   -4.3233297796
 H    0.5433273405    0.8756343087   -5.8633571918
 H    0.4535166738    0.3976034260   -2.3414785733
 H   -2.3594559106    0.3770531249   -3.5156674909
 H   -0.8417880510   -1.5769366679   -1.3142844461
 H   -1.3860176482   -3.5382269113   -2.7994943007
 H   -0.7162938417   -2.6252612637   -4.2330253618
 H    0.8071630512   -3.2899104770   -1.6211069117
 H    1.7485444906   -1.8588884034   -4.1922929241
 H    2.7034257377   -1.9554451418   -2.7048808132
 H    2.3460882603   -3.4256219068   -3.6171120296