16

 C    0.0356639733    1.3226462333    0.2210222329
 O   -0.0744726013   -0.0395359823   -0.1906753816
 C   -1.3449396239   -0.5228299313   -0.1290589844
 C   -1.9760235087   -1.0675782062    1.1632561641
 N   -3.4482969787   -0.9694069474    1.0002929289
 C   -3.2026433351   -1.5439580614   -0.3751495062
 C   -1.7530825056   -2.0198083419    0.0330452197
 C   -2.4925174505   -0.3628916079   -1.0830807895
 O   -2.6696200689    0.2371399467   -2.1037643527
 H    1.0910647332    1.5871543294    0.1382542791
 H   -0.5574435855    1.9772191363   -0.4275707570
 H   -0.2932741226    1.4512619346    1.2604659271
 H   -1.4547414060   -0.9594174987    2.1065094980
 H   -3.8590989536   -1.7124443708    1.5669559848
 H   -3.9868409374   -2.1171280991   -0.8601565666
 H   -1.1424867088   -2.8905582834   -0.1606721167