16

 C    0.0088445121    1.4915557052    0.0645420935
 C   -0.0024267838    0.0029549134   -0.0176160633
 C    0.2752682174   -0.9943326929   -1.1909083383
 C   -0.6315637687   -2.0207847279   -0.5305609519
 C    0.8550123106   -2.0070897477   -0.2182741775
 C    0.6041921281   -1.0245434823    0.9643765259
 C    1.2522327227   -0.8053844366    2.2001955653
 N    1.7888803013   -0.6190264600    3.2110292189
 C   -0.9019894717   -1.0240916458    0.6329376920
 H    0.9811401097    1.8996509687   -0.2319590075
 H   -0.7559303869    1.9265493381   -0.5886880996
 H   -0.1942786173    1.8212420975    1.0886205631
 H    0.5033233636   -0.8347260897   -2.2355988774
 H   -1.2362095920   -2.8005524255   -0.9710768191
 H    1.6104019800   -2.7653586768   -0.3666647226
 H   -1.7234677350   -0.8931008977    1.3245909184