17

 C   -0.0012576193    1.5003767693    0.0000406840
 C    0.0391905312    0.0457283493    0.0216312214
 C    0.0618980698   -1.1593791187    0.0362730360
 C    0.1112102506   -2.6131008029    0.0201905286
 N    1.0391465632   -3.2020613023   -0.9448373483
 C    0.1633424985   -3.2945165933    1.4364900615
 N   -1.1699801976   -3.8356258193    1.1560944568
 C   -1.2846249076   -3.3304831563   -0.1060795830
 O   -2.0997848148   -3.4327170472   -0.9804587977
 H    0.6179556867    1.9026910756   -0.8092692074
 H   -1.0231970311    1.8644639521   -0.1524817196
 H    0.3660211107    1.9241126655    0.9412295856
 H    0.6159916044   -3.1389623663   -1.8677725788
 H    1.8904844341   -2.6481237744   -0.9814126440
 H    0.9497523917   -4.0502276803    1.5077415614
 H    0.1975392609   -2.6069141185    2.2849836435
 H   -1.7366553712   -4.5121866023    1.6455133299