21

 O    0.2167607831    1.0162829543   -0.3443895536
 C    0.0529927121   -0.3575242598   -0.0320611935
 C    0.1167995022   -0.6506540286    1.5018220982
 C   -1.3677248132   -0.1948166343    1.5641782373
 C   -1.4635979706   -0.6638317257    0.0850064213
 C   -1.7197351017   -2.1778470371    0.0424182933
 C   -0.5729530160   -2.9827298447    0.6954957061
 O    0.2970940762   -3.3591525444   -0.3784995965
 C    0.1914283963   -2.1618513108    1.7682000835
 H    1.1433440662    1.2388298534   -0.2093842110
 H    0.6480810662   -0.9934205574   -0.6946499043
 H    0.8547447997   -0.0948339228    2.0886177104
 H   -2.0175195682   -0.6848508391    2.2967290369
 H   -1.4582734235    0.8875432954    1.6533351413
 H   -2.1226562931   -0.1146185473   -0.5908099467
 H   -2.6658819684   -2.3940873320    0.5517136186
 H   -1.8168019506   -2.5383566291   -0.9861698957
 H   -0.9802645579   -3.8940217257    1.1568833514
 H    1.0487522787   -3.8254054674    0.0017832554
 H    1.2328516085   -2.5093218152    1.7882204403
 H   -0.2216558260   -2.3706698118    2.7631587076