19

 O   -0.0652710924    1.4410598325   -0.0516530163
 C    0.0369691094    0.0200595904    0.0283644704
 C    0.7172195508   -0.4860579976    1.3365724510
 C   -0.4538502316   -0.8923182309    2.2377114085
 C   -1.4412544444    0.3037601469    2.4611455704
 C   -2.2681107298   -0.2121753423    1.2845775209
 C   -1.3576090443   -0.5800414171    0.0959323119
 C   -1.5130971973   -1.5119837946    1.2639391153
 O   -2.0074334281   -2.7990614622    1.2493099606
 H    0.8263155081    1.7955153244   -0.1311436361
 H    0.5722769011   -0.3568515349   -0.8558630734
 H    1.3497076829   -1.3555568426    1.1182678486
 H    1.3549840396    0.2883551128    1.7767317790
 H   -0.1862353361   -1.4671717981    3.1242526470
 H   -1.9863743065    0.2071797020    3.4037563888
 H   -1.0196750942    1.3080088205    2.3747663519
 H   -3.3205734706   -0.0313985722    1.1018564061
 H   -1.8954059465   -0.8038820922   -0.8183949731
 H   -1.4039076403   -3.3538676748    0.7425958386