20

 C    0.0005805830    1.5749998339    0.0028471714
 C    0.0182569795    0.0447909989   -0.0058759956
 C    0.6966520012   -0.5211394556   -1.2621807300
 C    0.5989835655   -2.0505776850   -1.3202548056
 C    0.9430088606   -2.6836358085    0.0146870854
 C    1.0002936512   -1.9867522194    1.1596208128
 C    0.7061170632   -0.5177869836    1.2498916197
 C    1.2112525380   -4.0881365929    0.0154709806
 N    1.4210046880   -5.2270542342   -0.0228488229
 H    1.0191645442    1.9790814237   -0.0341623975
 H   -0.5458240223    1.9693095259   -0.8599782238
 H   -0.4781087054    1.9632510577    0.9082037483
 H   -1.0216153738   -0.3124211123   -0.0005656353
 H    0.2482519923   -0.0900261408   -2.1638099799
 H    1.7535717792   -0.2220409046   -1.2629581885
 H   -0.4140957037   -2.3598850008   -1.6113307226
 H    1.2645757456   -2.4502297731   -2.0931045293
 H    1.2737584791   -2.5000284090    2.0773184946
 H    1.6496048943    0.0208231736    1.4336372783
 H    0.0913582201   -0.3266360741    2.1390709097