23

 C   -0.0725687403    1.5475727456    0.1227359214
 C   -0.0440535919    0.0191366908    0.0375118066
 C   -1.4443365496   -0.6014912256    0.0084119899
 C   -1.4161095106   -2.1204901662   -0.0835146491
 O   -2.7453484611   -2.5999057988   -0.0930573386
 C   -2.8327155299   -4.0014800042   -0.1946430862
 C   -4.2844750612   -4.3931588713   -0.1896736610
 C   -4.7116111324   -5.7303540567    0.2356611964
 O   -4.8986590831   -4.5984158609    1.0834827794
 H    0.9388428369    1.9650497985    0.1444226248
 H   -0.5945611626    1.9817117137   -0.7371016004
 H   -0.5917449973    1.8833368259    1.0271270881
 H    0.5101159925   -0.2863887709   -0.8600359442
 H    0.5162830048   -0.3840973133    0.8914482651
 H   -2.0013418362   -0.3174213432    0.9095375252
 H   -2.0120480442   -0.2099238036   -0.8447206426
 H   -0.8881113083   -2.4418979576   -0.9990181477
 H   -0.8631428376   -2.5480048321    0.7710655440
 H   -2.3579453424   -4.3526919204   -1.1288968520
 H   -2.3202598842   -4.4967260525    0.6465591538
 H   -4.9035499602   -3.8487583782   -0.9032486489
 H   -5.6184355071   -6.1645919048   -0.1826968102
 H   -3.9690450537   -6.4518769742    0.5758683762