19

 C    0.0581256278    1.5219056207   -0.1645693596
 C    0.0171177030   -0.0060894768   -0.0128827352
 C    0.8010802685   -0.4332616062    1.2142635923
 O    1.6610856842   -1.2752003158    1.2289467442
 C   -1.4215499748   -0.5282812824    0.1187129239
 C   -2.3306785377   -0.4140230309   -1.1489307405
 C   -2.6738681088   -1.9037510356   -0.9715282003
 O   -3.4941480321   -2.6239781032   -1.4584799346
 C   -1.6179886976   -2.0796722087    0.1298583353
 H    1.0808434027    1.8796198178   -0.3159405883
 H   -0.5414988995    1.8404853366   -1.0221726891
 H   -0.3451362428    2.0170772753    0.7261358756
 H    0.4923974075   -0.4870137232   -0.8761391084
 H    0.5010182812    0.0970740266    2.1506879865
 H   -1.9037264315   -0.0647581999    0.9856396102
 H   -3.1759554436    0.2778393966   -1.1169295187
 H   -1.7703314002   -0.2348668417   -2.0738096817
 H   -0.7386296269   -2.6315002452   -0.2204439215
 H   -1.9681498794   -2.5459467939    1.0541408200