17

 C   -0.0847109547    1.5179621470   -0.0045979497
 C    0.1035088949    0.0345738311    0.0376046797
 N   -0.7641204736   -0.8526522096    0.8433147522
 C    0.7091352080   -0.8863714921    1.0395068765
 C    1.2430313264   -1.8256242352   -0.0426160854
 C    0.6447817747   -0.8394693198   -1.1248935696
 C   -0.2921864218   -1.3420888139   -2.1094025958
 C   -1.0635141765   -1.7512540575   -2.9362982602
 H    0.7919270462    2.0165390498   -0.4320915082
 H   -0.9534547308    1.7847432353   -0.6176223412
 H   -0.2449663395    1.9228658831    1.0007467411
 H   -1.1539690711   -0.2782006454    1.5911896488
 H    1.1436789930   -0.6714874699    2.0084789382
 H    2.3317754127   -1.8808653724   -0.0961300442
 H    0.8140892150   -2.8289564565   -0.0337319616
 H    1.4639522453   -0.3116732115   -1.6247129164
 H   -1.7528449083   -2.1175769325   -3.6557899642