16

 C    0.0684296171    1.5236352980    0.0425264147
 C   -0.0669818293    0.0377058372    0.1341678394
 C   -1.3392058292   -0.8138061357   -0.0412547317
 C   -0.7386460846   -1.8695534050    0.9484029068
 C    0.5016551741   -0.9864042718    1.0794756585
 O    1.0351036070   -0.7735874902   -0.2417800557
 C    1.3989271934   -0.7829324851    2.2273085033
 O    1.2122612032   -1.2704500626    3.3169351179
 H    1.0624244522    1.8470372182    0.3596233284
 H   -0.0810809378    1.8498000672   -0.9932982550
 H   -0.6829999984    2.0214717003    0.6625363606
 H   -2.2357032564   -0.3292676797    0.3517394102
 H   -1.5214058366   -1.1447678778   -1.0663022774
 H   -1.2939786552   -1.9445396357    1.8842206100
 H   -0.5488626520   -2.8679633742    0.5501745721
 H    2.2663654625   -0.1226770929    2.0106830879