18

 C   -0.0161225307    1.5569435484    0.0066332749
 C    0.1160220989    0.0478614307    0.0126367241
 C    1.3604116862   -0.7218919343   -0.2535336410
 O    1.4913743575   -1.7065426634   -1.2010005599
 C    2.5939400445   -0.1413790441    0.4321285095
 N    1.8534036174    0.0281495340    1.7231066060
 C    0.7067906845   -0.7123314315    1.1952464022
 C    0.0663692324   -1.7940668130    1.9227872179
 O    0.4338509335   -2.1751749697    3.0155527739
 H    0.8044262408    2.0167934019    0.5605622389
 H   -0.0176606161    1.9472870982   -1.0164228056
 H   -0.9524817026    1.8587479186    0.4859498335
 H   -0.7514722629   -0.4862315424   -0.3815586934
 H    0.8156448246   -1.5885127069   -1.8766085529
 H    3.3819612842   -0.8982996006    0.4879220835
 H    3.0076996188    0.7856609829    0.0192629098
 H    2.2728074384   -0.5045243033    2.4795423833
 H   -0.7825971194   -2.2769416853    1.3901775155