18

 O   -0.0125388390   -0.0356178380   -0.0371225194
 C   -0.0094368631    1.1728306221   -0.0524965145
 N   -1.1062877182    2.0032081089   -0.0942595708
 C   -0.7363875571    3.4131180646    0.0800458288
 C    0.6464544472    3.4094742415   -0.6048462424
 C    1.2082461912    2.1357871183    0.0309348928
 O    1.5376072882    2.3976812834    1.3962928167
 C    0.4188539973    2.7381183615    2.2144622550
 C   -0.5288954133    3.7677443607    1.5674570368
 H   -2.0263820110    1.6394437969    0.1024918550
 H   -1.4673379659    4.0678755411   -0.3995759303
 H    0.5444473577    3.3057647478   -1.6887792027
 H    1.2493454144    4.2887270851   -0.3713503663
 H    2.1000323553    1.7139106767   -0.4303432545
 H   -0.1470969787    1.8286356039    2.4630643987
 H    0.8402352179    3.1246445537    3.1458056510
 H   -0.1128845801    4.7792810591    1.6347780881
 H   -1.4792873628    3.7681724527    2.1137733379