20

 C    0.7673064532    1.1727260064    0.1900924737
 N   -0.0819967858   -0.0039430718    0.0287940301
 C   -0.9015460760   -0.3369303050    1.0715664542
 O   -0.9417126831    0.2526099287    2.1339259997
 C   -0.0330024817   -0.7185757533   -1.2680521045
 C    1.4146904044   -1.1959678664   -1.5378403503
 C   -0.9660298120   -1.9475172638   -1.3122862093
 C   -0.4474682925    0.2047477994   -2.3424447411
 C   -0.7825956922    0.9404186227   -3.2317585843
 H    1.8078643134    0.8985271087    0.3959806995
 H    0.7317707111    1.7855790731   -0.7143269478
 H    0.3854113143    1.7388374481    1.0387158262
 H   -1.5386740865   -1.2085846871    0.8681659228
 H    1.7312048181   -1.8752874352   -0.7407340629
 H    1.4603296623   -1.7228732271   -2.4940604018
 H    2.1108749018   -0.3570727657   -1.5829279563
 H   -2.0145622624   -1.6728946005   -1.1833566247
 H   -0.8623139638   -2.4125680757   -2.2949572126
 H   -0.6870128378   -2.6839778392   -0.5538064522
 H   -1.0853036446    1.5955371436   -4.0114247585