19

 C    0.0278444960   -1.1471467885   -0.0111851133
 C    0.0173254820    0.0555392322   -0.0003665245
 C    0.0038146909    1.4997138450    0.0132712430
 C   -0.6850427829    2.1871874421    1.2313240412
 C   -0.4465543712    3.6266474361    0.7973263248
 C    0.8595285286    3.6464993102    0.0247083414
 C    1.3871202934    2.2187058125    0.0056439669
 C   -0.4627813080    3.6411157964   -0.7201361885
 C   -0.7112139177    2.2102126235   -1.1762076983
 H    0.0368283676   -2.2086777656   -0.0205642194
 H   -1.7441631463    1.9215206633    1.3019918551
 H   -0.1951978587    1.9277047114    2.1747254509
 H   -0.7793532418    4.4738814029    1.3821537018
 H    1.5131380437    4.5086776054    0.0258473205
 H    1.9834573349    1.9611686976    0.8862050544
 H    1.9652710957    1.9778886510   -0.8915820411
 H   -0.8078405279    4.4992595293   -1.2814717419
 H   -0.2416677290    1.9690092703   -2.1346966065
 H   -1.7716586993    1.9458038750   -1.2293353766