19

 C    0.0015766395    1.5124992038   -0.0618037771
 N   -0.0103748587    0.0704201859    0.1402945121
 C   -1.3153707440   -0.5518210309    0.0130344017
 C   -1.9220291367   -0.6936692624   -1.3752170632
 C   -2.5116871089   -1.8726895035   -1.5526782262
 C   -2.4247394517   -2.7466222263   -0.3231180503
 C   -1.3325434182   -2.0346188802    0.5321156736
 C   -0.0322902595   -2.6759537323    0.3294418118
 N    0.9851199968   -3.1959562515    0.1525467775
 H    1.0257898103    1.8806751902    0.0441165417
 H   -0.3795945435    1.8493276720   -1.0412294911
 H   -0.6064406137    1.9943224723    0.7126317132
 H    0.6558293178   -0.3831555945   -0.4762904967
 H   -1.9968933135    0.0335594310    0.6480079087
 H   -1.8894092678    0.1110796226   -2.1005342929
 H   -3.0350053968   -2.1901219961   -2.4475086762
 H   -3.3786949920   -2.7623442610    0.2199238171
 H   -2.1689640923   -3.7867880799   -0.5432118848
 H   -1.5535668271   -2.0684288893    1.6017966709