18

 C   -0.2019220843    1.6127347273    0.1121519528
 C   -0.0022375148    0.1015195402    0.0346581659
 C   -1.2926749616   -0.5526667952   -0.1792511106
 N   -2.3067070486   -1.0618627942   -0.4010716935
 C    1.1087758226   -0.4963411211   -0.9631095841
 N    1.9234727755    0.3055881850   -1.8317649920
 C    1.7715749397   -1.0615769602    0.2836673382
 C    2.0437991039   -0.0242591222    1.2949755618
 N    0.6747452631   -0.5661557398    1.2173115147
 H    0.7480337223    2.1511346849    0.1108548348
 H   -0.7828027338    1.9602520660   -0.7466056147
 H   -0.7476098929    1.8729860215    1.0234963055
 H    0.6507644467   -1.2881817169   -1.5585543660
 H    1.4030025564    0.6561772516   -2.6280981873
 H    2.3476371488    1.0933485095   -1.3566082551
 H    2.1721426482   -2.0658491544    0.3642879472
 H    2.5521876443   -0.3406892209    2.2002201575
 H    2.2482736745    1.0045707588    1.0153858048