18

 C    0.0066251845    1.4946820506    0.1131739712
 C    0.0188873506    0.0033767439    0.0124060561
 C    0.0707143472   -0.7479868891   -1.0930946864
 C   -0.0006391407   -2.2159322932   -0.7707635425
 C    1.2837550968   -3.0946536121   -0.8355020455
 C    1.3689315291   -2.8323778125    0.6825186861
 O    2.1920574882   -2.9779475718    1.5420671968
 N    0.1053750376   -2.2200640751    0.7180092068
 C   -0.0700075929   -0.8706246769    1.2595995396
 H    0.8620338377    1.8583930912    0.6958867034
 H    0.0395290180    1.9660907575   -0.8721482186
 H   -0.8948864324    1.8465519121    0.6305220553
 H    0.1018440479   -0.3642841095   -2.1062401529
 H   -0.9053166548   -2.6967254412   -1.1605921416
 H    1.1379328410   -4.1365268289   -1.1281998016
 H    2.1221597637   -2.6706139798   -1.3910708543
 H    0.7178500532   -0.6642461845    1.9930342071
 H   -1.0354969148   -0.7491891408    1.7699466610