17

 O   -0.0799075071    1.3047297067   -0.0955808365
 C    0.0028650402   -0.0907453320   -0.0319514268
 C    1.1631085176   -0.6510554899   -0.8231422036
 O    1.2498410059   -2.0696949152   -0.7871341058
 C    0.2242130590   -2.7154575575   -0.0981529148
 C   -0.3576863672   -2.2642877821    1.2086182233
 C   -1.2156989497   -2.2894770605   -0.0757074754
 C   -1.3441690958   -0.7479834079   -0.0084516799
 C   -0.4891378859   -0.7214117579    1.2519085741
 H    0.6367484391    1.6692656336    0.4369240674
 H    1.0731876462   -0.3212224283   -1.8680376257
 H    2.1057687354   -0.2395623680   -0.4281223722
 H    0.3749263854   -3.7875417503   -0.1798393610
 H   -0.4112372411   -2.8964237038    2.0867002701
 H   -2.0325110084   -2.9468297844   -0.3473197947
 H   -2.2431649092   -0.1889362018   -0.2292768355
 H   -0.6333333544   -0.1363377207    2.1508627070