14

 C   -0.0175337935    1.4961233378   -0.0469114434
 C    0.0005638813    0.0062409401    0.0372481468
 N   -0.0148095246   -0.7408785148   -1.0574722846
 N    0.0080741600   -2.0638487659   -0.6554632499
 C    0.0378632296   -2.1333847374    0.6888525731
 C    0.0344620205   -0.8394103865    1.1877399065
 N    0.0646568012   -0.8979435195    2.5544271397
 N    0.0859917229   -2.1368777376    2.9133170552
 N    0.0700331167   -2.9344542197    1.7698008165
 H    0.8687876614    1.9264076519    0.4310547250
 H   -0.0428389251    1.8103689705   -1.0918173716
 H   -0.8923343451    1.9071038509    0.4678608405
 H    0.0016791192   -2.7833502758   -1.3547954959
 H    0.0831467955   -3.9341885942    1.8733797820