17

 C   -0.0409060415    1.5238180460    0.0176157001
 C   -0.0221345957    0.0253921906   -0.0488839708
 C   -0.9069322925   -0.8751517728    0.8176822171
 C   -1.5044992086   -2.1315191476    0.1889140892
 O   -0.3846961708   -2.9050657165   -0.2504678256
 C    0.7396850640   -2.0397449563   -0.2448084688
 C    0.5615360985   -1.0533108872    0.9335496949
 C    0.5552268528   -0.7927954555   -1.1625259796
 O    0.9664348508   -0.4958833768   -2.2512510153
 H    0.9040065895    1.9386059951   -0.3458776432
 H   -0.8428393636    1.9294075661   -0.6082816039
 H   -0.2044672795    1.8770942712    1.0404424922
 H   -1.4550761195   -0.3590935229    1.5980704908
 H   -2.0693202204   -2.7217252738    0.9195215506
 H   -2.1637278254   -1.8969076954   -0.6572227856
 H    1.6523776457   -2.6213988695   -0.3613388000
 H    1.1935463660   -0.8999580846    1.7961751477