17

 C   -0.0457235704    1.4383388280   -0.0148507235
 C    0.0640493273   -0.0479031733    0.0944653299
 C    0.9906686225   -0.9272185033   -0.6756361856
 C    1.0393758446   -2.1840915191    0.2154303681
 C    1.0620566917   -1.6845396449    1.6830137267
 C   -0.2561551865   -0.9639896860    1.3015241994
 C   -0.5160105791   -2.0209114986    0.1815761515
 N   -0.4914171257   -0.9845741835   -0.9470842667
 H    0.6742388221    1.9358878045    0.6452904782
 H    0.1535012601    1.7604548698   -1.0417110688
 H   -1.0496160144    1.7829968655    0.2558212808
 H    1.6945970617   -0.5803679440   -1.4231715426
 H    1.5808799278   -3.0630080084   -0.1281587962
 H    0.8872414285   -2.5011559262    2.3911078775
 H    1.9110012766   -1.0785281104    2.0149048586
 H   -0.9932237188   -0.6346217030    2.0317958453
 H   -1.2578912881   -2.8164448271    0.1906618672