18

 C    0.0769925535    1.4551550211    0.1085408617
 C   -0.0392083268   -0.0374650509   -0.1792676779
 N   -1.4071633941   -0.4944615355    0.0565047653
 C   -1.7200512478   -1.8245305719    0.0483050238
 C   -2.9118313039   -2.4925397005   -0.0491198430
 C   -2.5259042586   -3.8540637109    0.0941804575
 N   -3.3724757722   -4.9515952101    0.1483851661
 N   -1.2265517645   -4.0096465416    0.2417578153
 O   -0.7082195166   -2.6831493149    0.2187749910
 H    1.1024535494    1.7949013963   -0.0597590426
 H   -0.5764544752    2.0397311319   -0.5499139670
 H   -0.1979491327    1.6755999361    1.1438904266
 H    0.2860916482   -0.2531049644   -1.2086170863
 H    0.6181118802   -0.6053487073    0.4837266675
 H   -2.1288656751    0.0976125724   -0.3264452576
 H   -3.9007682720   -2.0828293748   -0.1642549473
 H   -4.1523974255   -4.8971074551   -0.4912553218
 H   -2.8735353562   -5.8259942298    0.0469769989