20

 C   -0.1463115201    1.6194202990    0.0667581717
 C    0.0111254821    0.0937375891    0.0293421482
 C   -1.3679001980   -0.5842995519   -0.0588983721
 N    0.8649726386   -0.3244837292   -1.0869387800
 C    1.7773794972   -1.3166641311   -0.8019525004
 O    2.3903568686   -1.9738249418   -1.6145242729
 C    1.8559030060   -1.3990360560    0.6999539875
 C    2.2349420873   -0.0970829341    1.3792507025
 C    0.7898640728   -0.4661825937    1.2310884528
 H    0.8253586495    2.1150786488    0.1257044912
 H   -0.6598666073    1.9804565233   -0.8312091141
 H   -0.7420846763    1.9214207127    0.9338055427
 H   -1.8905357611   -0.2851721288   -0.9736600854
 H   -1.2622903640   -1.6729455738   -0.0655553303
 H   -1.9956574725   -0.3016451716    0.7929382603
 H    0.6096667622   -0.1509112096   -2.0471477263
 H    2.1227852212   -2.3481441870    1.1443678698
 H    2.6635586767   -0.1755795384    2.3723070138
 H    2.6539375076    0.6952791065    0.7683309768
 H    0.2166479795   -0.7101882324    2.1177587241