18

 C    0.2453852075    1.2174997681    0.2179625035
 O   -0.4329312760    0.1007480145   -0.3242801626
 C    0.3631634659   -0.6165665654   -1.2168667076
 C    1.4309994866   -1.6282317749   -0.8963413670
 C    1.1011869355   -2.6801488751    0.1955403344
 C   -0.2410578555   -2.5211073465    0.8669834975
 C   -0.1685218360   -3.0696822740   -0.5332577931
 C    0.1271634019   -2.0236938270   -1.6418274647
 H    1.1315744034    0.9137831444    0.7926927710
 H    0.5661379761    1.9145821228   -0.5716830278
 H   -0.4556958692    1.7311868623    0.8794144782
 H    0.6739300697    0.0002584850   -2.0677436440
 H    2.4297936348   -1.5367606110   -1.3071070772
 H    1.8670876888   -3.3334715552    0.5927158498
 H   -0.4348750367   -3.2836692141    1.6171321383
 H   -0.6747182134   -1.5544568727    1.0731609187
 H   -0.5143378178   -4.0635067453   -0.7855596069
 H    0.0046245045   -2.2718588660   -2.6895644304