21

 C   -0.1170399656    1.5273620286    0.0327705224
 C    0.0609232646    0.0046881856   -0.0246880150
 C    0.8033390760   -0.4618934112   -1.2471298397
 C    2.2482597563   -0.1581925462   -1.7332455825
 C    3.4226311539   -0.6256046621   -0.8844619019
 C    1.7008065318   -1.0964763218   -2.8341684616
 C    0.8513118957   -1.9232255182   -1.8206066800
 O   -0.3964750353   -1.7967766572   -2.5672424761
 C    0.2658809313   -0.5053214885   -2.7198197339
 H    0.8495143425    2.0420704706    0.0454548056
 H   -0.6758900038    1.8917786688   -0.8355363277
 H   -0.6652245302    1.8253197009    0.9314500569
 H    0.5895758276   -0.3397334074    0.8738464188
 H   -0.9193153597   -0.4883742533   -0.0173629332
 H    2.3974692969    0.8757466876   -2.0677602610
 H    3.2902590513   -1.6588398308   -0.5451524168
 H    4.3605260566   -0.5802084877   -1.4486965009
 H    3.5447633687    0.0026304839    0.0048711455
 H    2.1796119481   -1.4705448315   -3.7394740748
 H    1.0608707807   -2.8712407876   -1.3257502952
 H   -0.2211410275    0.2676798276   -3.3147762587