15

 C   -0.1378982795    1.6637466996    0.1827651694
 C   -0.1132629567    0.1562672670    0.1213728107
 C   -1.3501523458   -0.5252313090   -0.4671862140
 C   -1.6492747664   -0.0618880869   -1.8220419243
 N   -1.8829188435    0.3174095816   -2.8876287705
 O    1.1230457790   -0.4418518112   -0.2667490193
 C    0.6854687575   -0.6483606694    1.0786939152
 C    1.4614487159   -0.0224879720    2.1273383707
 N    2.0638457021    0.4628066623    2.9858106444
 H    0.7758161276    2.0474926127    0.6387227213
 H   -0.2267531828    2.0744835062   -0.8269947419
 H   -0.9951399768    2.0103486358    0.7685312754
 H   -1.1982849644   -1.6085103111   -0.4907973818
 H   -2.2186271095   -0.3251031084    0.1710019546
 H    0.3710790835   -1.6647614571    1.3114685101