20

 C   -0.3898658787    1.4464147838   -0.0105526002
 C    0.1195358969    0.0168258705   -0.0427523212
 O    1.1877409484   -0.0813124945   -1.0353864528
 C    2.1739924687   -0.7807716907   -0.4413081031
 N    2.0691361878   -1.1228097205    0.7740782695
 C    0.7674512731   -0.5840012490    1.2506749876
 C    1.0338624699    0.4177171992    2.3798935362
 C   -0.0468974981   -1.7832312592    1.7775227014
 O    0.6405449555   -2.4779969115    2.7926953018
 H    0.3906360378    2.1448509616    0.3000630183
 H   -0.7389007136    1.7397112884   -1.0043471364
 H   -1.2314031598    1.5340683684    0.6832188579
 H   -0.6807640058   -0.6455966126   -0.3973834224
 H    3.0213870681   -0.9965910752   -1.0839067559
 H    1.7231487327    1.2042084182    2.0622085822
 H    0.1044348767    0.8841307014    2.7211780738
 H    1.4780709101   -0.1116561438    3.2245479687
 H   -0.9948213022   -1.4387153347    2.2084235943
 H   -0.2850718562   -2.4447673699    0.9280407905
 H    1.5301127188   -2.6285711799    2.4458393597