14

 N    0.0098732358    1.3692197267   -0.1084371089
 C   -0.0086222569    0.0061968956   -0.0460103937
 C   -1.2090686322   -0.7242764576   -0.0357886206
 C   -1.1035363172   -2.1085258982   -0.0106339845
 N    0.0901629231   -2.7431465630    0.0007244839
 C    1.1509915294   -1.9443477828   -0.0115251847
 N    1.1816827632   -0.6123702055   -0.0302978123
 C   -2.2825910206   -2.9188209411    0.0042174513
 C   -3.2883021910   -3.5787007981    0.0165179798
 H    0.8975295519    1.8070642081    0.0798833249
 H   -0.8158687566    1.8850445820    0.1433700010
 H   -2.1764440604   -0.2372102200   -0.0494971382
 H    2.1205632387   -2.4382644158   -0.0011065551
 H   -4.1669335671   -4.1754775203    0.0269186970