15

 O    0.9769791511    1.1533129630    1.4833058287
 C    0.4255174165    1.4668523443    0.4420403013
 N    1.0293135140    1.4796837716   -0.7678424783
 C    2.4275572568    1.0753251266   -0.9368862531
 C    3.4211319137    2.0593563507   -0.4044189291
 C    4.4175796925    2.8120823237   -0.9825450843
 N    5.0480624363    3.5311986045   -0.0126819563
 N    4.4928146779    3.2661191340    1.1378224523
 N    3.5181855065    2.3729828192    0.9112517605
 H   -0.6373832946    1.7658642544    0.3939270505
 H    0.5189179668    1.8282826884   -1.5630570032
 H    2.5549497098    0.1080577121   -0.4388271010
 H    2.6048227442    0.9253855768   -2.0032109894
 H    4.7150896054    2.8723147123   -2.0174567911
 H    2.9101740031    2.0358703984    1.6486358025