22

 C    0.0743613833    1.6359222277    0.0803179652
 C    0.0324048417    0.1097383132   -0.0310464244
 C    0.6388419613   -0.5778362672    1.1921005021
 C    0.6184422730   -2.0843173017    1.1419223812
 N    0.0570720707   -2.7309335743    0.2075675996
 C    0.1269323181   -4.1877259499    0.2023364837
 C    1.2448674356   -4.7417945494    1.0901294387
 C    1.1983888518   -4.0064261091    2.4218454366
 O    1.2790784657   -2.5898652251    2.2266748201
 H    1.1029576143    2.0024553296    0.1760300946
 H   -0.3651142552    2.1087749453   -0.8033501754
 H   -0.4820547061    1.9883799552    0.9564890225
 H   -0.9987603920   -0.2338406214   -0.1599098401
 H    0.5665637181   -0.2192396671   -0.9285976078
 H    1.6814589021   -0.2651375078    1.3383278059
 H    0.1174601248   -0.2662358252    2.1077418447
 H   -0.8463028345   -4.5853742898    0.5230646532
 H    0.2583284576   -4.5159374885   -0.8349061493
 H    1.1378307988   -5.8199659486    1.2480201908
 H    2.2190935262   -4.5705021217    0.6182033161
 H    0.2656617623   -4.2342541145    2.9561752846
 H    2.0363968024   -4.2643741697    3.0742574573