16

 C   -0.0894244439    1.5253505390   -0.1931865942
 C    0.0257495186    0.0320091990    0.0183216797
 C    1.2888995990   -0.7453486279   -0.1535301711
 O    2.4360004693    0.0060239767    0.2724897760
 C    1.9705718598   -0.0315371581    1.6320227482
 C    1.9578464021    1.2701786672    2.3951411020
 O    2.3245224098    2.3384979429    1.9837038151
 C    0.6406550512   -0.6801988560    1.2185355986
 H    0.8676458999    2.0221296580   -0.0290446673
 H   -0.4075568180    1.7320020780   -1.2204720153
 H   -0.8302525506    1.9678291127    0.4808992200
 H   -0.8335152197   -0.5416900684   -0.3283402828
 H    1.4629470840   -1.5656711728   -0.8401139684
 H    2.5735331942   -0.7423372623    2.2214500485
 H    1.5719871413    1.1419065234    3.4354654106
 H    0.1226885029   -1.4409073513    1.7861749005