20

 C    0.1241403124    1.4868865267   -0.0000105474
 O    1.2261262511    0.5773366218   -0.0185821470
 C   -0.1121632138    0.0379575073    0.0109550928
 C   -0.4523004832   -0.6988940581    1.2899000016
 C   -0.0218156249   -2.1629951449    1.1376095922
 C   -0.7954458014   -2.8455738344    0.0040053790
 N   -0.8068250882   -2.0994270051   -1.2718344241
 C   -1.8884545642   -1.1442557167   -1.4842227824
 C   -0.4989543245   -0.6600792684   -1.2610491169
 H    0.0010945687    2.0578746739    0.9204947928
 H   -0.0297427314    2.0549000116   -0.9173701828
 H    0.0682078782   -0.2131431730    2.1199868391
 H   -1.5288896723   -0.6384045852    1.4958565285
 H    1.0533715413   -2.1913988641    0.9251613511
 H   -0.1796764688   -2.7198947095    2.0670772203
 H   -0.3583976860   -3.8298225941   -0.1978589418
 H   -1.8312813946   -3.0215677285    0.3228710610
 H   -2.3204160014   -1.1268943142   -2.4821917197
 H   -2.6110617383   -0.9987419162   -0.6818377642
 H    0.0860977813   -0.3251121687   -2.1154425922