18

 C   -0.1509342022    1.5020077657   -0.1385131679
 C   -0.0034929289    0.0062159305    0.0906944862
 O    0.4549306446   -0.6370775341   -1.1121161079
 C    1.5666320267   -1.4700800860   -0.8450915971
 C    1.4761491053   -1.7723806136    0.6666862181
 C    2.7206624558   -2.2010174833    1.2849262774
 N    3.7148955427   -2.4950769974    1.7970275189
 C    0.9846731086   -0.3968670365    1.2010827835
 O    2.0357548320    0.5407029777    1.2570550486
 H    0.8171188332    1.9548958430   -0.3559317271
 H   -0.8252013122    1.6750720002   -0.9810786771
 H   -0.5722703259    1.9865370747    0.7478553327
 H   -0.9844841295   -0.4239938150    0.3421859022
 H    1.4961050206   -2.3713149072   -1.4601828509
 H    2.5122570299   -0.9587779351   -1.0680203790
 H    0.7044499573   -2.5286810614    0.8476170154
 H    0.4808082232   -0.4956593805    2.1712623087
 H    2.6890549289    0.2342753380    1.8968190749