18

 C    0.0518023810    1.2647817460    0.5146305616
 N   -0.0371123658    0.0739197987   -0.3300836896
 C    1.2156212459   -0.6628144222   -0.3742803102
 C   -1.1673832083   -0.7294555028   -0.1028037995
 C   -1.3245381729   -2.0014625425    0.4077727317
 C   -2.7157877349   -2.3144395074    0.3496518275
 C   -3.3646394090   -1.2302370948   -0.1834448234
 N   -2.4153894230   -0.2692496652   -0.4559689137
 H    0.8211207198    1.9357715095    0.1188139367
 H   -0.9005702890    1.7996181375    0.5135279144
 H    0.3050697538    1.0240890458    1.5619059492
 H    1.5221061240   -1.0577992782    0.6107490710
 H    1.1227511433   -1.5018995351   -1.0673992212
 H    2.0106481242    0.0005367244   -0.7297587512
 H   -0.5373367078   -2.6295908729    0.7933152072
 H   -3.1815047324   -3.2316460646    0.6762400736
 H   -4.4077551381   -1.0517971842   -0.3874165477
 H   -2.5743189908    0.5879760982   -0.9557666567