17

 O   -0.0399158235    1.3550157910   -0.0801127678
 C   -0.0467884337   -0.0315520962    0.0207100191
 C   -0.4822827176   -0.7488522350    1.2832707499
 C   -1.5831157259   -0.0333192867    2.0906285800
 C   -2.4868307747   -0.0283644150    0.8069009848
 C   -1.3594889764   -0.7499865607    0.0466997559
 O   -1.3801590968   -2.0658199479   -0.4287052133
 C   -0.9346844500   -2.8633161068    0.6729182643
 O   -0.0385916336   -2.0655637375    1.4548116220
 H    0.7215318346    1.6857029541    0.4093068886
 H    0.7250302746   -0.5697388140   -0.5271853575
 H   -1.9796238358   -0.6698656203    2.8835558639
 H   -1.3114907464    0.9367264094    2.5133555561
 H   -3.3715206075   -0.6586325554    0.9117575083
 H   -2.7784543814    0.9436821898    0.4054924261
 H   -1.7938717739   -3.1796113433    1.2853864967
 H   -0.3947181621   -3.7320525455    0.2881328529