16

 C   -0.0213982360    1.4690130426    0.0679935673
 C   -0.0014936240   -0.0223581823   -0.0240794623
 C   -0.0382060855   -0.7814909733   -1.1420682701
 C    0.0018907757   -2.1948538762   -0.7621986597
 C    0.0626521714   -2.2613419680    0.5965016332
 C    0.0678897389   -0.9085227688    1.2276395385
 O    0.1025258890   -3.5126850105    1.0383532635
 N    0.0668579985   -4.3577891518   -0.0944774193
 C    0.0075497678   -3.5593910850   -1.1426948003
 H    0.8769993597    1.8569578138    0.5651923641
 H   -0.0764166802    1.9220122084   -0.9255800414
 H   -0.8801318063    1.8283018974    0.6495676907
 H   -0.0890154529   -0.3997332311   -2.1535544716
 H    0.9718421899   -0.7139115793    1.8179914258
 H   -0.7871478421   -0.7430012227    1.8947569149
 H   -0.0279863339   -4.0151621831   -2.1223069033