13

 O   -0.0788406548   -0.1975760475    0.0030330490
 C   -0.0628006149    0.9995037052    0.0054468647
 C    1.1703029547    1.8976159611    0.0010207495
 C    2.4194640657    1.1472269615   -0.0140851045
 N    3.4253001448    0.5820283764   -0.0261264628
 O   -1.1680498594    1.7782168086    0.0137144357
 C   -2.4035956212    1.0463746086    0.0198319809
 C   -3.4970668551    2.0142169854    0.0303583018
 N   -4.3846233131    2.7518402894    0.0388181114
 H    1.1174198998    2.5604812180   -0.8696371003
 H    1.1317348747    2.5484460028    0.8815350566
 H   -2.4686925157    0.4064506840   -0.8655535223
 H   -2.4565778755    0.4006378865    0.9018100705