19

 O    0.1357587822    1.4153364091    0.0125176274
 C    0.0848657683   -0.0008734207    0.0064461877
 C    0.5773943563   -0.6040025324    1.3579512572
 C   -0.7025388899   -0.6963402408    2.1715162481
 C   -1.7657960298   -0.6790186490    1.3701780666
 C   -3.2438132986   -0.4335145119    1.5176512093
 C   -3.5197023961    0.3435312903    0.2346411967
 C   -2.5001574606    0.2987245377   -0.6295131934
 C   -1.3663129934   -0.5436891564   -0.0902482066
 H   -0.4789818574    1.7190643298    0.6912115193
 H    0.7102854878   -0.3060583151   -0.8366404962
 H    1.0438127886   -1.5879870829    1.2067913939
 H    1.3355123416    0.0437100733    1.8107825144
 H   -0.7179018143   -0.7201585192    3.2556498180
 H   -3.8336576321   -1.3626813346    1.5408124229
 H   -3.5018025601    0.1191077195    2.4284124911
 H   -4.4668070297    0.8418297709    0.0575660610
 H   -2.4935093439    0.7546777923   -1.6124292501
 H   -1.3401404487   -1.5205571099   -0.6014197674