15

 O    0.0107502397   -0.0086453361    0.1404857945
 C    0.0445623285    1.1724558804   -0.0425946963
 O   -1.0914867915    1.9485471883   -0.0868196787
 C   -0.7782374104    3.3627981467   -0.1889084371
 C    0.6406503633    3.3924465939   -0.7850720365
 O    1.5337607265    4.3948299291   -0.3344861384
 C    2.7490385512    3.7519198359    0.0830806223
 C    2.3814897016    2.2974989806    0.2838957467
 C    1.1731577756    2.1078879432   -0.2329268649
 H   -1.5515808733    3.8206140428   -0.8068359254
 H   -0.7807275022    3.8137421083    0.8091944746
 H    0.5852142575    3.3953704790   -1.8857319319
 H    3.5383099194    3.8877210540   -0.6745185099
 H    3.0984225120    4.2215096682    1.0108030037
 H    2.9856946421    1.5891542257    0.8353165571