17

 C   -0.1486345942    1.5465813945    0.0169180610
 C    0.0696151277    0.0321159740   -0.0335424549
 C    0.9262897823   -0.4823635618   -1.2076068618
 C    1.9956784788   -1.3479903805   -0.5562468239
 C    1.9097388959   -1.3363623422    0.7897534797
 C    0.7921526483   -0.4799004294    1.2292609716
 O    0.4843404763   -0.2092848693    2.3683030436
 C    2.9473474341   -2.0447054695   -1.3328019940
 C    3.7377747788   -2.6220557230   -2.0360839772
 H    0.8069354416    2.0813950172   -0.0150751470
 H   -0.7572640876    1.8894294107   -0.8250159520
 H   -0.6534179006    1.8156692181    0.9483593896
 H   -0.9094852896   -0.4630091858   -0.0453655165
 H    0.3559379934   -1.0617495765   -1.9409849623
 H    1.4001288758    0.3359171326   -1.7631744886
 H    2.5636389727   -1.8550271867    1.4779079540
 H    4.4426832963   -3.1377771923   -2.6407821814