21

 C    0.0715936196    1.5471818867   -0.5826730106
 C    0.0824892587    0.1001899329   -0.1326871725
 C    1.2407150202   -0.8675760202   -0.2492595697
 C    2.6646055869   -0.3423816726   -0.3983932408
 C    2.9002797415    0.6404511490    0.7744714133
 C    1.8335452229    0.2835624983    1.8574475796
 C    1.3889838649    1.4305019511    2.6426978861
 C    1.0262478564    2.3769077203    3.2902309626
 C    0.7201247065   -0.4658762680    1.1163382318
 H    1.0344230537    2.0469435856   -0.4756374914
 H   -0.2131850831    1.6094146844   -1.6391793496
 H   -0.6591364678    2.1243556683   -0.0068005562
 H   -0.8710078027   -0.3840681012   -0.3373541975
 H    1.0345055972   -1.8529788485   -0.6546565156
 H    3.3571005435   -1.1889384266   -0.3311954985
 H    2.8476915065    0.1360484782   -1.3670406890
 H    3.9112565656    0.5622728793    1.1825816177
 H    2.7748857249    1.6772609872    0.4594968300
 H    2.2816532418   -0.4406929162    2.5513164190
 H    0.7022103421    3.2102188871    3.8625874238
 H    0.1237522307   -1.1433342650    1.7180745875