18

 C    0.0492398089    1.4777680174    0.0096977824
 O    1.2284186446    0.6414218468   -0.0066354116
 C   -0.0396296139    0.0253406248    0.0026709184
 C   -0.5818108909   -0.9648502161    1.0416380035
 C   -1.7360962952   -1.1781816256    0.0130566910
 C   -0.6025602214   -0.9535301428   -1.0359874925
 C    0.3045094259   -2.1808305021   -0.7975809250
 C    0.3201817657   -2.1893822815    0.7718051455
 H   -0.1082736707    2.0333741545    0.9334150722
 H   -0.1266278510    2.0433891686   -0.9045809329
 H   -0.7672388653   -0.6822361984    2.0773473422
 H   -2.2299474555   -2.1531498926    0.0126765458
 H   -2.4738617767   -0.3733879307    0.0248100343
 H   -0.8086056725   -0.6596684124   -2.0646460841
 H   -0.1212701451   -3.0946393867   -1.2208977277
 H    1.3015725664   -2.0387046529   -1.2216606692
 H    1.3255305358   -2.0517772298    1.1774121139
 H   -0.0971585590   -3.1077960105    1.1935579937