21

 C   -0.2098648666    1.6006180807    0.2358641761
 C   -0.2171124571    0.0901695883    0.1969096653
 C   -1.4656141446   -0.5413799496   -0.3896174325
 O   -1.5817680564   -0.2358977986   -1.7705843373
 O    0.9903826752   -0.5186322217   -0.3365357557
 C    0.6920875356   -0.7022903980    1.0394000983
 C    1.5926168462   -0.2292790027    2.1867798832
 C    1.0847024927   -1.4485917759    3.0131653885
 C    0.4861514583   -2.0653242725    1.7136264040
 H    0.7794750430    1.9827591009    0.4941383386
 H   -0.4950050721    1.9940247845   -0.7441040074
 H   -0.9332764406    1.9708468852    0.9710963778
 H   -1.4490521956   -1.6271300184   -0.2236098075
 H   -2.3630684571   -0.1377176435    0.0919107183
 H   -0.7624387643   -0.5391541812   -2.1798130917
 H    2.6496719017   -0.3130797376    1.9181436255
 H    1.4115129505    0.7685287721    2.5931311305
 H    1.8441295485   -2.0392894420    3.5275186171
 H    0.3126805805   -1.1694162652    3.7336870177
 H   -0.5293095646   -2.4646163801    1.7656644345
 H    1.1379768170   -2.8235551146    1.2696603867