16

 O   -0.1042012223    1.4789751047   -0.0878812155
 C   -0.0088454238    0.0779596529   -0.0944507590
 C   -1.3320534153   -0.6668705836   -0.1153381398
 C   -1.7591371346   -0.8122008565   -1.5680929099
 C   -0.7082251700   -0.1156356925   -2.4340200386
 C    0.3381609069   -0.6572420407   -1.4276916337
 C   -0.7138179818   -1.7589694542   -0.9891221002
 C   -0.6614801025   -3.1597697003   -0.8346816065
 N   -0.6024123358   -4.3111748127   -0.7166197837
 H    0.7730496617    1.8485334748    0.0543899863
 H    0.6214293090   -0.2957080689    0.7227140560
 H   -2.0262727513   -0.8151501398    0.7007407020
 H   -2.7794380542   -1.0682365717   -1.8205166590
 H   -0.6172268027   -0.5971120481   -3.4099551094
 H   -0.7678408362    0.9703715692   -2.5391202366
 H    1.3687908229   -0.8471245326   -1.7166323724