21

 C   -0.0385143317    1.5737596826    0.0619533764
 C    0.0571638276    0.0459029658    0.0538262978
 C    0.7096191693   -0.5047562611    1.3245052343
 C   -1.3160751737   -0.5863494804   -0.1732647685
 O    0.8172257748   -0.4005583266   -1.1317829053
 C    2.0877534103   -0.0596151025   -1.3227230467
 O    2.7760987778    0.6271846871   -0.5991335979
 C    2.6373893821   -0.6470954096   -2.6154644670
 O    3.9738848944   -0.2774973961   -2.7987464127
 H    0.9390207485    2.0323956408    0.2108906626
 H   -0.4609684298    1.9346215978   -0.8806958065
 H   -0.7015252305    1.8910487258    0.8727708274
 H    0.0763938295   -0.2732038277    2.1865317834
 H    0.8096909591   -1.5925440607    1.2613547619
 H    1.6945186869   -0.0671086120    1.4873749271
 H   -1.7568635198   -0.2267360845   -1.1069187014
 H   -1.2355539751   -1.6754023372   -0.2262990259
 H   -1.9876243513   -0.3275536702    0.6500178250
 H    2.5243400064   -1.7406671196   -2.5706710098
 H    2.0057185670   -0.2991990017   -3.4464824315
 H    4.1957728482    0.2687599100   -2.0293270628