20

 C    0.0274960253    1.3921831075   -0.3113148071
 O    0.0131101100    0.0980268927    0.2672511629
 C   -1.2167058950   -0.5581972608    0.1429105012
 C   -1.5332563437   -1.2721822201   -1.1963483715
 O   -1.6714261624   -2.5381819989   -0.5198874328
 C   -1.2107132510   -1.9780281492    0.7278789214
 C    1.4001928950    1.9823236723   -0.1464711019
 C    1.5424622658    3.4464100864    0.0521597849
 N    1.8255917790    2.5149296399    1.1545230476
 H   -0.2351243768    1.3393369351   -1.3809375555
 H   -0.7240353056    2.0361964529    0.1790042356
 H   -2.0377373681    0.0775731530    0.5042460851
 H   -2.4515819038   -0.9850106309   -1.7210544445
 H   -0.6878975188   -1.2644970353   -1.8978306411
 H   -0.2014781437   -2.3164031175    0.9936057197
 H   -1.9001324917   -2.1843519992    1.5535938558
 H    2.1853348017    1.4447622879   -0.6733378266
 H    2.4091074983    3.9664067804   -0.3451230573
 H    0.6356014954    4.0457814150    0.0888386397
 H    1.0454592599    2.4925128387    1.8075834144