17

 O   -0.0462732070    1.3739813870   -0.6559278096
 C    0.0398702670    0.2250623372    0.1676789909
 C   -1.3002585759   -0.4688638145    0.2582430309
 N   -1.7199957883   -1.2028896144   -0.9516766031
 C   -1.4993749288   -1.9414026170    0.2976106292
 C   -0.3378945961   -2.9267391940    0.3023097131
 O    0.3581901411   -2.9603951987    1.5339449492
 C   -0.8213036525   -4.2722341108   -0.0761770798
 N   -1.2276134489   -5.3231831773   -0.3323678763
 H   -0.3345949321    1.0670592892   -1.5233976932
 H    0.8122563035   -0.4679816087   -0.1920498625
 H    0.3472176799    0.5747566493    1.1581003894
 H   -2.0646008437    0.1206235761    0.7621449396
 H   -2.7127656068   -1.0883907091   -1.1330586559
 H   -2.3758916199   -2.2964070754    0.8381206827
 H    0.3906547028   -2.6113807754   -0.4483945138
 H   -0.2383120742   -3.2907045235    2.2156887590