15

 C    0.0526811149    1.5678127578   -0.0034332876
 C    0.0283950562    0.0285695948    0.0354849171
 N    0.7953972621   -0.4242174754    1.1927971483
 C   -1.4534544537   -0.5004777307    0.0018391514
 C   -2.1749099391   -0.1089510430    1.2078416678
 N   -2.7063025015    0.2127284621    2.1824849638
 C    0.6810654739   -0.5014497541   -1.1790810153
 N    1.1561089191   -0.9292568241   -2.1409372767
 H    1.0858697963    1.9176747279    0.0066358217
 H   -0.4464787246    1.9468559691   -0.8981705907
 H   -0.4625878386    1.9627954768    0.8770457483
 H    0.3732316165   -0.0617085015    2.0432760318
 H    0.7991556547   -1.4376677776    1.2585501222
 H   -1.9779783633   -0.1192798791   -0.8806305124
 H   -1.4474900729   -1.5929294331   -0.0712082898