19

 O   -0.7352605196    0.8707203713    0.8031501592
 C   -0.0084962539    1.0704364896   -0.1347271872
 C    1.2687455714    1.8779577681   -0.0882004735
 C    1.3056876215    2.9566486480   -1.1973685486
 C    2.5766247029    3.6683466681   -1.2404933091
 C    3.6375828186    4.2409011765   -1.2525364978
 C    4.8975418698    4.9267912225   -1.2681855225
 C    5.7500558712    4.9419538658   -2.5276603944
 C    5.0686925960    6.2010535208   -2.0805516967
 H   -0.2447299432    0.6477848289   -1.1411276442
 H    1.3778755730    2.3220138046    0.9038060597
 H    2.1073136665    1.1864935481   -0.2467986364
 H    1.1130567882    2.4802125791   -2.1684693711
 H    0.4817670973    3.6644072455   -1.0378138893
 H    5.4464006199    4.8919450561   -0.3313713391
 H    6.8235844574    4.8585621158   -2.4013223271
 H    5.3538234565    4.4287209703   -3.3955694523
 H    4.2093744347    6.5438156925   -2.6442257700
 H    5.6695544017    6.9905793584   -1.6435739495