25

 C    0.9667789654   -0.4785110360    0.7953656971
 C    0.2511853263   -0.4522907725   -0.5615190362
 C   -1.2479378157   -0.7270454767   -0.4749175723
 C   -2.0650235873    0.4772389607   -0.0109789855
 C   -2.3267948308    1.4767756721   -1.1464450835
 O   -1.7978552978   -1.4264437225   -1.6112181202
 C   -1.7599022411   -2.1203215972   -0.3516361029
 C   -0.8275410691   -3.3180700532   -0.2984995752
 C   -3.1201150630   -2.4240184798    0.2513260545
 H    2.0297576888   -0.2469385057    0.6772919983
 H    0.5472879554    0.2559842016    1.4904808205
 H    0.8889930436   -1.4623900130    1.2685190438
 H    0.3962537384    0.5294773433   -1.0290488487
 H    0.7056974580   -1.1741381766   -1.2439513321
 H   -3.0214919727    0.1604162582    0.4097409693
 H   -1.5242325918    0.9731385832    0.8040612078
 H   -2.9290525309    2.3179092435   -0.7903858004
 H   -1.3967893297    1.8852144727   -1.5547731417
 H   -2.8630390681    0.9870808571   -1.9635163743
 H    0.1616464837   -3.1052622576   -0.7024881570
 H   -0.7133123888   -3.6695587682    0.7329077386
 H   -1.2581793653   -4.1408481243   -0.8801006875
 H   -3.4987941131   -3.3697921133   -0.1518644272
 H   -3.0532698756   -2.5322760416    1.3397010287
 H   -3.8522446688   -1.6511958441    0.0181072963