20

 C   -0.0833062311    1.5672251870    0.0272673517
 N    0.0451186267    0.1097172254    0.0035375018
 C   -0.9297285944   -0.8166091171    0.7061383974
 C    0.1500510094   -1.9081568743    0.4558400058
 C    0.8765008629   -0.6544959781    1.0176975534
 C   -0.2766449176   -0.5405006543    2.0975929938
 O   -0.5631745393    0.7129180029    2.6598817348
 C   -0.3856020477   -1.5632690542    3.2385768786
 O    0.4226384694   -1.0506948132    4.3049459485
 H   -0.2284327831    2.0320061808    1.0035925759
 H    0.8199658233    1.9807694161   -0.4365694544
 H   -0.9253693627    1.8344104541   -0.6216014093
 H   -1.9924075526   -0.8392413674    0.4539302428
 H    0.1272325550   -2.8234084640    1.0437206082
 H    0.3452133746   -2.0873511294   -0.5991010174
 H    1.9487859071   -0.4864530809    1.1337719150
 H   -0.1608786104    0.6923068296    3.5398717598
 H   -1.4395433812   -1.6222630672    3.5465626294
 H   -0.0481651239   -2.5647416958    2.9601654467
 H    0.1504622457   -1.4703558398    5.1253594275