18

 C    0.0835196354    1.5362560314    0.3707609796
 C    0.0256604632    0.0755769638   -0.1108815301
 C   -1.3546912018   -0.4793037108   -0.1494307603
 C   -2.1628002440   -0.8942444103   -1.1705225412
 O   -1.8209392455   -0.8877910204   -2.4815955781
 C   -2.8017040001   -1.3832901452   -3.3763807962
 C   -3.3635044178   -1.2997087361   -0.5246289753
 N   -3.2876936035   -1.1417617335    0.7767538833
 O   -2.0243385458   -0.6250224804    1.0147541626
 H    1.1183662964    1.8896565239    0.3962724516
 H   -0.4858997607    2.1905997055   -0.2958207762
 H   -0.3357905990    1.6303945438    1.3759934410
 H    0.4398861306   -0.0092380927   -1.1201847076
 H    0.6468908421   -0.5493302973    0.5428694018
 H   -2.3714989215   -1.3132471219   -4.3764093108
 H   -3.0480404251   -2.4315875827   -3.1616634076
 H   -3.7208505579   -0.7838633202   -3.3361550038
 H   -4.2710256250   -1.6982090269   -0.9532425524