15

 N    0.0605878355    1.3277723720    0.1862987706
 C   -0.0292758776   -0.0129544169    0.0381178896
 C   -1.1545855046   -0.7829462095    0.0425295464
 C   -0.7873577704   -2.1699344940   -0.1327463837
 O   -1.4677593813   -3.1466389954   -0.3949797834
 C    0.7456055286   -2.2753277153    0.0098605345
 O    1.2784219294   -3.1702378401   -0.9338103867
 C    1.2323595705   -0.8288665343   -0.1572384438
 H    0.9262015268    1.7987000268   -0.0131330235
 H   -0.7704006112    1.8951665329    0.1940445782
 H   -2.1741964371   -0.4242667178    0.0947085518
 H    0.9596072532   -2.6167701053    1.0371006859
 H    0.5572626736   -3.7949112034   -1.1085582699
 H    1.6229020928   -0.6925811416   -1.1724043606
 H    2.0190834617   -0.5369316080    0.5464139244