19

 C   -0.9235558377    1.1220139358    0.8655846955
 O   -1.1517319459   -0.2440258723    0.5961770546
 C   -0.4304269755   -0.7132620068   -0.5129659244
 C   -0.7356223783   -2.1850299808   -0.7872721434
 O   -0.1069142859   -2.7766717690   -1.6325019045
 C   -1.8358861652   -2.8333985426    0.0351335376
 C   -2.1675545615   -4.2526245267   -0.4350593320
 C   -2.9776554166   -5.0057490210    0.5922648254
 O   -4.0308523563   -5.5499225728    0.3849440728
 H   -1.5277375220    1.3869278810    1.7358305007
 H    0.1355633822    1.3190259961    1.0909874985
 H   -1.2196711131    1.7564683634    0.0162241255
 H   -0.6799617292   -0.1477448435   -1.4278032108
 H    0.6577704868   -0.6150163362   -0.3684387750
 H   -1.5016201342   -2.8212399033    1.0826812616
 H   -2.7141246224   -2.1783879609    0.0238154943
 H   -2.7070010000   -4.2488627727   -1.3850851041
 H   -1.2253140778   -4.7945197700   -0.5930214338
 H   -2.5124521573   -5.0295721375    1.6077167915