22

 C    0.0961232192    1.3039879633    0.0510740720
 O    0.0251413125   -0.1004725348    0.0733091946
 C   -1.2983786107   -0.5835794177    0.0129424070
 C   -1.2549566228   -2.1058287748    0.0435224337
 C   -2.6469194504   -2.7146444203   -0.0179664492
 O   -2.4915447613   -4.1391126113    0.0167763371
 C   -3.6213478474   -4.8734721518   -0.0281410593
 C   -3.2840677618   -6.3424964514    0.0171160438
 N   -4.7637658318   -4.3222318455   -0.0979921628
 H    1.1523266491    1.5797899585    0.1014451146
 H   -0.3363693986    1.7221581436   -0.8722098632
 H   -0.4298601228    1.7550577144    0.9079551475
 H   -1.8879252044   -0.1956777139    0.8625495866
 H   -1.7951843566   -0.2285974766   -0.9074079859
 H   -0.6566437300   -2.4645239609   -0.8006654793
 H   -0.7486811202   -2.4318264575    0.9582394633
 H   -3.2718999389   -2.3996810614    0.8253559403
 H   -3.1798237557   -2.4325416046   -0.9330844360
 H   -2.7297458089   -6.5738489467    0.9317730458
 H   -4.1875909447   -6.9530710572   -0.0179642358
 H   -2.6390511585   -6.6071380894   -0.8262917285
 H   -5.4976051554   -5.0263556244   -0.1228758262