17

 N    0.1190290014    1.1207092404    0.8347874756
 C    0.0790894043    0.1251283200   -0.1014694412
 O    0.8584522081    0.0564432911   -1.0290766831
 C   -1.1002905372   -0.8161790803    0.0660535025
 C   -1.1526722090   -2.2995609650   -0.1216668350
 C   -0.0887147749   -3.0853941642    0.6665582455
 C    0.8257871009   -2.2861631871    1.5010170268
 N   -0.5518924796   -2.5229977374    1.9874117103
 C   -1.5553082202   -1.6913896039    1.2123500175
 H    0.8763229397    1.7838343888    0.7968487556
 H   -0.4500602615    1.0795826525    1.6624985225
 H   -1.9817096939   -0.3548793833   -0.3826140745
 H   -1.7743650644   -2.7673656342   -0.8730113857
 H    0.0245230095   -4.1571611127    0.5413871886
 H    1.5489906956   -2.8449262497    2.0894019258
 H    1.1644929493   -1.3005513966    1.2161023343
 H   -2.5306752382   -1.5816338784    1.6706131046