18

 O   -0.3192282704    0.0879902550    0.1652042329
 C   -0.0112937888    1.2500183753    0.1144157582
 C    1.3879275255    1.7585406085   -0.1872233250
 C    1.4018692430    2.7468602369   -1.3103528629
 C    2.2926449605    3.8737802416   -1.6803797351
 C    2.3081269804    3.4657616782   -3.1514405886
 C    0.9806077632    2.7231076971   -2.8425265924
 C    0.0457334904    3.8807256114   -2.4645005801
 N    0.8718395379    4.1413170152   -1.2382108946
 H   -0.7577488295    2.0568379396    0.2912258082
 H    1.7558490552    2.2687905304    0.7141228937
 H    2.0370152046    0.9009097447   -0.3900779607
 H    3.0648861437    4.3547285026   -1.0939988585
 H    2.2832142174    4.2443335661   -3.9213436189
 H    3.1302931023    2.7735612289   -3.3495457386
 H    0.6604877541    1.8693915733   -3.4364610755
 H   -0.0395278041    4.7241820176   -3.1595357230
 H   -0.9501501854    3.5612145575   -2.1465482293