17

 O    0.0404914719    1.3990904914   -0.3656119625
 C    0.0968329608    0.0409563529    0.0574741291
 C   -1.3237038221   -0.4757613410    0.0650281165
 C   -1.9788342649   -0.8524289330   -1.2910160851
 O   -1.0841305357   -2.0277387286   -1.3839576335
 C   -1.5671836040   -2.0070515205    0.0128199639
 C   -3.0091880438   -1.7634363627   -0.5443867549
 C   -4.0623345253   -1.2118967009    0.2782282092
 C   -4.9503141872   -0.7662779472    0.9560990495
 H    0.9411834327    1.7302369194   -0.4256822617
 H    0.7060957806   -0.5711224734   -0.6189251152
 H    0.5199917321   -0.0416128862    1.0719677377
 H   -1.9597531330    0.0870643442    0.7516510561
 H   -2.1264423814   -0.2515979250   -2.1873325407
 H   -1.2264534913   -2.7993563094    0.6802495382
 H   -3.3476786430   -2.5928436614   -1.1685499581
 H   -5.7326744363   -0.3689981885    1.5543707714