19

 C   -0.0449998888    1.6787218843    0.2156736171
 C   -0.0414051956    0.1580285474    0.0164770417
 C    0.7400423811   -0.5792001645    1.1379262342
 O    0.6620784760   -1.9960249612    0.9663220814
 C    2.1310145941   -0.1366030825    1.2267830583
 C    3.2887112217    0.1879275421    1.2529595080
 C   -1.4819652851   -0.3836533013    0.0440036708
 C   -1.8953722613   -1.3002765052   -1.0842035499
 O   -2.2243192653   -0.0878539870    0.9518451012
 H    0.9749854089    2.0671711499    0.2641773139
 H   -0.5627519117    2.1763708862   -0.6097907924
 H   -0.5692277888    1.9329901414    1.1406147143
 H    0.4331892671   -0.0975216743   -0.9382860132
 H    0.2234972232   -0.3723687765    2.0826563050
 H    1.3657275310   -2.2533242617    0.3605980581
 H    4.3089133355    0.4802589810    1.3014501062
 H   -1.7433182482   -0.8126587146   -2.0539948029
 H   -1.2506240694   -2.1859841881   -1.0624270311
 H   -2.9393216344   -1.5956741553   -0.9727905405