18

 N   -0.0050716940    1.1801613868   -0.1881626865
 C    0.0072493117   -0.0590660050    0.0054038506
 O    1.0279561314   -0.9001985349    0.3921320419
 C    0.1251675852   -2.0511435168    0.4198646026
 C   -1.0432821470   -1.1548398792   -0.0499130370
 C   -2.2524260185   -0.9890938054    0.8693940184
 C   -3.2060734213    0.1152087418    0.3768798353
 C   -4.2897345793    0.4103964864    1.3865010519
 O   -5.4725391807    0.3686446348    1.1670891588
 H    0.9125351630    1.5978323922   -0.0243074088
 H    0.4593640994   -2.8285172244   -0.2705760623
 H    0.0394458508   -2.4514748485    1.4337825915
 H   -1.3646688115   -1.3687799121   -1.0733858075
 H   -2.7892188881   -1.9430486718    0.9364742690
 H   -1.9042348179   -0.7505516113    1.8828496196
 H   -2.6223125682    1.0338766846    0.2259772894
 H   -3.6755289125   -0.1545141298   -0.5737072392
 H   -3.9059418823    0.6822623427    2.3991381922