21

 C   -0.0347586673    1.5381035200   -0.0698547248
 C    0.0218753603    0.0102868261    0.0278399719
 C    0.7210168993   -0.5220773896    1.2913585121
 C   -0.0081976888   -0.1403044022    2.5863767566
 C    0.8864138268   -2.0391873428    1.1917458168
 O    1.6549449020   -2.4989793908    2.2836853623
 C    1.8254026853   -3.8940578572    2.2874835714
 H    0.9697467546    1.9737295957   -0.0238163126
 H   -0.4895671195    1.8521091955   -1.0145851954
 H   -0.6244497452    1.9776128660    0.7400863528
 H   -0.9982907231   -0.3960452844   -0.0164920465
 H    0.5428901649   -0.3813754120   -0.8557174730
 H    1.7344849238   -0.0976378751    1.3275416369
 H   -1.0494154506   -0.4861976466    2.5625047371
 H    0.4807958947   -0.6026349930    3.4466295447
 H   -0.0198704899    0.9420365413    2.7416369423
 H   -0.1043123073   -2.5299230125    1.1893109663
 H    1.3809879798   -2.3073941235    0.2418652815
 H    0.8620803102   -4.4252631045    2.3541136644
 H    2.3453403728   -4.2463630767    1.3818465365
 H    2.4296842971   -4.1498464237    3.1615900387