20

 C   -0.0215566293    1.3215985226    0.0591287201
 O   -0.0605722602   -0.0858324676   -0.0730097549
 C    0.6424135179   -0.5752779008   -1.1618383413
 C    2.1899996093   -0.4504841235   -1.3245632626
 C    1.9826301371   -1.6887441673   -2.1967920647
 C    0.7918387760   -2.1495904535   -1.3187886395
 C    0.0967851442   -2.5475133861   -2.6132279107
 N    0.8736353298   -1.4229606523   -3.2762478097
 C    0.2110039972   -0.2558066860   -2.6145859125
 H    1.0086326914    1.6912779712    0.1644045724
 H   -0.4876867908    1.8293134975   -0.7974222762
 H   -0.5803414312    1.5730264077    0.9631886182
 H    2.6135058127    0.4616803227   -1.7545479041
 H    2.7228037261   -0.7291694011   -0.4106401619
 H    2.7801837472   -2.3302297231   -2.5640140014
 H    0.8747250550   -2.7383118009   -0.4052572465
 H    0.4405509642   -3.5130388520   -2.9955018873
 H   -0.9908511903   -2.4772525133   -2.7140447478
 H   -0.8689173549   -0.2780519817   -2.7806589787
 H    0.6108420985    0.6882521877   -2.9937516908