19

 C   -0.0263465021    1.6848209669    0.4166317792
 N    0.0152429093    0.2367109134    0.5571524550
 C    1.0506218469   -0.5987589437   -0.0268747029
 C    2.4469095278    0.0472811567    0.0417467359
 C    2.2821997282    0.1848057682    1.5892151038
 C    0.8928817960   -0.4707335398    1.4718337237
 C    0.2333547802   -1.3920965299    2.4661561345
 O   -0.9451438931   -1.9550042567    1.9365583865
 H    0.9496192130    2.1844175633    0.4719972186
 H   -0.4798705656    1.9309130029   -0.5484229790
 H   -0.6633296408    2.0975877164    1.2049230266
 H    0.7456743327   -1.3976149187   -0.6945119710
 H    3.2366750960   -0.6569690624   -0.2270914412
 H    2.5923819786    0.9657460915   -0.5344064032
 H    2.9890932734   -0.4427795175    2.1366933130
 H    2.3124533493    1.1916157717    2.0163004980
 H    0.9146373680   -2.2113295740    2.7288551732
 H    0.0323683716   -0.8312063994    3.3977014929
 H   -1.2957177094   -1.2737994290    1.3423883965