19

 O    0.1129641775    1.5678573761   -0.0835429837
 C    0.0376242014    0.1725160963   -0.0108104080
 C    0.2031738452   -0.5844774278    1.3428806200
 C   -0.9142979939    0.0318651026    2.2036859969
 C   -2.0760466116    0.0396180655    1.1487754930
 C   -1.3312014591   -0.5742560711   -0.0503803985
 C   -0.5671677465   -1.7614825055    0.6410552664
 C    0.2142843891   -2.6192724132   -0.2258060853
 C    0.8526904435   -3.3522712308   -0.9346223997
 H   -0.4785304351    1.9526839686    0.5705750964
 H    0.7225720668   -0.2088585339   -0.7679272684
 H    1.1775017415   -0.7443113142    1.8027641898
 H   -1.1467712515   -0.5767830143    3.0811757505
 H   -0.6536757360    1.0323301043    2.5645335247
 H   -2.9315492849   -0.5648699496    1.4605349367
 H   -2.4529554191    1.0443371859    0.9307235827
 H   -1.8837926312   -0.7239203133   -0.9769862130
 H   -1.1824866570   -2.3669407370    1.3142506397
 H    1.4175717707   -3.9954125685   -1.5627174102