17

 C    0.3990703847    0.9809238845   -0.5379784921
 C   -0.2714166519   -0.2309588862    0.1043800878
 C    0.3935794084   -0.6447138559    1.4185433951
 O    0.3415158427    0.3845556985    2.3869755968
 O   -1.6366005714    0.0543690933    0.4741200135
 C   -2.5681606760    0.0800041808   -0.5726558382
 C   -2.7930446349   -1.2504627445   -1.1757113606
 N   -2.9550708786   -2.2932135036   -1.6460226252
 H    1.4150282656    0.7203005832   -0.8504919196
 H   -0.1361655238    1.3259722009   -1.4273265733
 H    0.4573871088    1.7984688449    0.1839270816
 H   -0.2578886528   -1.0910156028   -0.5808680100
 H   -0.0867287877   -1.5650256087    1.7819762155
 H    1.4517617735   -0.8609284632    1.2408799098
 H   -0.5911828613    0.5980651190    2.5046566960
 H   -3.5131478547    0.4349491455   -0.1498492574
 H   -2.2848693407    0.7747399244   -1.3760015896