16

 C   -0.1087698285    1.5196461566   -0.2283017121
 C   -0.0524749762    0.0414506830    0.0458618365
 O    1.2102355250   -0.6139268674   -0.0852826213
 C    0.6221426552   -0.5688252963    1.2157525756
 C    1.3207335990    0.1765474462    2.2827829825
 N    2.1374866967    1.2160963743    2.0742998737
 N    2.5159550717    1.5544198696    3.2983694578
 N    2.0321626873    0.8316646374    4.2975225374
 C    1.2636698334   -0.0587197798    3.6711921492
 H    0.7156582517    2.0429604736    0.2577724284
 H   -0.0523301156    1.7004534717   -1.3069024852
 H   -1.0579840928    1.9323515016    0.1306092374
 H   -0.8820646578   -0.5360479446   -0.3698671596
 H    0.2312832159   -1.5272450029    1.5620923691
 H    3.1637212650    2.3093923307    3.4577406741
 H    0.7191701199   -0.8084679937    4.2229393863