14

 O    0.0235731203    0.0703974273    0.0854045461
 C   -0.0053534925    1.2627378929    0.0847980091
 C   -1.0771649972    2.3012446551   -0.0580985520
 C   -0.0871045781    3.1792611469   -0.7804956096
 N   -0.5791210672    3.5855801890    0.5372829297
 C    0.7581251774    3.2588792703    1.1523448641
 C    1.0917046457    2.3729082215   -0.0715045868
 C    2.4079498569    2.0810053525   -0.5331119981
 C    3.5197686696    1.8335027636   -0.9193161967
 H   -2.1425459176    2.1932848506   -0.2038332010
 H   -0.1756918775    3.7183304355   -1.7129947755
 H    1.3464049533    4.1768436886    1.1955762871
 H    0.7213387962    2.7763318222    2.1344099263
 H    4.4997868808    1.6069756338   -1.2603479628