22

 C   -0.2205397663    1.4230698162    0.1079186080
 C   -0.1488008219   -0.0877928499   -0.1256318105
 C    0.9858419872   -0.4913772022   -1.0796255643
 C    1.0251143004   -1.9857224309   -1.2981914407
 N    0.1324052503   -2.5565957788   -2.2997878916
 C    1.5833260229   -2.6455641555   -2.5414905126
 C    2.1678188876   -1.8818500667   -3.7086621047
 C    2.1895722972   -3.9843288265   -2.2723818730
 O    1.6345355544   -4.8598731307   -1.6488092439
 H    0.7100893947    1.8030071002    0.5443420328
 H   -0.3882831450    1.9607789825   -0.8318043407
 H   -1.0370353031    1.6814211543    0.7892144983
 H   -0.0162729556   -0.6031435471    0.8347072537
 H   -1.0980795581   -0.4473272889   -0.5401489959
 H    0.8483411046    0.0209969179   -2.0368880563
 H    1.9492051553   -0.1587872985   -0.6701811013
 H    1.1614369127   -2.5715793698   -0.3889532355
 H   -0.1810774789   -3.4769300583   -1.9883454842
 H    1.7117105589   -0.8967295383   -3.8072377300
 H    3.2487709922   -1.7497805847   -3.5870244243
 H    1.9967345061   -2.4200986209   -4.6472173153
 H    3.2085510445   -4.1364583835   -2.6903796879