17

 O    0.1563225396    1.3373079779    0.3938833114
 C   -0.0044072589    0.0218424441   -0.1249846008
 C   -1.4098134559   -0.4762805047   -0.0802061432
 C   -2.2759998282   -0.9000283245    1.0989790025
 C   -3.5575790230   -0.4902027759    0.3177372263
 C   -2.6903716366   -0.0525483759   -0.8745309322
 C   -3.2191312420   -1.4788351137   -0.7704545963
 O   -4.0991530812   -2.1732391275   -1.5533378922
 C   -1.9256464120   -1.9099719417    0.0129188703
 H   -0.4344082541    1.9177916696   -0.0966408855
 H    0.3827063734   -0.0433350846   -1.1558040252
 H    0.6288706742   -0.6217453098    0.4965031871
 H   -2.0405564667   -0.9188905620    2.1551079498
 H   -4.5215503862   -0.1130405808    0.6294366260
 H   -2.8882734166    0.7158447661   -1.6112185607
 H   -3.6961593934   -2.3138758669   -2.4184131625
 H   -1.3652475323   -2.8335772497    0.0841354352