19

 C    0.1235149517    1.3088896638   -0.1310098730
 O   -0.0672550285   -0.0790947277    0.0908773035
 C    0.6005337532   -0.5910075066    1.2323020817
 C    0.0883959055   -2.0174306630    1.4858066549
 C    1.0211208747   -2.9343276600    0.6617391049
 C    2.3983051867   -2.3027351596    0.9017837099
 O    3.4069746852   -2.6540342012   -0.0007820543
 C    2.0904093918   -0.8079422051    0.8789717856
 O    2.8824887544    0.0233642732    0.5030731125
 H    1.1701299918    1.5510422297   -0.3427228608
 H   -0.4944973670    1.5730798623   -0.9922985978
 H   -0.2062311018    1.8949843312    0.7406289106
 H    0.4750097615    0.0856606836    2.0901551269
 H    0.1722685513   -2.2529976508    2.5524415612
 H   -0.9621027617   -2.1021758705    1.2030492518
 H    0.9725865896   -3.9821982658    0.9637073077
 H    0.7807829304   -2.8707531844   -0.4042675901
 H    2.7019882544   -2.5347518361    1.9428539059
 H    3.8803592869   -1.8327134132   -0.2011496609