17

 C   -0.0405699764    1.4132612492   -0.3398232976
 C   -0.0496316443   -0.0487895408    0.1253259030
 N   -1.3956668902   -0.5964847737    0.1210313068
 C   -1.8579867272   -1.1646183000   -0.9036207683
 O   -1.0417233113   -1.2667595965   -2.0801620653
 C   -1.4873211464   -1.9325003025   -3.1487954733
 C   -2.7088187899   -2.4934030614   -3.1929421975
 C   -3.5188733612   -2.3189318331   -2.0168888540
 N   -3.1319305851   -1.6990719339   -0.9517676061
 H    0.9633969470    1.8390250382   -0.2440854820
 H   -0.3470445033    1.4900872581   -1.3874310381
 H   -0.7304804444    2.0109685741    0.2624697886
 H    0.6408025747   -0.6349731933   -0.4956523766
 H    0.3145439383   -0.0970479534    1.1572438476
 H   -0.7574536797   -1.9520656937   -3.9520301627
 H   -3.0589612088   -3.0256186478   -4.0654595557
 H   -4.5302922317   -2.7254600994   -2.0033058886