23

 C    0.2495772961    1.3174527156    0.4054075761
 C   -0.0066981118   -0.1288165887   -0.0289714603
 C   -1.4834690793   -0.3906966693   -0.3038609712
 O    0.6877772390   -0.4563516980   -1.2295566824
 C    2.0797745810   -0.6472694254   -1.0895661041
 C    2.6184793041   -1.1401289451   -2.4298089108
 C    2.4068486584   -0.1259004725   -3.5692408964
 C    4.0796467746   -1.5207215399   -2.3382323907
 O    4.7567620579   -1.4456781366   -1.3437294759
 H    1.3068808889    1.4987528873    0.6173785959
 H   -0.0680731967    2.0096857272   -0.3812638957
 H   -0.3137638206    1.5467685273    1.3155063235
 H    0.3365897077   -0.8069134987    0.7708109558
 H   -1.8403410817    0.2613358870   -1.1076459987
 H   -1.6368538129   -1.4282718838   -0.6118186862
 H   -2.0840774383   -0.1975682559    0.5898020998
 H    2.5951518559    0.2829826996   -0.8073564563
 H    2.2965918939   -1.3844277062   -0.3018467657
 H    2.0783977681   -2.0605162517   -2.7021516516
 H    2.9344406599    0.8110917284   -3.3602126446
 H    2.7733140006   -0.5165249223   -4.5238438320
 H    1.3431496134    0.0962046931   -3.6681012302
 H    4.5144635419   -1.8864930813   -3.2981496582