16

 C    0.0232495893    1.3728137538   -0.0335137822
 O    0.0159316842   -0.0427085140   -0.0240003493
 C   -1.2123438304   -0.6091085506    0.0059624144
 C   -2.4517898907   -0.0398535584    0.0283378331
 O   -3.4008509735   -1.0252980895    0.0553662906
 C   -2.7410850950   -2.2106391125    0.0494241777
 C   -1.3936404634   -2.0366895971    0.0198898954
 C   -0.3118559150   -3.0680632177    0.0040799435
 H    1.0685843637    1.6842456807   -0.0576684364
 H   -0.4962722778    1.7644592117   -0.9186610021
 H   -0.4585319076    1.7762651886    0.8675351035
 H   -2.8160140854    0.9716088771    0.0291308158
 H   -3.3599801129   -3.0932838079    0.0687779185
 H    0.3111622361   -2.9798972511   -0.8928685416
 H    0.3561597848   -2.9592172122    0.8656133995
 H   -0.7317592364   -4.0772371308    0.0265810195