15

 O    0.2060782167    1.4001710632   -0.0246649215
 C    0.0112755497    0.0173875302   -0.0277713708
 C    0.3058883661   -0.7477840672    1.2795965062
 N   -0.6489903612   -0.1713285730    2.2569139737
 C   -1.0912006188   -1.2655351782    1.3426558021
 C   -1.4397044739   -0.5487462695    0.0550915761
 C   -2.6990118937   -0.0243201321   -0.4576418296
 O   -2.0601817635   -1.1760925067   -1.0468329678
 H   -0.1611921836    1.7112507787    0.8140030378
 H    0.5282051722   -0.3984566299   -0.8965583278
 H    1.2349544462   -1.2009805137    1.6007313934
 H   -0.4531856420   -0.5893360244    3.1653290076
 H   -1.4727070131   -2.2057576127    1.7184252261
 H   -3.6292376595   -0.2278113032    0.0702126895
 H   -2.6899401418    0.8733449186   -1.0732277248