18

 O    0.1354353865    1.4291402797   -0.1614719812
 C    0.0602722578    0.0253332586    0.0122629202
 C   -1.3716071003   -0.5040680968   -0.0728729394
 C   -1.4412442671   -2.0360450127    0.0509368749
 C   -2.8469557869   -2.5418552676    0.0862220867
 N   -3.7823700881   -2.2110694664    0.9629107142
 C   -4.8617761768   -2.9313336812    0.5514554884
 N   -4.6661424593   -3.6854095795   -0.5167258569
 N   -3.3666506424   -3.4196342460   -0.7997866790
 H   -0.3616354579    1.8412182905    0.5526032345
 H    0.6707767400   -0.4036028776   -0.7909298671
 H    0.5182866944   -0.2883383834    0.9652642391
 H   -1.9790599157   -0.0647580705    0.7274102445
 H   -1.8152435014   -0.1816802845   -1.0214758776
 H   -0.9017285092   -2.5091320914   -0.7783739899
 H   -0.9358291143   -2.3497197805    0.9728100873
 H   -5.8174961920   -2.8995191190    1.0530987751
 H   -2.9257233975   -3.8652177216   -1.5878470737