19

 C   -0.0443409550    1.5161253237   -0.1221175557
 C    1.3420426575    2.0860284387    0.0748110934
 C    2.2101448814    1.5622050494    0.9398100036
 C    1.8749186326    0.3579019998    1.7900363678
 C    0.9911462819   -0.6355410753    1.0228386486
 C   -0.2026470728   -1.2759198240    1.7497015397
 O   -1.0789411118   -0.2104868722    2.1422897837
 C   -1.1616391571   -0.6966272650    0.7953684051
 C   -0.0384857307   -0.0142858195   -0.0025769252
 H   -0.7103722615    1.9282051461    0.6475303377
 H   -0.4551344712    1.8277039885   -1.0882429936
 H    1.6084023600    2.9726525281   -0.4941343805
 H    3.1855262862    2.0209791241    1.0773248608
 H    2.7891576805   -0.1300518731    2.1440126415
 H    1.3343336133    0.6941134966    2.6847451261
 H    1.6034837556   -1.3896752318    0.5213023325
 H   -0.2475655420   -2.1881122811    2.3343894517
 H   -2.1304085875   -1.0508313439    0.4606981837
 H    0.0915653307   -0.4777468391   -0.9841747907