16

 C    0.0172082641    1.4478558214   -0.0019636229
 N   -0.0141216129   -0.0048050183    0.0973136819
 C   -1.2158502403   -0.6631046567    0.0408202589
 N   -2.3321716883   -0.0110508330    0.0586207743
 C   -3.5571485825   -0.6994544490    0.0703609217
 O   -4.6166995532   -0.1033800060    0.1148642941
 C   -3.4831111210   -2.1712924950    0.0153163652
 C   -2.2908380270   -2.7862860288   -0.0085321238
 N   -1.1292120107   -2.0405299695   -0.0031503657
 H    1.0347956985    1.7855666302    0.2064952511
 H   -0.2935127236    1.8103266690   -0.9893903128
 H   -0.6639421296    1.8707499336    0.7367352406
 H    0.7774991641   -0.4877798638   -0.2984745625
 H   -4.4078851958   -2.7320206582    0.0012282020
 H   -2.1547847006   -3.8608319178   -0.0375692254
 H   -0.2393107812   -2.4980983680    0.1059081733