16

 O    0.4030433044    1.3261334194   -0.0811831899
 C    0.3302136657   -0.0705866021   -0.0529374339
 C   -1.1038363208   -0.5444327023    0.0141271716
 O   -2.0211951304    0.2557690902    0.0364453333
 C   -1.3743977476   -2.0299152727    0.0525328666
 N   -0.3909772752   -2.8370923656    0.0276963929
 N   -2.7369004975   -2.2967683540    0.1124407594
 C   -3.3377536674   -3.5319680682    0.1599390112
 N   -2.6784074907   -4.6229738007    0.1533430282
 H   -0.5114557987    1.6434133914   -0.0506354616
 H    0.7975268796   -0.5221062841   -0.9405478576
 H    0.8691295146   -0.4903069050    0.8092803822
 H   -0.7231456559   -3.8046332798    0.0589387629
 H   -3.3164959510   -1.4681854544    0.1205839696
 H   -4.4296718426   -3.4528386975    0.2030484588
 H   -3.3054228064   -5.4223730145    0.1939080464