23

 C    0.3150451488    1.6035308003    0.0085300311
 C    0.0267971155    0.1119043994   -0.0113622688
 C    0.6112609824   -0.6628951006   -1.2238986628
 C    1.3562201018   -1.8701701745   -0.5931333018
 C    0.8186238924   -1.8490113055    0.8501420410
 O    0.6108100957   -0.4829218249    1.1493455315
 C    1.1665185235   -3.1859045487   -1.3089581667
 C    2.0616712767   -3.5772282381   -2.4581055373
 C    2.1666570038   -4.3040139271   -1.1401157210
 H    1.3936208462    1.7835447010   -0.0435458409
 H   -0.1625015730    2.0977930422   -0.8433242477
 H   -0.0655265812    2.0570649228    0.9281571807
 H   -1.0641496492   -0.0476078776    0.0246258938
 H   -0.1844731510   -0.9975783212   -1.8960099180
 H    1.2884558943   -0.0354645112   -1.8101508069
 H    2.4284529459   -1.6439246051   -0.5543289080
 H   -0.1267189255   -2.4175026403    0.9138741349
 H    1.5135903517   -2.2588849020    1.5875601389
 H    0.1261022322   -3.4933455846   -1.3967271714
 H    1.6227660790   -4.0994180019   -3.3010155717
 H    2.8650810214   -2.8991975198   -2.7270537212
 H    3.0405803888   -4.1127398575   -0.5256139652
 H    1.7999766996   -5.3228073649   -1.0818194824