17

 O   -0.1225426405   -0.0023993613   -0.2327688666
 C    0.0407152976    1.1884056987   -0.1522618723
 C    1.3972890639    1.8659167667   -0.1366135328
 C    1.5062350783    2.8744264726   -1.2780585955
 O    0.5274670377    3.9382070726   -1.1610182793
 C    1.5258751368    4.9665718392   -1.2713251309
 C    2.6604519423    3.9123366100   -1.3245965360
 C    3.6929888363    3.9936011086   -0.2287937868
 O    4.0480825970    3.0852205119    0.4764899254
 H   -0.8224474989    1.8851087354   -0.0825518866
 H    1.5099247608    2.3886160191    0.8198683979
 H    2.1805619843    1.1087415100   -0.2122506833
 H    1.3864721321    2.3536402276   -2.2375028624
 H    1.4022790851    5.5708819896   -2.1772436915
 H    1.5327290625    5.6317369639   -0.3980719266
 H    3.2095420563    3.9172445569   -2.2729965690
 H    4.1412760885    5.0099884185   -0.1231407638