16

 C   -0.0027652968    1.5652921631   -0.1398588029
 C   -0.0527939324    0.0692198957    0.0250626690
 O    1.2191751070   -0.6371039735   -0.0778089172
 C    0.5603682389   -0.6285143114    1.1467706182
 C    1.1279897097   -0.2934754713    2.5383524611
 C   -0.2051747548   -0.7959979409    3.1476276879
 C    0.2536108856   -1.8157705227    2.0748205591
 O    1.6359772098   -1.6878957387    2.6046429739
 H    0.8250250834    1.9924346876    0.4317133441
 H    0.1320618776    1.8321075334   -1.1930037626
 H   -0.9383630690    2.0196146876    0.2042428384
 H   -0.8613409156   -0.4366109297   -0.5050974138
 H    1.7931222340    0.5042382247    2.8658317935
 H   -0.1116265402   -1.1608275501    4.1700952468
 H   -1.1164729007   -0.2186879385    2.9705156129
 H   -0.1151364765   -2.8160850753    1.8524855517