21

 C    0.0043854871    1.6182714056    0.1783024882
 C    0.4289984235    0.1711143659    0.0544150317
 C    1.7666149972   -0.2669052703    0.6223185017
 C    0.4745987641   -0.7097130270    1.2673240269
 O    0.0435353278   -0.1528765603    2.4770522819
 C    0.7553594584   -0.5505750516    3.6151992708
 C    1.8198050034    0.4577410881    4.0643442514
 C    2.4802016879    0.1436484616    5.3959179164
 O    2.1007185763    1.4376568138    3.4174077390
 H    0.3406655666    2.0351593059    1.1296696489
 H    0.4316839359    2.2171718996   -0.6330961963
 H   -1.0856858956    1.7165765139    0.1310836540
 H    0.1118087221   -0.3242825437   -0.8596924947
 H    2.3541511256   -1.0077681013    0.0900421716
 H    2.3361010859    0.4915128498    1.1459091365
 H    0.1862756750   -1.7557414101    1.1530615430
 H    0.0399812546   -0.6703818273    4.4418097574
 H    1.2435284855   -1.5288707550    3.4822171518
 H    2.8366569457   -0.8917117243    5.4263996953
 H    3.3117047881    0.8285902972    5.5643914872
 H    1.7521557846    0.2550604395    6.2079975373