16

 O    0.0684987234    1.2842989968   -0.1968053715
 C   -0.0256555758   -0.0901032422   -0.0351640675
 C   -0.4520719923   -0.6635600515    1.2954970467
 O   -0.9733254372    0.2554422503    2.2404098107
 C   -2.0727155523    0.8633426021    1.7290517913
 N   -2.6704143041    1.8717755787    2.1926930082
 C   -2.5170665106    0.1890767137    0.4294394047
 O   -2.7281878409    1.1723066042   -0.5801255366
 C   -1.3818506700   -0.7538724602    0.1027179045
 H   -0.7419117362    1.5750048240   -0.6414031487
 H    0.7315133952   -0.6626711421   -0.5690639936
 H    0.0423019577   -1.5032250219    1.7654671406
 H   -2.2094969470    2.2475760279    3.0209986323
 H   -3.4454853110   -0.3699244951    0.6096263854
 H   -3.1434260569    1.9194773306   -0.1222591298
 H   -1.5942216621   -1.6850652952   -0.4060989868