21

 C   -0.2386823383    1.4595443815    0.1760362317
 C   -0.0882309789   -0.0478480909    0.0006367205
 C    0.7539303813   -0.5174339231   -1.2457848418
 C    0.9089448879    0.3745733368   -2.4685507435
 C    1.9438363716   -0.6775092175   -0.2957023906
 C    3.3359524292   -1.0851089831   -0.4469221821
 O    2.9878334047    0.3050455095   -0.2760171185
 C    1.0198024205   -0.6797233122    0.9251582851
 O    1.4830969773    0.0117508637    2.0485226312
 H    0.7186234175    1.9822240993    0.0862711286
 H   -0.9184459926    1.8782545619   -0.5726207294
 H   -0.6413649672    1.6844476859    1.1677447065
 H   -1.0661455191   -0.5304995999    0.0841483894
 H    0.4124306042   -1.5126963952   -1.5543928017
 H    1.3129302905    1.3540107981   -2.2027460709
 H    1.5922487773   -0.0781022330   -3.1952355645
 H   -0.0537675296    0.5218115796   -2.9684554211
 H    3.8613105549   -1.5349869702    0.3942880398
 H    3.7294356787   -1.3364617860   -1.4307103263
 H    0.7414536051   -1.6923151341    1.2371913830
 H    2.1703951949    0.6108335790    1.7246714244