16

 C   -0.0178621762    1.5228484538    0.0595009619
 C    0.0023739380    0.0232276681   -0.0233131531
 C   -0.0269204736   -0.6863741648   -1.1847188487
 C   -0.0064738754   -2.1405239236   -1.2414315690
 O   -0.0323266867   -2.7937587611   -2.2782082072
 C    0.0495639760   -2.7761571040    0.0934463944
 O    0.0702037890   -4.1326567944    0.0854493471
 C    0.0771303133   -2.0258163763    1.2230883174
 N    0.0539295494   -0.6473962228    1.1659277132
 H    0.8789361502    1.9064562877    0.5605965228
 H   -0.0593008647    1.9577925077   -0.9395850902
 H   -0.8890877476    1.8792065213    0.6220620614
 H   -0.0678129718   -0.1635064067   -2.1326388823
 H    0.1066048832   -4.4618636791    0.9901792615
 H    0.1182268808   -2.4544423625    2.2184833193
 H    0.0755826261   -0.1265746533    2.0262414915