19

 C    0.7245920523    1.2200285012   -0.6780398096
 C    0.0305767801   -0.0285433079   -0.1181165754
 C    0.7686863135   -0.6050352976    1.0710812378
 C    0.7762637092   -2.0115917743    1.5199949109
 C    0.7157862387   -2.9971497571    0.3392137081
 C    1.9930754293   -2.2653934081   -0.1842040943
 N    2.0488467272   -1.3518045218    1.0066766875
 C    0.9228925575   -4.3908083534    0.6943444909
 N    1.0868075636   -5.5000494541    0.9760505605
 H    1.7341972687    0.9870853647   -1.0304641799
 H    0.1603196971    1.6400979835   -1.5155331895
 H    0.8155186459    1.9961643136    0.0888943008
 H   -0.9836529329    0.2281151943    0.2125016375
 H   -0.0932483271   -0.7690965931   -0.9141155055
 H    0.8264490855    0.0977090385    1.9020416541
 H    0.6585825095   -2.3115239481    2.5559833324
 H   -0.1824173585   -2.9256468207   -0.2818318572
 H    2.8729157019   -2.9085416215   -0.1895609015
 H    1.9034559487   -1.7655225981   -1.1522625776