21

 C    0.1400839796    1.4053026938    0.0515192442
 C   -0.1350877349   -0.0755174301   -0.1453035936
 O    0.8247512805   -0.5850189226   -1.0574505985
 C    0.7092792159   -1.9743150028   -1.3183640352
 C   -0.5435718726   -2.3030815745   -2.0194770870
 C   -1.5621894871   -2.5655263354   -2.6016833031
 C    1.9180661324   -2.3923618794   -2.1282934994
 C    3.2154458804   -2.6847280497   -1.4252497376
 C    2.4196369697   -3.8092571473   -2.0396612111
 H    1.1494577860    1.5620775101    0.4424577683
 H    0.0542049483    1.9398048108   -0.8987497695
 H   -0.5775269745    1.8343421329    0.7573490091
 H   -0.0623691775   -0.6156442418    0.8141547484
 H   -1.1519603354   -0.2347260398   -0.5324774682
 H    0.7200626918   -2.5282875032   -0.3620451599
 H   -2.4615135240   -2.8022465216   -3.1147454816
 H    1.9743258714   -1.9053143145   -3.0962062548
 H    4.1360080147   -2.3762489084   -1.9074894481
 H    3.2337578637   -2.6048912319   -0.3433864008
 H    1.9016245750   -4.4899854956   -1.3720298419
 H    2.7897056067   -4.2760190091   -2.9452098597