18

 C   -0.0554553866    1.5033276881   -0.1119306696
 C    0.0138118140   -0.0175641739   -0.0058001105
 C    0.6327855528   -0.4979945449    1.2990476992
 O   -1.3184780174   -0.5833290753   -0.0368500798
 C   -1.9041370730   -0.7178817514   -1.2240919427
 N   -1.3533794564   -0.3800979582   -2.3839106000
 N   -2.3402733176   -0.7321263263   -3.2588762873
 C   -3.3914630590   -1.2403711284   -2.5947901394
 N   -3.1570497956   -1.2491946826   -1.2972757627
 H    0.9529564766    1.9276176315   -0.0753831029
 H   -0.5187401168    1.8046335249   -1.0535766406
 H   -0.6349510530    1.9172606136    0.7193088397
 H    0.5693389658   -0.4208580532   -0.8595773162
 H    0.0555096570   -0.1329672806    2.1541868992
 H    0.6527450850   -1.5900965668    1.3389547525
 H    1.6576945970   -0.1264855974    1.3895162207
 H   -2.2076000338   -0.5872294549   -4.2452596933
 H   -4.2903214887   -1.5864786842   -3.0828878262