21

 C    0.1386241694    1.3918338040    0.0075474596
 C   -0.0402437223   -0.1289143570    0.0012284723
 C   -1.5069948639   -0.5258888242    0.0130729127
 O   -1.5765458426   -1.9651578419    0.0060996584
 C   -2.8174157115   -2.4928744128    0.0150000193
 O   -3.8328796159   -1.8537185485    0.0279807231
 C   -2.7085077367   -4.0100284075    0.0058987604
 O   -3.9876263096   -4.5673327438    0.0151590943
 C   -3.9649538559   -5.9755634349    0.0068104916
 H    1.1986711858    1.6600444221   -0.0010640704
 H   -0.3284346685    1.8524999860   -0.8696399005
 H   -0.3117131423    1.8431873626    0.8982171978
 H    0.4379560129   -0.5628314131   -0.8844616433
 H    0.4546656392   -0.5720981835    0.8730415971
 H   -2.0238090116   -0.1484999785    0.9022147245
 H   -2.0405894956   -0.1391374549   -0.8620221700
 H   -2.1299047643   -4.3100676289   -0.8847057989
 H   -2.1130041899   -4.3194641914    0.8820314260
 H   -3.4667092147   -6.3719085588   -0.8922682767
 H   -3.4495805020   -6.3822303554    0.8915106917
 H   -5.0031198401   -6.3143337196    0.0148258212