18

 O    0.0919969456    1.4001928652   -0.1696742656
 C    0.0780934862    0.0175325693    0.1109911715
 C   -1.3523627123   -0.5316526412    0.0516885429
 O   -1.9523701345   -0.1430698530   -1.1817312883
 C   -1.4053295843   -2.0456997284    0.2037111795
 C   -2.7791355102   -2.7435157212    0.1110332870
 C   -2.1472065884   -3.5247091827   -1.0556134664
 O   -0.9607515991   -2.6915570051   -1.0240324377
 H   -0.5206032258    1.5121634114   -0.9086511301
 H    0.7085532411   -0.5491849357   -0.5956807762
 H    0.4971182550   -0.1210482873    1.1142594873
 H   -1.9493294608   -0.0635410750    0.8441826261
 H   -1.6041441328   -0.7714146252   -1.8318744185
 H   -0.7950560755   -2.3684664646    1.0583013909
 H   -3.0925490631   -3.3229641190    0.9797155341
 H   -3.5768955202   -2.0653971114   -0.1948655545
 H   -1.9017886311   -4.5699222599   -0.8320179733
 H   -2.6546358000   -3.4746234464   -2.0245209687