19

 N   -0.0053931309    0.2756912831    1.0739349116
 C   -0.0681149924    0.2354903047   -0.2869872581
 O    0.6285625471    0.9173756473   -1.0125218073
 C   -1.1364662351   -0.7303639907   -0.8219234465
 C   -0.9518045402   -2.1513438335   -0.3587583503
 C   -0.0328306536   -3.2137645634   -0.9894736090
 C   -1.0705244616   -4.3121670284   -0.5763767948
 C   -1.9406221762   -3.2122093426    0.0450961035
 N   -1.1883479430   -2.4661654760    1.0545688667
 H    0.7015386469    0.8487778925    1.5037058864
 H   -0.5300562027   -0.3857268670    1.6265749261
 H   -2.1177629104   -0.3728997215   -0.4895398465
 H   -1.1025627438   -0.6727429236   -1.9116699820
 H    0.0542921022   -3.1150989018   -2.0738250350
 H    0.9741404742   -3.2818856759   -0.5648950224
 H   -1.5335201974   -4.7899399085   -1.4425398503
 H   -0.7312254934   -5.0925240755    0.1130294227
 H   -3.0234241533   -3.1824013642    0.0954254901
 H   -0.4381472365   -3.0205150750    1.4652176151