14

 N    0.0223024663    0.9698667457    0.0068073297
 H   -0.2839603935    0.0346872575   -0.2791363158
 H    1.0200575768    0.9306117353    0.2571854842
 H   -0.0921172435    1.5949683987   -0.7971303733
 C   -0.7325315164    1.4519663700    1.1786336280
 C   -2.0912995221    1.6397748258    1.2429903048
 C   -2.3450279851    2.1176867104    2.5866977954
 O   -3.3513601175    2.4340018829    3.1675776523
 O   -1.0809301125    2.1787257549    3.2353789446
 C   -0.1007770493    1.7717929820    2.3725331732
 C    1.2768901536    1.7088471187    2.6872209601
 O    1.8588441006    1.9820915422    3.7208364924
 H   -2.8537278126    1.4846997882    0.4975194626
 H    1.8848254854    1.3376172475    1.7962866518