18

 C   -0.0716048229    1.5748305014    0.0593797639
 C    0.0759403150    0.0423938305    0.0596698134
 C    0.6725144978   -0.4685837393   -1.2130339304
 C    0.0530305466   -0.7785225835   -2.3847638562
 C   -1.3541250798   -0.7246808844   -2.8656297777
 O   -1.7957067015    0.5909264711   -3.2019703838
 O    1.0304662368   -1.1386562887   -3.2887800741
 C    2.1831426109   -1.0288074913   -2.5979851972
 N    2.0468816326   -0.6377144915   -1.3735257937
 H    0.9024072102    2.0575484664   -0.0651416535
 H   -0.7177726684    1.8895822386   -0.7655270511
 H   -0.5094910534    1.9250760908    0.9990837243
 H    0.7119549252   -0.2757060733    0.8915546347
 H   -0.9083537834   -0.4154054005    0.2121150660
 H   -1.4730947759   -1.4161440912   -3.7115966128
 H   -2.0265824885   -1.0558127292   -2.0689902844
 H   -1.2030121298    0.9320566474   -3.8801513878
 H    3.0912632086   -1.2823168931   -3.1227216199