18

 C   -0.1639835090    1.4776907785    0.1206025848
 C    0.0035612772   -0.0045732401    0.0143773346
 C    0.1107586246   -0.7901267533   -1.1131434207
 N    0.2629041387   -2.0703343801   -0.6937098590
 N    0.2627713860   -2.1867920936    0.6526851310
 C    0.1060033213   -0.9378902398    1.0827164793
 N    0.1178113595   -0.5998736673    2.4446699384
 C   -1.1679708959   -0.4953518917    3.1495827050
 C   -0.2392006454   -1.6288180523    3.4121155389
 H   -0.0178160131    1.9644698691   -0.8477810179
 H   -1.1620580375    1.7550568579    0.4813732217
 H    0.5569471074    1.9021044241    0.8273577080
 H    0.0991017075   -0.5333395556   -2.1614762822
 H    0.3972989292   -2.8939228118   -1.2528173024
 H   -1.2476311369    0.3299165314    3.8509259426
 H   -2.0693006729   -0.7124320615    2.5814602123
 H   -0.5107947123   -2.6040985194    3.0205158032
 H    0.3636776717   -1.6391428746    4.3152650323