13

 O    0.3403226575   -0.1166949557   -0.1790550726
 C    0.4765387911    1.0426630478   -0.3916235741
 O    0.4243365660    1.9739339341    0.6211816164
 C    0.6930820528    3.2668130029    0.2947184899
 C    1.7931245363    3.8487295034   -0.2220701764
 N    1.5004303499    5.2122268756   -0.3224533968
 C    0.2244219194    5.5025933768    0.1436495696
 O   -0.3320635824    6.5763155312    0.2139152493
 N   -0.2660742913    4.2458646333    0.5095811186
 H    0.6647100450    1.5211757207   -1.3683422300
 H    2.7430260467    3.4274886097   -0.4978981925
 H    2.1195595370    5.9318032916   -0.6507339331
 H   -1.1714349881    4.1073681187    0.9237592216