19

 C   -0.0453924839    1.5919387069    0.0073461625
 C    0.0636640078    0.0663050169   -0.0629069233
 C   -1.0901431874   -0.6007779799    0.6883554488
 C    0.4772141890   -0.7539636115   -1.2592582794
 C    1.7928664695   -0.3260288629   -1.9388835963
 C    2.5599588507    0.7842963604   -1.3244205655
 N    2.5940510972   -0.5399065583   -0.6806826196
 C    1.2861448208   -0.8418118092    0.0213495139
 H    0.1753101889    2.0770070882   -0.9448885542
 H   -1.0713376358    1.8686560565    0.2720237662
 H    0.6083033133    2.0201175127    0.7748773344
 H   -2.0507037979   -0.3194607933    0.2424322103
 H   -1.0172716783   -1.6921416377    0.6664611878
 H   -1.1016639111   -0.2831877355    1.7368590454
 H   -0.1688079085   -1.4990168022   -1.7085200769
 H    2.1150649938   -0.7846803652   -2.8689807563
 H    3.5099633871    1.0128413341   -1.8024271875
 H    2.1040660944    1.6280644835   -0.8325249944
 H    1.3346801106   -1.6288382636    0.7647438440