17

 C    0.0835187662    1.1142840396    0.4671909966
 O   -0.1249313620    0.0450462758   -0.4447690577
 C   -1.3290330615   -0.6010717456   -0.2713078013
 C   -1.4191692587   -2.0129544621   -0.7389708197
 C   -0.2393281915   -2.7023695239   -1.3846270355
 C   -1.4414870902   -1.7281281956    0.7721890037
 C   -0.3027592850   -2.0539559855    1.5767828347
 N    0.6099214042   -2.3143470265    2.2399119017
 H    1.0451127575    1.5623063140    0.2110900766
 H   -0.7052823736    1.8745042881    0.3728537299
 H    0.1154370467    0.7554979281    1.5029913759
 H   -2.2101571907    0.0375910510   -0.3576726968
 H   -2.3898778563   -2.3065594604   -1.1285357491
 H    0.7049654173   -2.3501086274   -0.9674140760
 H   -0.2992294262   -3.7852748222   -1.2410202209
 H   -0.2290328539   -2.5008544692   -2.4603438910
 H   -2.3917806122   -1.8362121082    1.2845403690