23

 C   -0.1874172019    1.5271244561   -0.0349422179
 C    0.0596055831    0.0237374033    0.0176302774
 O    0.7892216123   -0.3510310300   -1.1645059049
 C    1.8706230845   -1.2479454098   -0.8989058964
 C    2.9370092038   -0.5152041919   -0.0729138669
 C    2.2717244457   -0.0034151875    1.2365217044
 C    0.8077807998   -0.4826409873    1.2664679096
 C    0.7867809749   -2.0235324380    1.2249734260
 C    1.3545052944   -2.4841680195   -0.1475830690
 H    0.7482185052    2.0913670537    0.0164401347
 H   -0.6811203311    1.7860451897   -0.9759858417
 H   -0.8334670827    1.8432578178    0.7910225799
 H   -0.9211870344   -0.4809283782   -0.0153319309
 H    2.2605578736   -1.5262453415   -1.8820627048
 H    3.7744040368   -1.1898022366    0.1370397811
 H    3.3325871513    0.3164852421   -0.6627004173
 H    2.7944706646   -0.3836722010    2.1202532411
 H    2.3200235835    1.0873472853    1.2951120931
 H    0.3003189878   -0.1162770424    2.1648393641
 H    1.3801282261   -2.4241128212    2.0538885200
 H   -0.2363105911   -2.3884531857    1.3630705842
 H    0.5805077466   -2.9645401960   -0.7533581969
 H    2.1644358273   -3.2109086413   -0.0254848391