14

 C   -0.0461238363    1.3288098231    0.0682063188
 O   -0.0005901571   -0.0891351453    0.0075667620
 C    0.6154107823   -0.5947800638   -1.0722624874
 C    1.2172993698   -0.0082291008   -2.1426780392
 O    1.6928947853   -0.9677750998   -2.9684248090
 N    1.4107892413   -2.2107639206   -2.4532352362
 C    0.7661903949   -1.9998285278   -1.3183249405
 C    0.3124261243   -3.0629700994   -0.5025776782
 C   -0.0867366454   -3.9418752546    0.2140306131
 H    0.9660644664    1.7533268919    0.0910162275
 H   -0.5909543019    1.7410591094   -0.7911383538
 H   -0.5700824828    1.5843708040    0.9894393664
 H    1.3828983202    1.0101678623   -2.4492976093
 H   -0.4357216812   -4.7254006586    0.8402077559