14

 O   -0.1840533320    1.4190610487    0.2678505956
 C   -0.0961212762    0.0407093344    0.1620527161
 C   -0.0965147888   -0.8270176715    1.4997713694
 N   -1.5878646936   -0.5656031358    1.5828716006
 C   -2.1753464840    0.5614466139    2.1016748637
 O   -3.0037072442    1.2355853044    1.5223116411
 C   -1.4142875218   -0.8107066428    0.0972443504
 C   -0.5203187700   -1.9891881928    0.5721496037
 O   -0.2781166220   -3.1221694207    0.3302350430
 H   -1.1041951950    1.6870330364    0.3900119541
 H    0.6865127642   -0.2169155584   -0.5589083809
 H    0.5595202120   -0.7845352547    2.3652260806
 H   -1.8635810040    0.7443871661    3.1463354418
 H   -2.2431480547   -0.7606969572   -0.6023113392