15

 O   -0.0038122412    1.4510059714   -0.1109405498
 C   -0.0037515722    0.0551429716    0.0014869171
 C    0.1602529831   -0.5367804820    1.4416092445
 O   -1.1479762776   -1.1209171231    1.3942864512
 C   -1.4207792776   -0.5419462990    0.1027869139
 C    0.9036021562   -0.6307517330   -1.0182544484
 O    0.7231693696   -1.7630125828   -1.4034838867
 C    2.0440837337    0.1604169228   -1.4638084875
 C    2.9915621107    0.8228940715   -1.8032060060
 H    0.8985700667    1.7508782071   -0.2801331355
 H    0.9459458485   -1.2871854674    1.5874808997
 H    0.2466514641    0.2570793131    2.1940820874
 H   -2.1959420697    0.2311281929    0.1413305957
 H   -1.6604289576   -1.3022378074   -0.6458230878
 H    3.8358637135    1.3849097942   -2.1243163880