20

 C   -0.1578520653    1.5673236993    0.2016334315
 C   -0.0467621329    0.0479600771    0.0463283479
 C    0.6700782813   -0.4007730044   -1.2381827206
 C    0.9013374646   -1.9333247205   -1.2992866234
 C    0.7194217032   -2.3400368636   -2.7943552943
 C   -0.0658014228   -1.1658671634   -3.3627117411
 C   -0.0810085051   -0.1336894147   -2.5246438258
 C    1.9945168985   -2.5224641230   -3.4996625602
 N    2.9987556271   -2.6624734483   -4.0554162353
 H    0.8313949143    2.0380783452    0.2010778168
 H   -0.7396018382    2.0184308119   -0.6088375251
 H   -0.6499892046    1.8297447512    1.1429551812
 H    0.4978656755   -0.3624993794    0.9062298169
 H   -1.0467309846   -0.4048289690    0.0717799295
 H    1.6363281727    0.1253366313   -1.2808617501
 H    1.8693340698   -2.2382323664   -0.8980059774
 H    0.1253528367   -2.4378505530   -0.7148479798
 H    0.1705627486   -3.2847510256   -2.8846417754
 H   -0.4995608290   -1.1970857990   -4.3546072411
 H   -0.5537801298    0.8187171842   -2.7368235842