21

 C   -0.2215051150    1.4938517464    0.1721872903
 C   -0.0591565832   -0.0088298511    0.1549949670
 C    1.1832942083   -0.6738951250   -0.3266147626
 C    0.8410856556   -0.7501905062    1.1630846568
 C    1.6888926150    0.0215893294    2.1574964611
 C    0.2821252490   -2.0642999392    1.5921324573
 O   -0.3559978509   -2.7825068791    0.8397451603
 C    0.4921583290   -2.5461321746    3.0250646330
 O   -0.1230682383   -3.7803179875    3.2320441337
 H    0.7284929868    2.0156709787    0.3136652636
 H   -0.6377147018    1.8320455098   -0.7829504455
 H   -0.9061802581    1.8160350147    0.9639106647
 H   -0.9709349826   -0.5593754057   -0.0577731912
 H    1.0882556752   -1.5948658744   -0.8898012398
 H    2.0333545327   -0.0501870885   -0.5855576752
 H    2.0646938440    0.9471982950    1.7176725708
 H    1.1257921418    0.2941531566    3.0566446090
 H    2.5621110731   -0.5592417059    2.4728274963
 H    1.5756989208   -2.6011219772    3.2221057521
 H    0.0963749913   -1.7804437661    3.7130694866
 H   -0.5239563326   -3.9994894200    2.3738820017