23

 C   -0.0007121065    1.5717619865   -0.0395407808
 C   -0.0385226996    0.0463243104    0.0859345657
 C   -1.4513612500   -0.5306903678   -0.0525136414
 C   -1.4875151740   -2.0595499925    0.0528221259
 C   -2.9110921748   -2.6573816920   -0.0289689729
 C   -2.8674101420   -4.1683489037   -0.2366821359
 O   -4.2079031526   -4.6313278105   -0.2767620752
 C   -3.6569961855   -2.3425380611    1.2559236671
 O   -4.4365681425   -1.4387693135    1.4044779404
 H    1.0183950799    1.9563925728    0.0665891595
 H   -0.3803939155    1.8980892698   -1.0141029370
 H   -0.6188582757    2.0467641356    0.7301591881
 H    0.6138269121   -0.4011980337   -0.6760279788
 H    0.3811570634   -0.2521040891    1.0559295674
 H   -2.1048004780   -0.0914536685    0.7111468228
 H   -1.8761047023   -0.2281427313   -1.0191375842
 H   -0.8798698729   -2.4964792479   -0.7505226951
 H   -1.0149313486   -2.3774792773    0.9935118903
 H   -3.4620060003   -2.1939749397   -0.8543773412
 H   -2.3294339358   -4.3969259756   -1.1692879938
 H   -2.3059995352   -4.6375159187    0.5890215454
 H   -4.2005499194   -5.5909735532   -0.3390524727
 H   -3.3829737442   -3.0108499790    2.1085941163