17

 C   -0.1028199975    1.5417668044    0.0199043803
 C    0.0005321305    0.0454934950    0.0139476319
 C   -0.8698637764   -0.8966527256    0.8028708988
 C    0.6194574299   -0.9006862692    1.0358592076
 C    1.3776231201   -1.6335197716   -0.1224326015
 O    0.4112194364   -2.1208745959   -1.0826051104
 C    0.7585454047   -0.7376873788   -1.1111781261
 C    2.6575464680   -2.2403847017   -0.0396031484
 C    3.7466780616   -2.7360867603    0.0830571972
 H    0.8618548166    2.0129316387   -0.2026568623
 H   -0.8254686823    1.8952778116   -0.7256970856
 H   -0.4311069431    1.9057419262    0.9984449310
 H   -1.4413066613   -0.4202521062    1.5941017639
 H   -1.3529507042   -1.7420934486    0.3296078581
 H    1.0873840855   -0.6655408305    1.9823237419
 H    1.1473851095   -0.3312032991   -2.0381933472
 H    4.7074845019   -3.1785513684    0.1767467908