23

 C   -0.1948211169    1.5660806030   -0.0294109787
 C   -0.2114599909    0.0408431759   -0.1590159513
 C    0.9334855515   -0.5008692193   -1.0254430393
 C    0.9268103868   -2.0103589809   -1.1497566582
 C    0.0718425787   -2.6946928637   -2.1979480831
 C    1.5651798949   -2.6967552388   -2.3190622327
 C    2.4433536996   -2.1095789563   -3.4210773884
 O    3.3183238687   -3.2579511214   -3.3630911768
 C    2.5253529703   -3.8817037586   -2.3287974185
 H    0.7412850952    1.9151343308    0.4206131351
 H   -0.2887793007    2.0483377974   -1.0089533302
 H   -1.0182956390    1.9230739528    0.5968384259
 H   -0.1523691484   -0.4133196092    0.8388768630
 H   -1.1684113060   -0.2864817455   -0.5843390529
 H    0.8727897558   -0.0528870670   -2.0269073479
 H    1.8935142044   -0.1701620126   -0.6047917401
 H    1.0125576731   -2.5384298990   -0.2008103833
 H   -0.4249987046   -3.6256689442   -1.9424638668
 H   -0.4891697084   -2.0644762180   -2.8831647736
 H    1.9712591151   -2.0035202397   -4.4070561336
 H    2.9728020407   -1.1789780376   -3.1763090836
 H    3.1035212094   -4.0421136055   -1.4084935679
 H    2.1028370707   -4.8408074625   -2.6582952069