19

 C    0.0624233637    1.5404586948    0.2718162286
 O    1.4875843154    1.4434343077   -0.0915088204
 C    1.1414143114    0.2877736354   -0.8962272593
 C    0.5817542535    0.7027204445   -2.3100013079
 C   -0.7523266623   -0.0905950261   -2.3917460466
 C   -0.7154339461   -0.9409042101   -1.0842944301
 C    0.5422242651   -1.8450091377   -1.2173291303
 C    1.6696578302   -1.1191174499   -1.0707578681
 C   -0.0931763489    0.0277745965   -0.0589003692
 H   -0.0588870565    1.8246739607    1.3195638040
 H   -0.4666589919    2.2508497021   -0.3723079845
 H    0.4248019095    1.7822171065   -2.3593164580
 H    1.2829517336    0.4345639703   -3.1020666624
 H   -1.6176006310    0.5800498226   -2.3836691660
 H   -0.8299935125   -0.7161275590   -3.2841783912
 H   -1.6411695523   -1.4687996148   -0.8518998479
 H    0.4893240767   -2.8824793268   -1.5261307756
 H    2.6882005412   -1.4478035245   -1.2327961762
 H    0.1795992713   -0.5170807123    0.8457213213