15

 O    0.0611621831    1.3981961673    0.2005091320
 C    0.0056366792    0.0227456935    0.0439913698
 C   -0.2799422698   -0.8409878362    1.2638953510
 C   -1.2596404355   -0.7846452440    0.0947930964
 O   -2.5141588393   -0.2240011275    0.2494541297
 C   -1.1156294705   -1.8529898301   -0.9664619854
 O   -2.0230528750   -2.5781163678   -1.3107060108
 C    0.2618915971   -1.7409594458   -1.5129308843
 C    0.8632654470   -0.6633523456   -0.9843463758
 H   -0.6051475029    1.7917209610   -0.3749862923
 H    0.3193579867   -1.7250582995    1.4528274375
 H   -0.6207868429   -0.2924135978    2.1364842078
 H   -3.1346769904   -0.8927753151   -0.0756830161
 H    0.6699637004   -2.4350798884   -2.2350098529
 H    1.8677536627   -0.3172921839   -1.2028783066