14

 O   -0.1232908877    1.4222017666    0.3683260024
 C    0.0184864506    0.0737812232   -0.0700849129
 C   -1.3281292356   -0.5623363530   -0.0091290792
 C   -1.7328115074   -1.8768586069    0.1221856880
 O   -0.8786601127   -2.9347484108    0.2489121145
 C   -3.1427940570   -1.8404086992    0.0774884830
 N   -3.5896826590   -0.5908833156   -0.0639078499
 N   -2.4786771127    0.1533539867   -0.1323012764
 H    0.6913829152    1.8899971840    0.1638441479
 H    0.4158842222    0.0428259129   -1.0979117096
 H    0.7157664047   -0.4959429236    0.5616914618
 H   -1.3942094389   -3.7272993411    0.4237729480
 H   -3.8402818706   -2.6631798462    0.1472059588
 H   -2.5375029911    1.1571099329   -0.1641584864