21

 C   -0.0039291866    1.5240429513    0.0063256170
 C    0.0300586898    0.0089351818    0.0092021268
 C   -1.3078498845   -0.7283647318    0.3768741127
 C   -0.5115694277   -1.6170887743    1.3283938573
 C    0.7612731005   -2.1278300688    0.6713002803
 C    0.7113358305   -0.7270418934    1.2104555407
 C    0.8435680038   -2.1382671192   -0.8476075482
 O   -0.1665410129   -3.0034501476   -1.3652977162
 C    0.6559095380   -0.6442412411   -1.2335706130
 H    1.0001403306    1.9445086656   -0.1262290313
 H   -0.6327520157    1.9026540945   -0.8079716374
 H   -0.4086116029    1.9136453659    0.9466060277
 H   -1.9833438882   -0.0640583852    0.9242638071
 H   -1.8491834256   -1.2165590304   -0.4380225021
 H   -0.9010948275   -2.1172635325    2.2074590367
 H    1.2933301000   -2.8894554772    1.2300593255
 H    1.3675956559   -0.3079483660    1.9628179494
 H    1.8317850886   -2.4972066810   -1.1701619551
 H   -0.0573175766   -3.0429446021   -2.3207206812
 H    0.0342670776   -0.5372965932   -2.1301745378
 H    1.6304897130   -0.1858286052   -1.4437751089