17

 N    0.0557556845    1.4568128276   -0.1245954937
 C    0.0492038778    0.0444895911   -0.0345417812
 C   -1.0597182009   -0.7666293052   -0.0187350968
 O   -2.3872584558   -0.4391027795    0.0386409642
 N   -0.6393449578   -2.0805017465   -0.0239369240
 C    0.7331192419   -2.1127787217   -0.0195063795
 C    1.1922633691   -0.8159733980   -0.0410783169
 C    2.6209198212   -0.3800104013   -0.0894118509
 O    3.4534338781   -1.5252909203    0.0250246901
 H    0.7041036551    1.8686078154    0.5390224649
 H   -0.8671408949    1.8217667851    0.0870871422
 H   -2.7266867370   -0.3220104634   -0.8569931285
 H   -1.2536791035   -2.8683686702    0.0777618204
 H    1.2817179742   -3.0381468074   -0.0001248789
 H    2.8195918873    0.1612794139   -1.0304857603
 H    2.8295297542    0.3368447487    0.7264406500
 H    4.3629559666   -1.2440667584   -0.1057211512