16

 O    0.4157997066    1.2698047946    0.3616775425
 C    0.0751056871   -0.0362876813    0.0377494537
 C   -1.4588015537   -0.5127792758    0.0887711948
 C   -2.5079962099    0.6203785714   -0.0702940020
 N   -2.0459481463    1.3323801682   -1.3094999169
 C   -1.3927566580    0.4395084328   -1.9246361471
 O   -0.1260437009    0.5466451896   -2.4695756465
 C    0.2177589160   -0.5140317334   -1.4753788539
 C   -1.2450374411   -0.9678766576   -1.3650768762
 H   -0.0462568146    1.8527152154   -0.2586275553
 H    0.6757753458   -0.6971702039    0.6689288357
 H   -1.6759730132   -1.2456958605    0.8673268068
 H   -3.5341030401    0.2363984171   -0.1418232053
 H   -2.4736662195    1.3437502177    0.7489038242
 H    1.0858700553   -1.0791797416   -1.8084823210
 H   -1.6811218033   -1.8296492227   -1.8639313035