18

 O   -0.6277514237    0.7390393607    0.5948092248
 C    0.1421433033    1.0309214607   -0.2870163382
 C    1.2940398981    1.9855724033   -0.1560251440
 C    1.2552273111    3.3212855180   -0.9772027702
 C   -0.0048997982    4.1673874234   -0.6991940928
 N    0.5244679147    4.6465387605    0.6226586120
 C    0.3471183045    3.5728207409    1.6626668656
 C    1.5661909764    2.7779255385    1.1486394675
 C    1.8745920377    4.0323389347    0.2686146877
 H    0.0272083197    0.5965238896   -1.3090769701
 H    2.2025980403    1.4468376753   -0.4574011762
 H    1.6766661386    3.3104273400   -1.9825643024
 H   -0.0891943219    5.0133778116   -1.3891713604
 H   -0.9752792969    3.6610176900   -0.6495028397
 H    0.5314924448    4.0006123382    2.6531424054
 H   -0.6261748575    3.0781416370    1.6653781262
 H    2.2454417616    2.3298411936    1.8736054881
 H    2.7762455172    4.6435139741    0.2858729068