20

 C   -0.0219425524    1.6141492979   -0.0486031651
 C    0.1047431467    0.0869717476   -0.0523787431
 C    0.8284781267   -0.4386363700   -1.3135666487
 C    2.3166860534   -0.5563605551   -0.8551389774
 O    2.3468681066   -0.2672677512    0.5325441169
 C    1.0240085699   -0.4669614531    1.0563674058
 C    0.9512569374    0.1657254988    2.4334188701
 C    2.8696209033   -1.8996716735   -1.1233993952
 N    3.2975813989   -2.9512375477   -1.3395944593
 H    0.9618659107    2.0940111552   -0.0744405163
 H   -0.5844375064    1.9527064340   -0.9242515229
 H   -0.5474228652    1.9731293617    0.8408879871
 H   -0.8909793065   -0.3608677779    0.0259133757
 H    0.4460095064   -1.4170989501   -1.6106618865
 H    0.7297786057    0.2320679436   -2.1693991338
 H    2.9605527599    0.1721427247   -1.3585817103
 H    0.8389858135   -1.5499376830    1.1493498766
 H    1.1874439113    1.2318042017    2.3948029074
 H   -0.0521484785    0.0428087241    2.8524884137
 H    1.6641810386   -0.3175206677    3.1064281854