18

 C    0.0070122913    1.5433833083   -0.1738268082
 C    0.4500587277    0.0965883709   -0.0553409921
 O    0.1580761878   -0.5592454660   -1.2926700844
 C    0.5198961949   -1.8772645232   -1.3452386737
 C    1.4508936121   -2.3869630283   -2.2037758792
 N    2.3263209606   -1.7877988872   -3.1019641841
 O    1.5252481227   -3.7319686674   -2.0667689161
 C    0.6232416749   -4.0910101985   -1.0950073829
 C   -0.0138109542   -2.9962856194   -0.6144122763
 H    0.5414754527    2.0458875367   -0.9852681287
 H   -1.0649684697    1.6007081502   -0.3827632812
 H    0.2092584577    2.0791799408    0.7583309289
 H    1.5268840021    0.0243638997    0.1540795818
 H   -0.0794191973   -0.4064184711    0.7662884100
 H    2.0801272447   -0.8124459651   -3.2217111715
 H    2.3365738749   -2.2506698300   -4.0046222470
 H    0.5672341257   -5.1447832703   -0.8842131164
 H   -0.7792796487   -2.9763633900    0.1452733913