18

 C    0.5565948262    0.5025808640   -0.6075613532
 C   -0.3650539824   -0.0016986459    0.4799965724
 O   -0.1345088678    0.1210034591    1.6576444531
 C   -1.6594308942   -0.6896854276    0.0038087690
 C   -1.3552457956   -2.0582902620   -0.6016002842
 O   -0.7588525927   -2.2006312651   -1.6479662666
 N   -1.7175811246   -3.1285734051    0.2043206338
 C   -3.0696549546   -3.5292980302    0.5448766262
 C   -2.1845752703   -4.3902220058   -0.3120685124
 H    1.5146680690    0.7982370604   -0.1788185278
 H    0.6829380249   -0.2606657713   -1.3805068808
 H    0.0949243955    1.3720234885   -1.0921184938
 H   -2.3300987151   -0.7708266236    0.8590283078
 H   -2.1182725913   -0.0846125505   -0.7848849033
 H   -3.2427764140   -3.7878267721    1.5856373863
 H   -3.8909524774   -3.0118779337    0.0546334669
 H   -2.3924960654   -4.4384951238   -1.3774556798
 H   -1.7252775701   -5.2773775553    0.1136218564