18

 O    0.6582223532   -0.4141801695   -1.1687569286
 C   -0.1271629372   -0.0235283902   -0.0430876155
 C   -1.4713647029   -0.6016408237   -0.0802639825
 C   -2.5510097269   -1.1287352314   -0.1171249577
 C    0.6062964021   -0.3970167952    1.2528848528
 C    1.9857801549    0.2500253822    1.5437290933
 C    1.3682672291    0.7295556873    2.8565481954
 C    0.1723342965    1.5495216609    2.6055656214
 N    0.0209268366    0.0791220091    2.5605041598
 H    0.5744363846   -1.3699315779   -1.2611950512
 H   -0.2024043333    1.0660146240   -0.1262826667
 H   -3.5138746040   -1.5762507943   -0.1459962441
 H    0.6567412521   -1.4890160794    1.3031704615
 H    2.7827134340   -0.4847726713    1.6633390528
 H    2.3286576739    1.0304588234    0.8583503610
 H    1.8264570352    0.6469447495    3.8364074841
 H   -0.3375382461    1.9809933103    3.4611168020
 H    0.1004675484    2.1435528162    1.6978394321