19

 C    0.2625622986    1.0430360709    0.3926375127
 O   -0.1617932930   -0.2012063411   -0.1202416894
 C    0.5064333058   -0.5826207984   -1.2913337407
 C    1.9703155620   -1.1163984187   -1.1775410965
 C    1.5471029594   -2.4030693054   -1.9675434438
 C    0.0408152299   -1.9319393434   -1.8662407289
 C   -0.2309002974   -3.0343682865   -0.8017232173
 C    1.2023523014   -3.5578308723   -1.0260961864
 O    1.7914994297   -4.5349010885   -0.6646158916
 H    1.3272001027    1.0336413141    0.6693614408
 H    0.1020174702    1.8550387806   -0.3335718252
 H   -0.3310142180    1.2452130175    1.2870581476
 H    0.4411357703    0.2182419437   -2.0442428624
 H    2.7315513164   -0.5129466196   -1.6747773788
 H    2.2934614969   -1.3100800116   -0.1513062033
 H    2.0853703134   -2.6181193876   -2.8901504146
 H   -0.6377491028   -1.9155527390   -2.7175899233
 H   -0.4487904988   -2.6705284485    0.2050589478
 H   -0.9942019366   -3.7656292364   -1.0829229765