19

 C    0.5521391682    1.5143918229   -0.0055033119
 C   -0.0280482596    0.0871474063    0.0091566768
 C    0.2580415024   -0.6369150959   -1.2811786256
 C    0.7084774196   -1.8856069690   -1.3747275537
 C    1.0174566402   -2.7820118375   -0.2056698593
 O    2.2955779247   -3.3988529002   -0.3557508383
 C    0.9430133963   -2.0637024759    1.1253332235
 O    1.8719216687   -0.9761119072    1.2579646285
 C    0.4710102366   -0.6755750415    1.2195205308
 H    1.6432776926    1.4771340574   -0.0668538862
 H    0.1764801772    2.0794571104   -0.8639739521
 H    0.2782730431    2.0590561354    0.9037010904
 H   -1.1207055726    0.1722249998    0.1200537578
 H    0.0744223438   -0.0665002588   -2.1897501091
 H    0.8985568677   -2.3314674942   -2.3476142205
 H    0.3063486561   -3.6189741389   -0.1876247845
 H    2.9424377683   -2.6873684128   -0.2690734839
 H    0.8906609756   -2.7082243001    2.0022886567
 H    0.0758285313   -0.3323547703    2.1768480103