18

 C   -0.2796964938    1.4828508453    0.1308943948
 N    0.0944619181    0.0815230196   -0.0003471463
 C    0.5929310896   -0.4605648262   -1.2573000513
 C    2.0959163886   -0.2718845283   -1.4490453385
 C    2.8342410513    0.7739232545   -0.6352503141
 C    2.3662890617    0.5241392164    0.8102688646
 O    2.7616913404    1.0881285831    1.7973751404
 C    1.2542860090   -0.5255769919    0.7333936553
 C    1.5644226360   -1.3582266639   -0.5329942281
 H    0.4779351730    2.2120479793   -0.1946700316
 H   -1.1832016783    1.6516169575   -0.4646848343
 H   -0.5246040835    1.6897434597    1.1770694943
 H   -0.0791073146   -0.6669163578   -2.0842859715
 H    2.4914387385   -0.5781487111   -2.4115496989
 H    3.9177951666    0.6145416846   -0.6850610456
 H    2.6512697970    1.8150944123   -0.9196180504
 H    1.0002835433   -0.9961931335    1.6833739187
 H    1.7423877771   -2.4209832495   -0.6020240277