21

 C    0.0223860359    1.4050589389   -0.0649563716
 O    0.1548459726    0.0110695006    0.0899819428
 C    0.5782004769   -0.6260673781   -1.0738335233
 C    0.6784933951   -2.1319774998   -0.8649943624
 O    0.3177092154   -2.6736110369    0.1511986755
 C    1.2815100748   -2.9080769001   -2.0342695669
 C    2.7684257880   -3.1959878909   -1.7480462128
 C    0.4937604437   -4.2011458247   -2.2586717919
 O    1.0420988122   -4.8511120439   -3.3956574298
 H    0.9786702614    1.8802867122   -0.3356610204
 H   -0.7190484690    1.6620036399   -0.8381822025
 H   -0.3128614110    1.8060163581    0.8940398417
 H   -0.1189046713   -0.4544851479   -1.9173361597
 H    1.5614171388   -0.2537446007   -1.4190611188
 H    1.2117805914   -2.3019058389   -2.9467611055
 H    2.8712323314   -3.7530169597   -0.8115754789
 H    3.1876299400   -3.7938977686   -2.5594528393
 H    3.3480697004   -2.2718595555   -1.6601212529
 H    0.5645673477   -4.8219331074   -1.3555847073
 H   -0.5707547457   -3.9640235339   -2.4120663647
 H    0.6247804313   -5.7132074729   -3.4778963312