21

 C   -0.0125087066    1.1689649159   -0.4896752364
 O   -0.0975542140    0.1006371800    0.4340217772
 C   -1.2971333546   -0.6050860395    0.3277975068
 C   -1.5546508828   -1.6519172992   -0.7270849245
 C   -0.2621451380   -2.4267906545   -1.0154833932
 C   -0.2059398994   -2.8934133816    0.4789425193
 C    1.0690495370   -2.7184207643    1.2957540766
 C   -1.4346438384   -2.0204422571    0.7715723094
 O   -2.4464937246   -2.4151509487    1.6346029450
 H    0.9591240395    1.6463846215   -0.3436502505
 H   -0.0909219974    0.8149260988   -1.5271650471
 H   -0.8047419659    1.9135189047   -0.3179774863
 H   -2.1818951409   -0.0061823060    0.5595999141
 H   -2.4317975527   -1.6186288559   -1.3622094315
 H   -0.3921530028   -3.2502298064   -1.7199112542
 H    0.5813293724   -1.8114394330   -1.3406191505
 H   -0.5388957148   -3.9357314806    0.5273959487
 H    1.4258675306   -1.6875413424    1.2486863095
 H    0.8957591277   -2.9735221127    2.3478773890
 H    1.8618210372   -3.3791315845    0.9270762340
 H   -2.3150818314   -1.9715802845    2.4795479346