15

 N   -0.1082567346    1.2551293195    0.3823338170
 C   -0.0186677807    0.0362299023    0.0270217913
 N    1.1661417200   -0.6738168403   -0.1755623039
 C    1.3377404715   -1.9179598091   -0.7677863651
 O    2.4284894606   -2.4394938772   -0.8002434843
 C    0.1118513078   -2.5320959721   -1.4290443893
 C   -1.2082551938   -2.0278511893   -0.9070829086
 O   -1.3437680144   -2.0010419746    0.5101633201
 C   -1.2679735920   -0.7467711573   -0.1871445084
 H    0.8095780085    1.6941119159    0.4823908969
 H    2.0283257079   -0.2625619900    0.1594074511
 H    0.1856079412   -2.3227578305   -2.5041494469
 H    0.1937067812   -3.6166166459   -1.3152619758
 H   -2.0965159596   -2.3585579333   -1.4443600525
 H   -2.1707368535   -0.1443172682   -0.1749045615