18

 O    0.6446715623    0.5814044748   -0.9153209444
 C   -0.0421918196   -0.2664504878   -0.0353062817
 C    0.2276144670   -0.1802504947    1.4933397952
 C   -1.2809508366   -0.4336730923    1.7223316758
 C   -1.5503252756   -0.0253964162    0.2548484039
 C   -1.7209489420   -1.8513176280    2.1762694663
 N   -2.5444144003   -1.6426744703    3.3781591448
 C   -2.5614392050   -0.3899598349    3.5602745165
 O   -1.8948758819    0.4282981027    2.7111466995
 H    0.5150792724    1.4893753590   -0.6208702745
 H    0.1314455422   -1.2787834235   -0.4110713149
 H    0.9412797329   -0.8746336424    1.9432811890
 H    0.4857599879    0.8429536680    1.7856699606
 H   -1.7914441882    1.0413289038    0.1996166666
 H   -2.2938231432   -0.5927418612   -0.3101785306
 H   -2.3089587019   -2.3684026694    1.4098647342
 H   -0.8665088675   -2.4924673531    2.4201485207
 H   -3.0785486527    0.1228430455    4.3638708231