14

 N   -0.2672454425    1.3683550167    0.1027161005
 C    0.0223708696   -0.0612446102   -0.0299604511
 C    0.8160332554   -0.3928457350   -1.2401140446
 N    1.4086496649   -0.6067936164   -2.2094010229
 C    0.7109453353   -0.5686467799    1.2085558514
 N    1.8460939862   -0.0160345822    1.6426000217
 N    2.1169801551   -0.7077374394    2.7368956215
 N    1.2659157077   -1.6690026171    3.0615168598
 C    0.3520525088   -1.5981843502    2.0926436578
 H    0.6017444965    1.8654746563    0.2771925140
 H   -0.6472916926    1.7262166396   -0.7689035550
 H   -0.9310831177   -0.5936905561   -0.1247882377
 H    2.9344272787   -0.5151298406    3.2941736839
 H   -0.4944172855   -2.2656374555    2.0742247707