19

 C    0.0484823574    1.5043205699    0.0969048778
 C   -0.0219296407   -0.0021975721   -0.0346102668
 C    0.6791125381   -0.6325827840   -1.2559638061
 C    0.1358369321   -2.0615138768   -1.1003913544
 O    0.8020942670   -2.6497755036    0.0345754402
 C    0.5307904004   -1.9578055136    1.2365799856
 O    0.6399365811   -0.5526944372    1.1340734548
 C   -1.3355497785   -1.7866457211   -0.7891755012
 C   -1.4232658052   -0.6093674571   -0.1688216572
 H    1.0892981859    1.8310430989    0.1737030306
 H   -0.4061105188    1.9840847035   -0.7750929109
 H   -0.4797185159    1.8370561480    0.9955870656
 H    0.3417479948   -0.1748582740   -2.1902234013
 H    1.7671997884   -0.5857800617   -1.1799499953
 H    0.3206643431   -2.7382869614   -1.9353378483
 H   -0.4714878996   -2.2267228599    1.6008333643
 H    1.2844926012   -2.2789329998    1.9592290731
 H   -2.1357713024   -2.4969918151   -0.9573558887
 H   -2.3094096083   -0.1637993529    0.2681597480