15

 O    0.1648803650    1.4180974014    0.0575207272
 C    0.0732892465    0.0191183861   -0.0282833150
 C   -1.3949491057   -0.4818878123   -0.0625878459
 C   -1.4631796055   -2.0182530659   -0.2223633878
 C   -2.8809887888   -2.5433621395   -0.3554476425
 O   -3.2501003277   -3.2529290659   -1.2534544501
 C   -2.0757660247   -0.0268019763    1.1535486779
 N   -2.5604357050    0.3531951034    2.1323304061
 H   -0.1464369651    1.6924675952    0.9278640238
 H    0.5521375755   -0.2689821738   -0.9687130321
 H    0.6045610415   -0.4874059541    0.7914265528
 H   -1.8853150269    0.0002570184   -0.9166963534
 H   -0.8983682046   -2.3243508792   -1.1066959367
 H   -1.0084118877   -2.4889773095    0.6597785400
 H   -3.5745943267   -2.2253680178    0.4539190758