22

 C    0.6350154349    1.5739482699   -0.1793318692
 C   -0.0992850208    0.2385649328    0.0357646231
 C    0.2240081759   -0.8321374647   -1.0441205452
 C    1.2074406381   -1.8354769240   -0.3894440492
 C    1.0399592391   -1.5549758938    1.0865566852
 C    0.3331676858   -0.4508669239    1.3113522745
 N    0.8687149845   -3.2194999458   -0.7331186149
 C    1.4774157260   -3.7437659761   -1.9526480841
 C    1.9493584714   -4.1940106844   -0.6153160499
 H    1.7180218405    1.4205255987   -0.2395835130
 H    0.3071532617    2.0559786371   -1.1065025395
 H    0.4432526696    2.2691334570    0.6451056913
 H   -1.1758918123    0.4525153855    0.0562345690
 H   -0.6810250348   -1.3873616468   -1.3058591146
 H    0.6210395931   -0.3909232904   -1.9627099698
 H    2.2519645845   -1.6202358013   -0.6922418371
 H    1.4830542903   -2.1913744766    1.8447639258
 H    0.1151418604   -0.0377265845    2.2913681506
 H    0.8445728584   -4.3830033898   -2.5613510837
 H    2.1395301176   -3.0877427447   -2.5163830879
 H    2.9266239161   -3.8388620759   -0.2902848717
 H    1.6682304600   -5.1687029183   -0.2270224297