17

 C    0.0133201126    1.5861236009    0.0076624697
 C   -0.0542475065    0.0488203989    0.0182906025
 C    0.7062276680   -0.5093061022    1.1411873008
 C    1.3259262428   -0.9561561829    2.0692625083
 C   -1.4724409627   -0.5131831366    0.0211145162
 C   -1.6668799363   -2.0026267133   -0.0566318243
 N   -2.4263293453    0.3323667284    0.0689569486
 O   -3.6791026734   -0.3002277766    0.0430707768
 H    1.0567501775    1.9081541109   -0.0307871588
 H   -0.5188613646    1.9825685818   -0.8593255285
 H   -0.4491352681    1.9981229180    0.9062572298
 H    0.4189523547   -0.3200952810   -0.9057909577
 H    1.8763760369   -1.3506721880    2.8871631546
 H   -2.2893415819   -2.3478288551    0.7741002359
 H   -2.1997097591   -2.2656882564   -0.9766190132
 H   -0.7124590647   -2.5298114806   -0.0269996864
 H   -4.2834197098    0.4477548536    0.0946476158