20

 C    0.0211002713    1.6413850862   -0.1870362758
 C    0.0046448848    0.1223648940   -0.0026013922
 C    0.6330343175   -0.6183953944   -1.1829385446
 C    0.6202035210   -2.1364331904   -1.0045712077
 O    0.1652948306   -2.6915150651   -0.0384442907
 N    1.1981939449   -2.8092384162   -2.0935005136
 C    1.3583432855   -4.1923872843   -2.2744515950
 C    2.0379305402   -4.5312453113   -3.5945199871
 O    1.0004556169   -5.0203723454   -1.4786629968
 H    1.0438288699    2.0214107907   -0.2910717322
 H   -0.5351103960    1.9424784734   -1.0821264889
 H   -0.4338167163    2.1455178053    0.6706705677
 H    0.5362584348   -0.1554832864    0.9131267263
 H   -1.0218125176   -0.2333259592    0.1325401286
 H    0.1075698883   -0.3726576100   -2.1168921864
 H    1.6727338315   -0.2938630171   -1.3329467448
 H    1.5424050920   -2.2230098652   -2.8391785708
 H    3.0341154115   -4.0789470413   -3.6491246647
 H    2.1292168469   -5.6139572357   -3.6697484296
 H    1.4542119224   -4.1570607578   -4.4425843317