14

 O   -0.0126679848    1.4588995532   -0.0308396122
 C    0.0638781973    0.0468898206    0.0245602737
 C    0.6651073414   -0.5127177912    1.2948936150
 C   -0.1921238803   -1.2680701895    1.9815242401
 C   -1.5390624957   -1.3943787831    1.3281226171
 C   -1.4245037527   -0.4840708709    0.1052075258
 O   -2.2862624913   -0.1712325249   -0.6581279615
 C    0.7298773209   -0.4927187513   -1.1732514713
 N    1.2830590068   -0.9081784534   -2.0998470892
 H    0.8629469037    1.8083956092   -0.2330670022
 H    1.6881211162   -0.2954250067    1.5771875206
 H    0.0400329294   -1.7530674445    2.9225620997
 H   -1.7694671903   -2.4176053571    1.0038678855
 H   -2.3746456607   -1.0765237105    1.9625317090