18

 O   -0.3624751107    0.7393613711    0.4138328606
 C    0.1706053911    1.6928080465   -0.1171487242
 N    1.4950399240    1.8037043183   -0.3932968684
 C    2.4633913679    0.7654607673   -0.0779403077
 C    3.2126153578    0.2814840525   -1.3515642205
 C    4.4352019912    1.1729260010   -1.4184535728
 O    4.1363827080    2.5649159505   -1.1926996098
 C    4.6585269145    1.7812740002   -0.1012899924
 C    3.5866825768    1.3004419303    0.8546420703
 H   -0.3895945882    2.5935973797   -0.4381754850
 H    1.8512227161    2.6362832010   -0.8382386888
 H    1.8915050089   -0.0356399756    0.3890316404
 H    3.5351703451   -0.7609037502   -1.2418407529
 H    2.5771945816    0.3432312749   -2.2389025002
 H    5.2372291497    0.9833285594   -2.1264517422
 H    5.6406291649    2.0822156816    0.2527791572
 H    3.2151480793    2.0810055124    1.5236892839
 H    3.9957943021    0.4938178793    1.4748355026