18

 C   -0.0493797314    1.6630877348   -0.1219052939
 C   -0.0422601585    0.1220175600   -0.0410084440
 C    0.5833464101   -0.3683299900    1.2679039879
 C   -1.4999149534   -0.3412619789   -0.1447128754
 O   -2.1068638392   -0.8672561097    0.7512054555
 C    0.7145791087   -0.4823143934   -1.2690149322
 O    0.1519954049   -0.1254168808   -2.5187709263
 C    2.1497577594   -0.1368371932   -1.2278020344
 N    3.2614454170    0.1790695490   -1.2149542521
 H    0.9739679818    2.0509957909   -0.1498987287
 H   -0.5827975892    2.0232385965   -1.0078861982
 H   -0.5470571645    2.0850716127    0.7553078194
 H   -0.0259400942   -0.0454271955    2.1143863688
 H    0.6283736526   -1.4611450390    1.3012246235
 H    1.5955465215    0.0252654555    1.3909440560
 H   -1.9784355636   -0.1327159824   -1.1238890682
 H    0.6360368191   -1.5744135818   -1.2168499926
 H    0.3925802789    0.7861644953   -2.7182566949