19

 C    0.8126809878    1.1022901618   -0.0850048358
 C   -0.1009742282   -0.1075604610   -0.0088585505
 O   -0.8734093786   -0.2696584501    0.9100808829
 C    0.0073122354   -1.1045795206   -1.1510846391
 C   -0.7916097230   -2.3836441629   -0.8960333394
 N   -0.7989220866   -3.2708021626   -2.0562389157
 C    0.3305939083   -3.9986046622   -2.3595332531
 N    0.1319105795   -4.9827343826   -3.3222390459
 O    1.4075581239   -3.8133410704   -1.8203861141
 H    1.8558633344    0.7828237459    0.0223551445
 H    0.7313039341    1.5933901741   -1.0607523382
 H    0.5661101435    1.8066320586    0.7104192748
 H   -0.3450682122   -0.6116326729   -2.0682584095
 H    1.0585018345   -1.3534325116   -1.3298344377
 H   -0.3762254626   -2.8978016069   -0.0225581455
 H   -1.8266721937   -2.1282452280   -0.6615575199
 H   -1.6844407480   -3.6901830262   -2.2906740941
 H   -0.5681653576   -4.8099323098   -4.0282901256
 H    1.0010383992   -5.3394840229   -3.6898599578