14

 O    0.1083197967    1.3915674339    0.0269971735
 C    0.0977194334    0.0179680205   -0.0129647002
 C   -1.1714203853   -0.7259219176    0.2376777634
 O   -2.2562963050    0.1211872080    0.4998579322
 C   -3.4963763798   -0.2851791994    0.0826427599
 O   -4.4718724753    0.3439103984    0.3320598894
 C   -0.5737115514   -0.7378031796   -1.1796324216
 C   -1.2240261043    0.0068110291   -2.2129479992
 N   -1.7647130059    0.6089585505   -3.0398132500
 H   -0.7938125731    1.7025285824    0.1824963827
 H    1.0261912742   -0.4137805652    0.3454292829
 H   -1.1720598515   -1.6554834316    0.7990046338
 H   -3.4625098669   -1.2341083689   -0.4793537317
 H   -0.1125038657   -1.6669416504   -1.4979185650