16

 C   -0.1306106526    1.4421960487    0.0120028300
 C   -0.0725353156   -0.0115717513    0.0030747828
 C   -0.0248958664   -1.2136368715   -0.0042971729
 C    0.0724154117   -2.6609841974   -0.0136330079
 O   -1.2586709306   -3.2236498102   -0.0035432886
 C   -1.3173268962   -4.5623779187   -0.0098709440
 N   -0.3058881754   -5.3258701791   -0.0238383917
 C   -2.7581164043   -5.0290498739    0.0020157952
 O   -3.0461551639   -6.1967074375   -0.0011276255
 H    0.8765203252    1.8729507150    0.0050596058
 H   -0.6616270175    1.8246576943   -0.8662202379
 H   -0.6450393117    1.8144299793    0.9043794072
 H    0.6005568694   -3.0302773275   -0.9003818505
 H    0.6181859443   -3.0404678292    0.8580002281
 H   -0.6340302718   -6.2942501703   -0.0255398211
 H   -3.5142285648   -4.2197884208    0.0136351908