21

 C   -0.0691731018    1.4925551617   -0.0244096604
 C    0.0078362518   -0.0127659488    0.0184457557
 C   -0.8101376412   -0.8172832307    0.9990882619
 C    0.6976841643   -0.7964152303    1.1157720717
 C    1.4136919193   -1.9164771056    0.4215523677
 C    2.8997843970   -2.1297886317    0.5531279850
 C    1.9092884871   -3.1737013705    1.0522732667
 O    0.8184237407   -2.0516295561   -0.8531116096
 C    0.3703637232   -0.7595778783   -1.2595275190
 H    0.8558182372    1.9280241510   -0.4203012209
 H   -0.8949008106    1.8320798064   -0.6611598546
 H   -0.2341436080    1.9085152617    0.9741767147
 H   -1.3712806742   -0.2613578659    1.7428053476
 H   -1.2825149714   -1.7345986977    0.6619060326
 H    1.1747093585   -0.3059386866    1.9562247365
 H    3.4438629252   -2.3611317197   -0.3557577736
 H    3.4527967833   -1.5477227261    1.2835372009
 H    1.7804343300   -3.2992164229    2.1218807730
 H    1.8134129608   -4.0848043798    0.4722725524
 H   -0.4689754347   -0.9089699965   -1.9474579828
 H    1.1656290735   -0.2142052035   -1.7942603655