14

 O   -0.2859892838    1.2475645120    0.0847442406
 C    0.0524870412   -0.1220135090   -0.0393796034
 C    0.8013043129   -0.3647977636   -1.2946723616
 N    1.4111162406   -0.5293632757   -2.2623353321
 C    0.8171096364   -0.6742685018    1.1470787415
 C    0.0637527853   -1.0077207052    2.4070221320
 C    0.6290630696   -2.1143155564    1.5550872725
 H    0.5305825365    1.7545864102    0.1603062352
 H   -0.9070036139   -0.6459951200   -0.1194635199
 H    1.8172718321   -0.2631109901    1.2565739112
 H    0.5396040915   -0.7880543818    3.3557042857
 H   -1.0106447708   -0.8576562629    2.4042182574
 H   -0.0635020765   -2.7184937903    0.9783785896
 H    1.4971728890   -2.6565404255    1.9107504311