19

 C   -0.0734642932    1.4521053077   -0.0346633906
 O    0.2588085378    0.0904639176    0.1576222743
 C    0.7211294894   -0.5551010546   -0.9973031347
 C    1.3046552017   -1.9471209489   -0.8142205576
 C    0.2977778809   -2.9934076143   -0.5513621940
 C   -0.9616076295   -2.8484016389    0.2700653346
 N    0.4210716310   -2.4994687159   -1.9584269801
 C   -0.2522209610   -1.2194688904   -1.9973366805
 N   -1.2359488298   -0.9252676645   -2.7232764207
 H    0.7731265234    2.0162087369   -0.4543658203
 H   -0.9400909219    1.5798231471   -0.6979508913
 H   -0.3228299954    1.8619834207    0.9463836496
 H    1.4259842823    0.0893984628   -1.5466237628
 H    2.3687764752   -2.1537572723   -0.8027740336
 H    0.7322707933   -3.9901330774   -0.4999385081
 H   -1.3164446228   -1.8190250106    0.3148329493
 H   -1.7546517131   -3.4787767315   -0.1447693492
 H   -0.7645357602   -3.1810139069    1.2944108490
 H   -1.5006994380    0.0532596834   -2.6018978332