16

 O    0.2870981257   -0.2336741589   -0.0999598983
 C    0.0944701304    0.9529288177   -0.1333799716
 C    1.1932963971    1.9985728800    0.0065003560
 C    1.1894942179    2.9407403805   -1.1677407780
 C    1.9744993495    2.7389941857   -2.4246529303
 N    2.3434220715    3.8717432130   -1.5830012818
 C    1.3491473047    4.9497280613   -1.9376655129
 C    0.2164027945    4.0610108927   -1.3882643615
 O   -0.9072286942    4.2512326656   -1.0184368074
 H   -0.9240291470    1.3764577211   -0.2689045387
 H    0.9956160805    2.5682116395    0.9250983449
 H    2.1568230732    1.4931466007    0.1064901674
 H    2.6904951474    1.9223409973   -2.4042309714
 H    1.5182389724    2.9212510057   -3.3955995486
 H    1.4928736524    5.8407500965   -1.3213108432
 H    1.3430395339    5.2263621016   -2.9954247146