20

 C   -0.0308234427    1.4837422242   -0.2895624210
 C   -0.0143503543    0.0076615947    0.0203529975
 O    1.2497983378   -0.6624636173   -0.0100923057
 C    0.5448844521   -0.5964595299    1.2423430845
 C    1.1998712701    0.1760976426    2.3524724635
 C    0.3218708539    0.5945621614    3.5958382153
 C    1.2780129276   -0.2018515797    4.4893327279
 N    1.2140061787   -1.6004791403    4.0004718172
 C    2.0960276956   -0.6201629188    3.3204994599
 H    0.7636861525    2.0210025784    0.2319585050
 H    0.1031293554    1.6446015406   -1.3645509111
 H   -0.9941066864    1.9210541504   -0.0046100852
 H   -0.8118533781   -0.5554285676   -0.4708972303
 H    0.1272217306   -1.5504971506    1.5646412088
 H    1.7381295593    1.0367478596    1.9522226740
 H    0.3452573798    1.6720445878    3.7701237783
 H   -0.7132940396    0.2435359587    3.6021529233
 H    1.5737764484    0.0142706972    5.5083231215
 H    1.8090002518   -2.1627280472    4.6081353087
 H    3.1600534275   -0.8015368843    3.2320310780