15

 N   -0.4716984277    0.9299211525    0.8572295164
 C   -0.1831988364   -0.0594406408    0.0976186909
 N   -1.1080298174   -0.6486646515   -0.7146008369
 C   -2.4715442787   -0.1665354828   -0.7930590856
 C   -3.3155664692   -0.5782007684    0.4382174584
 C   -4.7001041768   -0.1363414142    0.3084372494
 N   -5.7915586202    0.2190340882    0.1758098477
 C    1.1428961448   -0.6531673161    0.0114684895
 N    2.2070972979   -1.1032403679   -0.0271895681
 H    0.3425673073    1.2584523839    1.3685458613
 H   -0.8345927852   -1.4557079133   -1.2477294927
 H   -2.4571635496    0.9245146943   -0.8630512494
 H   -2.9201791565   -0.5635278187   -1.7060953278
 H   -3.2973742183   -1.6664903189    0.5602025518
 H   -2.8730616140   -0.1329907562    1.3340485750