14

 O    0.0148425946    1.3314351036    0.2996060439
 N    0.0238605075   -0.0120528195    0.0395272656
 C   -1.1200446601   -0.5844690561   -0.0240786613
 C   -1.0867713901   -2.0759253423   -0.2828056984
 O   -2.2125767935   -2.4478175064   -1.0628453649
 C   -3.3782574230   -2.1323379653   -0.3870809600
 O   -3.5375643378   -0.7257502122   -0.1609736142
 C   -2.4663681890    0.0746981349    0.1019884648
 O   -2.6472563620    1.2268518937    0.3758329177
 H    0.9546963446    1.5512581476    0.2783913416
 H   -0.1868665328   -2.3467968156   -0.8354817750
 H   -1.0939889164   -2.6330062278    0.6689449912
 H   -4.2228309889   -2.4310756957   -1.0091959474
 H   -3.4230592632   -2.6380562988    0.5912649563