21

 C   -0.1308876031    1.3679536457   -0.0200540391
 O    0.0784375570   -0.0249050925   -0.0331731630
 C    0.6432256683   -0.5242122935    1.1679463835
 C    0.6995283446   -2.0390605103    1.0241867636
 O   -0.6033656395   -2.5246275249    0.7621229711
 C    1.7709132979   -2.6517199248    0.0463237540
 C    2.3126908168   -3.4943514942    1.2096036629
 C    2.7850999110   -2.5963373756    2.3138396609
 C    1.3077030892   -2.8528420318    2.1682813430
 H    0.8140937480    1.9179186767    0.1072259550
 H   -0.5725982785    1.6429399300   -0.9810209169
 H   -0.8154712552    1.6688260939    0.7879405514
 H    1.6417435727   -0.0928062442    1.3318769511
 H    0.0089707336   -0.2584972054    2.0297174487
 H   -0.9705303874   -1.9298335181    0.0951151104
 H    1.2657185862   -3.2406591805   -0.7201862507
 H    2.4817811364   -1.9655374441   -0.4262388322
 H    2.6156647504   -4.5319809525    1.1470859865
 H    3.2459048715   -3.0945879831    3.1609632374
 H    3.2173809054   -1.6239891306    2.0900556678
 H    0.7125392847   -3.3055175203    2.9517391947