19

 C   -0.1544040872    1.5341584728   -0.0315321779
 C   -0.0281205979    0.0144345364   -0.0488567477
 N   -1.3273972463   -0.5698949765   -0.2646678753
 C    1.2299334425   -0.4590852133   -0.8398744501
 O    1.9726301119   -0.6270405324    0.3895014632
 C    0.7724398376   -0.5666613848    1.1875791135
 C    0.9441645731    0.2382311465    2.4660167106
 C    0.3216372297   -1.9378752703    1.5124129629
 N   -0.0302543308   -3.0159237966    1.7373551797
 H    0.8101033313    2.0162864740    0.1422271149
 H   -0.5235477315    1.8787243381   -1.0044415766
 H   -0.8632136933    1.8600790112    0.7339393710
 H   -1.7862769328   -0.1624638065   -1.0718972247
 H   -1.2791674158   -1.5743543301   -0.3990651056
 H    1.0863392469   -1.4151220804   -1.3608451674
 H    1.7143321636    0.2587317009   -1.5096498176
 H    1.3097805531    1.2397358508    2.2364844397
 H   -0.0083287056    0.3121906426    2.9984495699
 H    1.6673789313   -0.2552578825    3.1209670177