16

 O    0.0241253039    0.6032839743    1.1616862246
 C   -0.0145304087    1.3873224494    0.2381489954
 N    1.0684746180    1.7619597523   -0.5007628454
 C    2.3884296873    1.2055877138   -0.2279291475
 C    3.0595426176    0.8824051189   -1.4970078916
 N    3.5910013901    0.6552916574   -2.4970667753
 C    3.2524800309    2.1134213791    0.6407212954
 C    3.0956139546    2.0285323995    2.1129874650
 N    4.3234255755    1.5417286803    1.4602199134
 H   -0.9418549196    1.8814386719   -0.1049486711
 H    0.9560192783    2.4178839463   -1.2576320729
 H    2.2063403975    0.2734732328    0.3206799237
 H    3.5047986736    3.0648635168    0.1777386356
 H    3.2254074290    2.9203673771    2.7183504550
 H    2.3759468530    1.3106332312    2.4957690611
 H    4.3199676590    0.5254368788    1.4045394546