21

 C   -0.0529154803    1.3272971359   -0.1665280824
 O   -0.0313213357   -0.0501779227    0.1313950454
 C   -1.2265177303   -0.7222754365   -0.2202151593
 C   -1.0785777736   -2.1580237706    0.2802085622
 O   -0.7917458777   -2.1666297058    1.6681244332
 C   -2.3634389732   -2.9286074957    0.0855319134
 O   -2.7202916122   -3.2525891888   -1.2620416729
 C   -2.4428927780   -4.3300326081   -0.3552968821
 C   -1.2643930819   -5.2169758008   -0.6596593529
 H    0.9044386847    1.7462141365    0.1524527493
 H   -0.1782040292    1.5052417962   -1.2451182788
 H   -0.8658769123    1.8451397802    0.3652576563
 H   -2.0918838570   -0.2408138284    0.2651895533
 H   -1.3877263913   -0.7100602313   -1.3083350781
 H   -0.2646067708   -2.6269192992   -0.2915014452
 H   -0.1587097558   -1.4504388386    1.8046820601
 H   -3.1859296812   -2.5456609438    0.6937521624
 H   -3.3414549220   -4.8702213652   -0.0492045377
 H   -0.3912260335   -4.6423544359   -0.9736621527
 H   -0.9967779209   -5.8058400958    0.2239416760
 H   -1.5179866378   -5.9140394917   -1.4651302994