9

 N   -0.2236772110    1.3027179494    0.0119204895
 C   -0.0213516267    0.0670742823    0.0024385125
 O   -1.1439786165   -0.7523648364    0.0091407389
 C   -0.9490541328   -2.0879605285   -0.0004447044
 O    0.0981632047   -2.6678978150   -0.0142286396
 C   -2.2451433221   -2.7692023523    0.0086283301
 N   -3.2363922610   -3.3612760305    0.0151853819
 H    0.6621676010    1.8065610674    0.0057064788
 H    0.9121889444   -0.4933677164   -0.0106047777