19

 O    0.2220024781    1.3094803550   -0.2601957737
 C    0.0846819387   -0.0455079994    0.1402205535
 C   -1.3533510912   -0.5263381851    0.0652675605
 C   -2.0254665841   -0.5967904848   -1.3286527813
 N   -2.6221584772   -1.8914703417   -0.9345506760
 C   -2.7168868658   -2.9230423993   -1.9443098598
 C   -3.3042904516   -4.1531963354   -1.3999556736
 N   -3.7466356028   -5.1282435628   -0.9668961598
 C   -1.6376094992   -2.0482987055    0.1582715940
 H   -0.2485117294    1.8566841287    0.3769427509
 H    0.7086809714   -0.6209469407   -0.5529862411
 H    0.4874271605   -0.2123458894    1.1523150191
 H   -1.9765819559    0.0303246587    0.7730483893
 H   -2.7497505124    0.1748800692   -1.6049459290
 H   -1.2752713485   -0.6862959577   -2.1318510287
 H   -3.3573786800   -2.5653089979   -2.7594796944
 H   -1.7391103839   -3.1851000199   -2.3954360822
 H   -0.7579297945   -2.6471569992   -0.1335148323
 H   -2.0463137522   -2.4516438728    1.0884432445