14

 O    0.0194860622   -0.0618312681    0.0037507817
 C   -0.0344134756    1.1490481459    0.0077365493
 C    1.1887262836    1.9721944100    0.0014986014
 N    2.1673665053    2.5863850400   -0.0036290789
 N   -1.1922844454    1.8668782868    0.0181301519
 C   -2.5172433195    1.2272677484    0.0255132520
 C   -3.4512936603    2.4707478133    0.0353559938
 N   -2.5819744923    3.6606883889    0.0327170904
 C   -1.3796999907    3.2596770278    0.0233071970
 H   -2.6310468394    0.5962549713   -0.8592197782
 H   -2.6188781670    0.5914554015    0.9082929911
 H   -4.1062154362    2.5033280659   -0.8402415797
 H   -4.0941882962    2.4984220199    0.9199861161
 H   -0.5101817485    3.9068980285    0.0191309221