16

 C    0.1900390535    1.5126815546    0.1014461736
 C    0.0556589534    0.0082242249   -0.0210162134
 C    0.7567491323   -0.6125229103   -1.2972479507
 C    1.4378654069   -1.7673793802   -0.6457795662
 C    1.3407488739   -1.6722193273    0.7106324596
 O    0.6386413741   -0.6130452757    1.1739740814
 N    2.0093621294   -2.6601465165    1.3282809708
 N    2.5490535192   -3.4016520128    0.3797632712
 N    2.2141863644   -2.8592066095   -0.8181845605
 H    1.2446513420    1.8035574358    0.1212862565
 H   -0.2924856107    2.0055723107   -0.7487794877
 H   -0.2838405221    1.8669747059    1.0204014171
 H   -1.0013514128   -0.2826118757   -0.0265752164
 H    0.0148815211   -0.8743522896   -2.0575066317
 H    1.4601871127    0.0977552219   -1.7510988748
 H    2.5367797227   -3.3138804061   -1.6566148989