16

 C    0.0442418947    1.4941141624    0.0685647907
 C    1.3066041247    0.6290018756   -0.0352602172
 N    2.1898397462    0.4437804286    1.0829183848
 C    1.8865702919   -0.4425555717    1.9340900882
 O    0.7896440352   -1.2487571070    2.0124882765
 C   -0.3115902160   -0.9512931055    1.1659194008
 C   -0.6471919862   -1.9285576866    0.0174678937
 O   -0.6590789445   -0.8312158288   -0.9355300839
 C   -0.0473937229    0.0139970821    0.0342913593
 H   -0.1768930169    2.0069679132    1.0003715316
 H   -0.2209867882    2.0385549022   -0.8316005628
 H    1.8203532462    0.6853200581   -0.9896191995
 H    2.5520432610   -0.6655610149    2.7647665868
 H   -1.1677122117   -0.7162148485    1.8056922230
 H    0.1584224225   -2.6437131907   -0.1852770834
 H   -1.6118343261   -2.4400490284    0.0607953114