23

 C    0.2594720767    1.4352540547    0.1669239733
 C   -0.1034429089   -0.0447287913   -0.0259879192
 C   -1.6267769869   -0.2709509031   -0.1315620306
 C   -2.3844452255    0.0663957405    1.1297176884
 C   -3.4924075683   -0.7615550511    1.6223194337
 O   -2.2036239622   -0.8296762179    2.2341795462
 C    0.6007442944   -0.6155935329   -1.2442846471
 C    2.0290132406   -1.0875418659   -1.1547452864
 C    0.9116516998   -2.0876292980   -1.3361795547
 H    1.3444217152    1.5605659575    0.2332555053
 H   -0.0927756198    2.0377923371   -0.6792760111
 H   -0.1792774215    1.8509933304    1.0788988679
 H    0.2432638883   -0.6035066786    0.8542228272
 H   -2.0311274615    0.3283593550   -0.9599580977
 H   -1.8114124049   -1.3224888102   -0.3783048823
 H   -2.3856006195    1.1173692978    1.4229235117
 H   -4.2779583461   -0.3165246068    2.2320606425
 H   -3.7895963882   -1.6458676901    1.0593587876
 H    0.3223388917   -0.1329495938   -2.1798564588
 H    2.6944625218   -0.8980546123   -1.9898110297
 H    2.5137750045   -1.0465766425   -0.1843223020
 H    0.6530895792   -2.7120690467   -0.4867180063
 H    0.8126907312   -2.5828434317   -2.2959100880