15

 C   -0.0538974984    1.4652962946   -0.0013464598
 N    0.0105562898    0.0196040589    0.0205504506
 C    0.0992327205   -0.8127505621   -1.0545908803
 N    0.1382937867   -2.0779230853   -0.7066801462
 C    0.0716678876   -2.0825134846    0.6713891180
 C    0.0901354405   -3.3557002705    1.4535588895
 C   -0.0078764834   -0.7934135604    1.1359655781
 H    0.7907439899    1.9046140562    0.5389595844
 H   -0.0174691095    1.8063415881   -1.0378947512
 H   -0.9842942581    1.8242247378    0.4501996560
 H    0.1312385753   -0.4290439902   -2.0645878604
 H    1.0070484396   -3.9233895142    1.2613155316
 H    0.0293024562   -3.1592473921    2.5275945115
 H   -0.7502417142   -4.0011536458    1.1759169835
 H   -0.0740047424   -0.3840038104    2.1311329447