18

 C   -0.0124837309    1.4598851269    0.1064338833
 N    1.2983394091    0.8188001999   -0.0867316793
 C    1.6364697900    0.1932246391    1.2439208592
 C    0.3787467206   -0.7003318171    1.2361907905
 O    0.7288315527   -2.0511817980    1.0208013635
 C   -0.2650233410   -2.7870946217    0.3228318422
 C   -0.7305901028   -2.1175075890   -0.9470460719
 C   -0.5669718602   -0.8080347834   -1.1508636217
 C   -0.0129076104   -0.0053467115   -0.0624643774
 H   -0.2577531443    1.8987994385    1.0738533038
 H   -0.3196347459    2.0583385790   -0.7472141006
 H    2.5466106717   -0.4019737770    1.1621819320
 H    1.7317954495    0.9185406648    2.0587726714
 H   -0.3306216273   -0.6123002203    2.0734272482
 H    0.1950467661   -3.7535727209    0.0895836846
 H   -1.1278565682   -2.9979644427    0.9805701169
 H   -1.1952949902   -2.7538473801   -1.6945420991
 H   -0.8552618385   -0.3281422963   -2.0810837358