18

 C   -1.0853671212    1.7035183787    0.4472199949
 C    0.4287119801    1.4759803881    0.0451560695
 C   -0.0846508544    0.3923205192   -0.9448867068
 O    0.5857191104   -0.8217557981   -1.2071364989
 C    0.4460061152   -1.5707583287    0.0160377871
 C    1.2789841895   -0.7711120400    1.0183452578
 N    0.4663931943    0.4665430196    1.1750172070
 C   -0.8315731196    0.1770775010    0.3981957233
 C   -1.0475590588   -1.3141569039    0.4879805159
 H   -1.7449306164    2.1285379478   -0.3111962001
 H   -1.2269364538    2.1331484130    1.4378968564
 H    1.1967631024    2.2449235877   -0.0701562437
 H   -0.6140077826    0.7255758193   -1.8427963590
 H    0.7262211305   -2.6081671754   -0.1704156077
 H    2.2825271808   -0.5812038951    0.6272831604
 H    1.3678755106   -1.2494849037    2.0001677237
 H   -1.7707249482   -1.7139582848   -0.2250700461
 H   -1.2349892288   -1.7028390146    1.4908519864