21

 C   -0.6437335802    1.3719403398   -0.1137134469
 C    0.0143080448   -0.0192510248   -0.0403183659
 O    0.6691122240   -0.3537892154   -1.2545577034
 C    1.8950056724    0.2836380444   -1.5500463327
 C    3.0807401464   -0.4707360209   -0.9365957016
 O    4.2974035197   -0.1216806520   -1.5915055864
 C    3.3039183186   -0.1470888832    0.5357489166
 C    2.1239201960   -0.2257354394    1.4654243638
 C    0.8120496824   -0.1674490749    1.2328476996
 H    0.1038256598    2.1697183388   -0.1466912629
 H   -1.2701162510    1.4370246748   -1.0077014906
 H   -1.2715291016    1.5446031089    0.7657937016
 H   -0.7982859500   -0.7566813961    0.0081884913
 H    1.9896946651    0.2615837784   -2.6431462226
 H    1.9098040461    1.3393823293   -1.2444838748
 H    2.8651730917   -1.5444957008   -1.0480087719
 H    4.2492293917   -0.4398204605   -2.4985421867
 H    4.1019043190   -0.7973465454    0.9128201636
 H    3.7199930477    0.8714218943    0.5833459003
 H    2.4154667198   -0.3013468757    2.5119388371
 H    0.1625907474   -0.1968931195    2.1076965725