19

 O   -0.1798813447    1.6212128090    0.0644255325
 C   -0.1223597236    0.2052499355    0.0238642199
 C   -1.5529897587   -0.3173303767    0.0188923208
 C   -1.6064212616   -1.8427124648   -0.0233912854
 C   -3.0120542903   -2.4074610291   -0.0299018020
 N   -4.0394125775   -1.6685324888   -0.0024957919
 N   -3.0145705097   -3.8269272115   -0.0694637925
 C   -4.1096663903   -4.6530713966   -0.0852165869
 O   -5.2670493444   -4.2990872474   -0.0679221134
 H    0.7196987423    1.9605783910    0.0666041626
 H    0.4089228435   -0.1469544137   -0.8770250252
 H    0.4211950332   -0.1972589900    0.8959205983
 H   -2.0756771891    0.0484525280    0.9070291663
 H   -2.0874886655    0.0973231272   -0.8402667198
 H   -1.0799732730   -2.2186087578   -0.9137949997
 H   -1.0684228288   -2.2675490915    0.8376118471
 H   -4.8924554149   -2.2279441599   -0.0124486785
 H   -2.1147020764   -4.2838517680   -0.0881212697
 H   -3.8105740104   -5.7189009149   -0.1170516326