14

 N   -0.0961104047    1.3227111706   -0.0055800767
 C    0.0757417954   -0.0138923206   -0.0096281347
 O    1.1442102649   -0.6015305898    0.0048299325
 N   -1.1416436248   -0.7232819636   -0.0331058219
 N   -2.3774856822   -0.0965241429    0.0099082288
 C   -3.1943177593   -1.1229863345    0.0363435547
 N   -2.6214388224   -2.3619466879    0.0149102263
 C   -1.3290731156   -2.0859076016   -0.0309369952
 N   -0.3119649802   -2.9671581010   -0.1117624182
 H    0.7191765163    1.9077184194    0.0305414805
 H   -1.0275755463    1.7058909927    0.0039476953
 H   -4.2653670007   -0.9837003589    0.0734123800
 H   -0.5248144760   -3.9264141665    0.1013923707
 H    0.6189008256   -2.6019972853    0.0310932179