19

 C   -0.0237671470    1.5722005244   -0.0271979487
 C    0.0959382817    0.0482464333    0.0116130064
 C    0.7370728649   -0.5282233984   -1.2635222571
 C    0.8875760104   -2.0443586133   -1.1392845323
 C    1.7103142956   -2.3638841812    0.0995983780
 O    1.1856814249   -1.7602882595    1.2908629424
 C    0.8033872346   -0.4441118117    1.2648163600
 N    0.9362205491    0.2882340989    2.2891479760
 H    0.9644611431    2.0389843407   -0.0831587280
 H   -0.6003299995    1.8814343607   -0.9052577514
 H   -0.5131172613    1.9496692313    0.8713200986
 H   -0.9172619830   -0.3793464187    0.0756688659
 H    0.1256808491   -0.2609653972   -2.1315868916
 H    1.7233747569   -0.0692037839   -1.4185751210
 H   -0.0997851380   -2.5154325183   -1.0582216045
 H    1.3824417778   -2.4733339284   -2.0176586717
 H    1.7355320798   -3.4360316533    0.3100227387
 H    2.7467577949   -2.0220614833   -0.0380340067
 H    1.4005755659   -0.2407981920    3.0307632071