19

 C    0.0493251986    1.5606829298   -0.0538169980
 C    0.0552318878    0.0447817917    0.0332261787
 O    0.7655551198   -0.4839507406   -1.0851733079
 C    1.2021495009   -1.7988331959   -0.7591076567
 C    1.5255160513   -1.7596369859    0.7237074408
 C    2.2792922154   -0.5516798199    1.1953567658
 C    0.7590661496   -0.5570403300    1.2608151552
 C    0.0739887077   -0.5551281692    2.5147961355
 C   -0.5275698088   -0.5284913988    3.5569027567
 H    1.0685024436    1.9560183806   -0.0233128760
 H   -0.4202749454    1.8850620666   -0.9863928244
 H   -0.5146831353    1.9802885858    0.7841201580
 H   -0.9822954380   -0.3290357107    0.0336026017
 H    0.4139451107   -2.5434629258   -0.9549889176
 H    2.0606077126   -2.0255744556   -1.3999636989
 H    1.5700055977   -2.6836180646    1.2867133355
 H    2.8010864073   -0.6230760248    2.1417800357
 H    2.7464560201    0.0859473157    0.4519330698
 H   -1.0508397155   -0.5106737284    4.4804176261