14

 C   -0.0394891618    1.5686145287    0.1129466814
 C   -0.0184503389    0.0768800031    0.0318551080
 C    0.0673434056   -0.7216432302   -1.0808935107
 O    0.0592756962   -2.0384356037   -0.7704272684
 C   -0.0338099115   -2.1009319865    0.5744038689
 C   -0.0845036256   -0.8513612187    1.1169094032
 N    0.1602089458   -0.3913465625   -2.4622732858
 O    0.1664251581    0.8123808150   -2.7286072679
 O    0.2262539885   -1.3036754606   -3.2758986965
 H    0.8641966143    1.9977568287   -0.3282778481
 H   -0.8811502150    1.9798186268   -0.4509574728
 H   -0.1158928684    1.8943861398    1.1527740893
 H   -0.0528254131   -3.0934562078    0.9940216427
 H   -0.1600931841   -0.6073486521    2.1652279467