17

 C   -0.0167709519    1.3822634227    0.0450503001
 O   -0.0547338250   -0.0234108706   -0.0343107282
 C    0.6920044313   -0.5322275452   -1.1133639991
 C    0.5498233934   -2.0564527591   -1.1016239336
 C    1.2865041328   -2.7058893694   -2.2241468689
 C    2.3979087803   -3.4877840199   -2.2509453215
 O    2.6788170483   -3.8186081876   -3.5086683574
 N    1.6725676888   -3.1962503059   -4.3139633828
 N    0.8997734709   -2.5724948849   -3.5460705779
 H    1.0093786078    1.7556645878    0.1899903812
 H   -0.4280258091    1.8533363775   -0.8613488666
 H   -0.6243362894    1.6772468286    0.9037831971
 H    0.3275488640   -0.1290085506   -2.0721373969
 H    1.7550231486   -0.2491377470   -1.0237911783
 H    0.9173190220   -2.4416395030   -0.1458615889
 H   -0.5151835323   -2.3037354464   -1.1620119604
 H    3.0504358097   -3.8701356270   -1.4830515278