17

 C    0.1340524660    1.3411481262    0.5952069069
 C    0.0005857354   -0.0569560456    0.0403308152
 C   -1.3025612678   -0.5867275387   -0.3756142907
 O   -0.3480378302   -0.1491726005   -1.3442926563
 N    1.4018756461    1.9529473918    0.2423168371
 C    1.8654785116    2.2439834569   -1.0005207254
 C    3.1153329764    2.8030229636   -0.8363159932
 C    3.3188358754    2.8044428117    0.5588121680
 N    2.2805720668    2.2884173942    1.2117993808
 H   -0.6925590468    1.9576850123    0.2248369761
 H    0.1002710324    1.3274075927    1.6867607829
 H    0.7760463449   -0.7562973278    0.3531005036
 H   -1.4812245358   -1.6599372886   -0.3449157820
 H   -2.1922444936    0.0347649530   -0.2813165251
 H    1.2787352217    2.0202353952   -1.8770393073
 H    3.7778473749    3.1564436539   -1.6095623017
 H    4.1739448727    3.1604492297    1.1146239411