17

 O   -0.0665073682    1.4279515834   -0.0940013694
 C    0.0404379741    0.0546711525   -0.0482733164
 C   -0.0513581774   -0.8368900146    1.1354645913
 O    1.0456715602   -1.7069225567    1.2701378507
 C    1.4600189822   -2.0116264752   -0.0595455901
 C    0.4813643268   -3.0289326467   -0.7016123450
 C   -0.3716375702   -1.8184800113   -1.1509407186
 C   -1.0505699309   -1.0293154168   -0.0089273678
 C    0.8563664299   -0.8681387185   -0.9845681032
 H    0.5808528705    1.8054523957    0.5123936768
 H   -0.4355997770   -0.4798316916    2.0834345899
 H    2.5294993764   -2.2273303814   -0.0501015924
 H    0.9333331867   -3.5304468499   -1.5631613572
 H    0.0462069478   -3.7708340211   -0.0276919107
 H   -0.9454816788   -1.8562105511   -2.0774958510
 H   -2.1164822912   -0.9449454655    0.1703708976
 H    1.4318297590   -0.4735083412   -1.8173793945