18

 C    0.1322545282    1.4661693628    0.0689992445
 N    0.0612139029    0.0276789247    0.1064433332
 C   -1.0691579017   -0.9100998606    0.0907142021
 C   -0.0186533537   -2.0581958717   -0.0112907421
 C    1.0398508845   -0.9326452119   -0.0192749253
 O    2.2361646138   -0.8506091791   -0.1100564082
 C   -1.9270061965   -0.8795807944    1.3296198857
 C   -3.2157246791   -0.1739353494    1.3640385987
 O   -3.1585424422   -1.5958384394    1.2490782294
 H    1.1889544424    1.7401086779    0.0215394202
 H   -0.3773443621    1.8722161139   -0.8140900076
 H   -0.3097766668    1.9185524808    0.9638901233
 H   -1.7085727428   -0.8127185148   -0.7960716547
 H    0.0288335499   -2.7250391276    0.8520520508
 H   -0.0581026855   -2.6483065381   -0.9279680003
 H   -1.3841432137   -1.0090981915    2.2681547863
 H   -3.5982100673    0.2052709833    2.3102416130
 H   -3.5650308904    0.3514820051    0.4756967408