11

 C    0.0446856551    1.4486999846    0.0082015625
 C    0.0030371107   -0.0016768550   -0.0093008126
 C   -0.0542986004   -1.2086633484   -0.0231298400
 C   -0.0750080797   -2.6490265375   -0.0383038068
 O   -1.0756889614   -3.3259467165   -0.0766139691
 C    1.3304276804   -3.3024574053   -0.0006427201
 O    1.4800174610   -4.4906586109   -0.0081181287
 H    1.0690752113    1.8223396932   -0.0855943859
 H   -0.5498249321    1.8621628245   -0.8134504950
 H   -0.3740665496    1.8317152671    0.9452794655
 H    2.1784616148   -2.5839948557    0.0335382902