18

 C    0.0919414151    1.5305624358    0.0147654768
 C   -0.0018194527   -0.0024839174    0.0544218976
 O   -1.3592331133   -0.4036096088    0.2749512786
 C    0.6726513096   -0.6621963359   -1.1629464368
 C    2.0089134509   -1.2220479609   -0.6285944766
 O    2.9070224766   -1.6465451845   -1.3252344362
 C    1.9434406768   -1.1681128418    0.8268526576
 C    0.7979783900   -0.5646568215    1.2260790600
 N    0.3142254582   -0.3381662961    2.4748242681
 H    1.1265525816    1.8530764582   -0.1301382951
 H   -0.5012241177    1.9200585028   -0.8211901259
 H   -0.2826036680    1.9683385317    0.9437334645
 H   -1.9144828922    0.0677846158   -0.3545213154
 H    0.0593259292   -1.4985898772   -1.5123827095
 H    0.8392038736    0.0140399554   -2.0053357362
 H    2.7069956907   -1.5886765371    1.4684104579
 H    0.7165569498   -0.8514232637    3.2431056301
 H   -0.6843306180   -0.1977936349    2.5278882403