18

 C    0.0588677678    1.5098816080    0.0804743016
 C   -0.0321859657    0.0198194627    0.0043752039
 C   -0.1736811866   -0.7337474452   -1.0923240233
 C   -0.1295220756   -2.1939200919   -0.7627350920
 C   -0.7939129549   -3.2291015566   -1.6246136225
 O    1.1430635472   -2.5799621517   -0.1701481876
 C    0.0517158715   -2.2663491135    0.6994277737
 C    0.0777733499   -0.8477019450    1.2511166072
 H    1.0320984711    1.8256580103    0.4776232101
 H   -0.0712815799    1.9724579206   -0.9015590310
 H   -0.7007813369    1.9211475298    0.7576428402
 H   -0.2727678733   -0.3578790497   -2.1045561185
 H   -0.3310120303   -3.2625539710   -2.6172638388
 H   -0.7009669047   -4.2204798177   -1.1746615783
 H   -1.8564602109   -2.9998741184   -1.7586795952
 H   -0.3144972161   -3.0918517339    1.3055703785
 H    0.9989107103   -0.6445256465    1.8116395234
 H   -0.7589538227   -0.6711695404    1.9405985785