21

 C    0.0426397483    1.3939651074    0.0722864924
 O   -0.1847679368    0.0170816953   -0.1063305412
 C    0.5780600664   -0.5639734986   -1.1607813669
 C    2.0420878767   -0.7980824559   -0.8180694053
 C    2.4018541114   -2.0789410513   -0.9491355110
 C    3.7487694081   -2.6799848024   -0.6987837900
 C    1.2273508941   -2.9182427392   -1.3577228389
 C    0.1034076706   -2.9730094759   -0.3412579295
 C    0.0582360394   -1.9663895305   -1.4623473133
 H    1.0683301502    1.6152809875    0.4044407082
 H   -0.1462886350    1.9629900234   -0.8526510781
 H   -0.6514848262    1.7388481067    0.8432626360
 H    0.4809161980    0.0838326431   -2.0499945495
 H    2.6947428893   -0.0037522110   -0.4734109780
 H    4.4753948621   -1.9274102165   -0.3816463675
 H    3.6937529569   -3.4560822398    0.0748679236
 H    4.1370987968   -3.1684409797   -1.6015781084
 H    1.3632362471   -3.7460386293   -2.0454539656
 H   -0.5926803417   -3.8030124917   -0.4049017252
 H    0.3038462269   -2.6167616631    0.6626305277
 H   -0.6988280227   -2.0832488883   -2.2275181196