16

 N    0.0102121778    1.4739197844   -0.1048505651
 C   -0.0522340243    0.0447178841   -0.0065956486
 C    0.2931404955   -0.7560526032    1.2900977847
 C   -0.8804370343   -1.7208986332    0.9487902427
 C   -1.6806023168   -2.2674067685    2.0284972947
 N   -2.3045713624   -2.7065132212    2.8966395964
 C   -1.4868411752   -0.6011673777    0.0211149498
 C   -2.4631054529    0.2500012978    0.6815363588
 N   -3.2095454739    0.9562823773    1.2112790334
 H   -0.4180404298    1.9259290968    0.6969688434
 H    0.9667452305    1.8009381459   -0.1793921802
 H    0.4880480534   -0.3842610561   -0.8563923068
 H    1.2866027490   -1.1969684139    1.3840504439
 H    0.0656652894   -0.1714437886    2.1851972595
 H   -0.5332045179   -2.5415687938    0.3152994950
 H   -1.8880963881   -0.9409865900   -0.9354313717