20

 C    0.2631149414    1.4693051935    0.3047371433
 N    0.0197603948    0.0389224200    0.2977265031
 C    0.9144554433   -0.8679130215    0.7675134370
 O    2.0010770634   -0.5328768810    1.2352164354
 C    0.4901280000   -2.3202474810    0.6797249856
 C    1.5993075315   -3.2266396216    0.0507979466
 C    2.0530121222   -3.6489590490    1.4832363064
 O    3.1986970637   -2.9996033693    1.9554770373
 C    0.7037110543   -3.0844282520    2.0280057093
 H    0.2471954643    1.8785933298   -0.7111592230
 H   -0.4852537570    1.9952527303    0.9073424991
 H    1.2497166624    1.6297124653    0.7396582216
 H   -0.8516222565   -0.3008727568   -0.0729449426
 H   -0.5046128248   -2.4149692581    0.2359869437
 H    1.1637316889   -4.0512285541   -0.5194602159
 H    2.3614718145   -2.7293332911   -0.5525724818
 H    2.2157649993   -4.7193777610    1.6339556088
 H    3.0502858546   -2.0466057058    1.8195480440
 H    0.7825908279   -2.4786503141    2.9330335843
 H   -0.0554096983   -3.8576509526    2.1719957982