10

 O    0.0318413394   -0.0346168250    0.0084983631
 C   -0.0244033439    1.1644053332    0.0216081138
 C   -1.1454132185    2.2371280900    0.0301290142
 C    0.0092880492    3.2794587790    0.0455775801
 N    0.9384383847    2.1465210880    0.0355439604
 H   -1.7703052903    2.2377973038   -0.8642843666
 H   -1.7763280890    2.2176538551    0.9200793396
 H    0.0717056395    3.9186351578   -0.8407219287
 H    0.0662260314    3.8982662464    0.9465795244
 H    1.9461683976    2.0953571318    0.0385594495