15

 N   -0.0801357364    1.3289713160   -0.0163415497
 C    0.0245727950   -0.0362469174   -0.0413003239
 O    1.0940604398   -0.6105597637   -0.1103085434
 C   -1.2700360744   -0.7732197523   -0.0103817334
 C   -1.3885836778   -2.1042465823    0.0205277218
 C   -2.8092070229   -2.4636423393    0.0352810110
 N   -3.3011849886   -3.6286062783    0.0670217102
 O   -3.5403961388   -1.2940822768    0.0079255368
 C   -2.6555278808   -0.1749513751   -0.0246887272
 H    0.7782858688    1.8516303961    0.0568872126
 H   -0.9358130567    1.7998261154    0.2225485151
 H   -0.5871405532   -2.8267203070    0.0318360858
 H   -4.3216662963   -3.5906171672    0.0690788385
 H   -2.8586381712    0.4629139463    0.8477590818
 H   -2.8537596667    0.4154659056   -0.9295128660