17

 O    0.0243091046    0.0463061255    0.3712260219
 C    0.0081537567    1.2135508255    0.0671440520
 C   -1.3058871170    1.9564046819   -0.1924757612
 O   -1.1975510817    3.0530062868   -1.0742890594
 C   -0.1935137938    3.9722877109   -0.6789476744
 C    1.1897701929    3.3317587968   -0.8098391419
 C    1.2641708920    2.0640430736    0.0194636975
 C    2.1526117546    1.9528138259    1.2023690052
 O    2.4883712493    1.3389407719   -0.0307213568
 H   -2.0259776087    1.2535240071   -0.6169546065
 H   -1.6912818839    2.2790771000    0.7931239103
 H   -0.2872681078    4.8366010897   -1.3410943208
 H   -0.3706724385    4.3145833497    0.3548549502
 H    1.3535796406    3.0724569006   -1.8621459010
 H    1.9792288499    4.0312321826   -0.5156350536
 H    2.7535127698    2.8166976727    1.4853849032
 H    1.8844822610    1.2661383887    2.0031407254