18

 N   -0.1219589257    1.3145934455   -0.0704274185
 C   -0.1486976433    0.0650813843   -0.2422559656
 O   -1.0608738420   -0.6843257796    0.4176655878
 C   -0.9762237283   -2.0749982307    0.2396022503
 C   -1.2648607356   -2.6929856933   -1.1100396605
 C   -2.2244982562   -2.9030812693    0.0446154132
 C   -2.0786032931   -4.1576914889    0.9030281161
 C   -0.6936197382   -4.0180738710    1.5033498938
 C   -0.1085380508   -2.8689193303    1.1615530379
 H    0.6102775023    1.7256847090   -0.6459656387
 H    0.5016714893   -0.5244687926   -0.9008047206
 H   -1.6149658281   -2.0253880857   -1.8908457308
 H   -0.6366025993   -3.5106582711   -1.4488982601
 H   -3.1849025453   -2.4077228794   -0.0237997150
 H   -2.8489286292   -4.2097303820    1.6831964921
 H   -2.1764151114   -5.0764803764    0.3107920957
 H   -0.2436014152   -4.7924916980    2.1138686963
 H    0.8748536800   -2.5313915904    1.4672012165