14

 C   -0.0405287019    1.5473748027    0.0051226269
 C   -0.0210488675    0.0000937066    0.0380465830
 C    0.7125828926   -0.4911367992    1.2121549289
 N    1.3082891060   -0.8587149104    2.1305619362
 C   -1.4089776021   -0.5725031189   -0.0096560481
 N   -1.9414245602   -1.2732373009   -0.9637357179
 C   -3.2144527717   -1.4699359483   -0.4821012905
 N   -3.4591692897   -0.9339390055    0.6808924138
 O   -2.2408868989   -0.3232255947    1.0062264910
 H    0.9814641343    1.9313173320    0.0069876125
 H   -0.5460420066    1.8872631297   -0.9017554469
 H   -0.5674757283    1.9429055093    0.8754616682
 H    0.4852508355   -0.3785874272   -0.8551341073
 H   -3.9722615614   -2.0267592452   -1.0133521197