18

 C   -0.0149308286    1.5419472554    0.0524074724
 C    0.0284335814    0.0234420732    0.1321507437
 O    0.1747368939   -0.5707833925    1.1819213156
 N   -0.1379681445   -0.6175447927   -1.0732263601
 C   -0.1760105897   -2.0446071043   -1.1862222347
 C   -1.2232752594   -2.7858373783   -2.0746656425
 C   -0.4888166929   -2.3189525968   -3.3566462471
 C    0.5599256550   -2.8118266931   -2.3280819933
 O   -0.3251141172   -3.9588551714   -2.0349082716
 H    0.2702986853    1.9312577353   -0.9291243012
 H   -1.0305914584    1.8848381118    0.2764158788
 H    0.6506150921    1.9500594125    0.8140901776
 H   -0.2552294626   -0.0535043025   -1.8982315340
 H   -0.0417376593   -2.4789274284   -0.1984589646
 H   -2.2864422645   -2.9572634683   -1.9045440818
 H   -0.6212616865   -2.9703986096   -4.2210417293
 H   -0.5126023750   -1.2606899524   -3.6348210054
 H    1.6230039910   -3.0143330081   -2.4600854925