12

 O    0.0754639281   -0.0625501496    0.0019574834
 C    0.0105081133    1.1448733005    0.0089903542
 C   -1.2522810284    1.8899553116    0.0302651774
 C   -1.2539319053    3.2377495459    0.0371538856
 O   -0.0759171679    3.9407784267    0.0244461410
 C    1.0683489974    3.2093587317    0.0048565605
 N    1.1881599488    1.9470655737   -0.0032441771
 C   -2.4026877421    4.0662598843    0.0572993653
 C   -3.3855026910    4.7591321777    0.0744978922
 H   -2.1845609114    1.3417701699    0.0403888337
 H    1.9270206434    3.8754910948   -0.0036409774
 H   -4.2553128650    5.3699506929    0.0898323812