17

 C    0.0963037696    1.5674183176   -0.0467707136
 C    0.0582124374    0.0602341731    0.0123377986
 O   -0.7723356797   -0.4912378894    1.0655705264
 C    0.6375701707   -0.6814139264    1.1509648923
 C    1.1524910881   -2.0878084967    0.9723446667
 C    0.6556767682   -2.8102975833   -0.2811636710
 O    0.6851600648   -4.0211766034   -0.3573698607
 C    0.2057986195   -1.9713661692   -1.4125296972
 C   -0.0426812018   -0.6623434882   -1.2862462740
 H    0.9560325470    1.9134661401   -0.6304348157
 H   -0.8114119944    1.9558201647   -0.5213394105
 H    0.1629750699    1.9891263670    0.9584419334
 H    1.1184294276   -0.1020023608    1.9408718543
 H    2.2490495189   -2.0581570925    0.9076111969
 H    0.9130214972   -2.7087754793    1.8412099217
 H    0.0719131049   -2.4914042929   -2.3556265805
 H   -0.3577618577   -0.0790090205   -2.1483903872