18

 C   -0.0271654328    1.5362783348   -0.2295085904
 C   -0.0180433806    0.0431850652   -0.0010532147
 C    1.2340060087   -0.7679189388   -0.1984051335
 C    0.6832187748   -0.5881461953    1.1977916163
 C    1.3857342511    0.2062073941    2.2228097019
 C    2.5749830672    0.9016666411    2.1864870702
 N    2.6942819121    1.4182072124    3.4333212641
 N    1.6581356288    1.0677755404    4.2138626603
 N    0.8663447735    0.3378663362    3.4847647279
 H    0.9093067997    1.9986955059    0.0962017491
 H   -0.1619440250    1.7673494966   -1.2918838917
 H   -0.8405267299    2.0162664578    0.3251126870
 H   -0.9448519090   -0.4533392598   -0.2760218645
 H    1.1675121283   -1.7511478069   -0.6509139717
 H    2.1400229233   -0.2276529459   -0.4566427340
 H    0.1660347524   -1.4407316647    1.6256244510
 H    3.3171635296    1.0554795177    1.4223727909
 H    3.4309254478    1.9887682692    3.8160985319