23

 C   -0.0514620950    1.5988496905    0.0771819627
 C    0.0220631889    0.0638772642    0.0344965785
 C    0.7481834404   -0.4780779751    1.2763716600
 C   -1.4113000605   -0.5203445776   -0.0237131046
 O   -2.2089764949   -0.1954256565    1.1067496797
 C    0.7224968100   -0.3671365528   -1.2611591621
 C    2.2277916353   -0.0852889247   -1.4802811636
 C    2.3346666046   -1.6082424672   -1.6891412529
 O    0.9467402603   -1.7993647380   -1.3452141377
 H    0.9407423040    2.0459775701    0.1979115499
 H   -0.4934273814    2.0011746972   -0.8418849636
 H   -0.6779672958    1.9176604820    0.9140321711
 H    0.1947941118   -0.2201746394    2.1847770127
 H    0.8528847865   -1.5653264209    1.2207667478
 H    1.7474731422   -0.0451075599    1.3847273263
 H   -1.9363804071   -0.0959121486   -0.8873658734
 H   -1.3547808434   -1.6071339973   -0.1728339472
 H   -1.9510141974   -0.7760249766    1.8279881790
 H    0.1104203871   -0.0348160865   -2.1141820084
 H    2.4738622665    0.5393306053   -2.3398581061
 H    2.7569243674    0.2906020956   -0.6035599622
 H    2.5440627428   -1.9210942996   -2.7200606630
 H    3.0023179977   -2.1521940442   -1.0110972329