17

 C   -0.0218952804    1.3546606579   -0.2021684043
 C    1.4844897247    1.5123319411    0.0696159714
 C    1.3668977469    0.0912171249    0.6966140307
 O    0.0025349802   -0.0234110746    0.2340567683
 C    2.2257003361   -1.0082495080    0.1878959862
 C    2.1551216533   -1.7849124420   -0.9422601487
 N    3.2027189238   -2.6751124541   -0.9948215727
 C    3.9067828647   -2.4449051091    0.0885767182
 N    3.3591189995   -1.4494979980    0.8439213082
 H   -0.6715885290    1.9693476136    0.4339042533
 H   -0.3521055857    1.4454057736   -1.2422407668
 H    2.1037378542    1.5335197858   -0.8277648907
 H    1.7832915058    2.3161411238    0.7441338848
 H    1.4074665719    0.1205121611    1.7978091103
 H    1.3924143065   -1.7597563117   -1.7044062927
 H    4.8110367111   -2.9575741489    0.3813203679
 H    3.7091455268   -1.1034845855    1.7219366866