21

 C    0.0397586458    1.3889349968    0.0341532545
 O   -0.0009974287   -0.0259214612    0.0182230630
 C   -1.2712664215   -0.5481598476    0.0104347172
 C   -2.3944636623   -0.3795193421   -1.0997584805
 C   -2.3555699357   -1.9162701067   -1.3024348489
 C   -1.5196417908   -2.0910997461   -0.0076299599
 C   -2.3591792342   -1.9460268268    1.2885151292
 C   -2.3975563339   -0.4050259761    1.1210830177
 C   -3.3787487606    0.0591754509    0.0144759005
 H    1.0923175184    1.6799265558    0.0386020374
 H   -0.4458332133    1.8171545624   -0.8541018540
 H   -0.4478359757    1.7971259737    0.9307097213
 H   -2.3180961923    0.2494180019   -1.9874631005
 H   -3.3154463879   -2.4404037268   -1.3575450818
 H   -1.7638286240   -2.1780487420   -2.1845571430
 H   -0.7151518819   -2.8263197391   -0.0149527751
 H   -3.3191876070   -2.4712603730    1.3288990297
 H   -1.7698881956   -2.2280094357    2.1660376779
 H   -2.3236545202    0.2033765615    2.0231897850
 H   -3.4940074190    1.1476464593    0.0268232876
 H   -4.3753612496   -0.3948915992    0.0078658225