14

 N   -0.1164958042    1.3001133340   -0.0715217578
 C   -0.0348047552    0.0369577299    0.0135491207
 N    1.0997427427   -0.7755366944    0.1293279842
 C    0.8570380814   -2.1424784433   -0.0234091809
 O    1.7069020802   -2.9924118437   -0.1139047782
 C   -0.6381850734   -2.2973531737   -0.0579825796
 C   -1.3511403187   -1.7973827789    1.1794545832
 C   -1.2070920600   -0.8920373744   -0.0194114413
 H    0.8024248139    1.7449368316   -0.0395989760
 H    2.0409136276   -0.4200399252    0.2040016152
 H   -1.0536417320   -3.1087837848   -0.6391641812
 H   -2.3388880586   -2.2044079697    1.3623642239
 H   -0.7715658687   -1.5885446993    2.0717983478
 H   -2.0818881050   -0.5836389181   -0.5741902999