23

 C   -0.4104494730    2.5842633276   -1.6438767598
 C    0.0450249040    1.3551006696   -0.8436213938
 C   -1.1400771684    0.5930439872   -0.2261910022
 O   -1.9050104356    1.3745786725    0.6764847183
 C    0.8383184428    0.4233789301   -1.7360812106
 O    2.1463306657    0.8448368321   -2.1436973440
 C    2.0345567871   -0.3542689478   -1.3526930076
 C    2.6435455246   -0.2803411119    0.0311254339
 C    2.3464081725   -1.6278695299   -2.1119764406
 H    0.4510842231    3.0899951130   -2.0877138374
 H   -1.0892576999    2.2997207800   -2.4577388753
 H   -0.9259137247    3.3063324848   -1.0026493886
 H    0.6813261430    1.6990578553   -0.0223645892
 H   -1.7732134068    0.1789715311   -1.0290465495
 H   -0.7682614793   -0.2545689949    0.3593010102
 H   -2.3746544234    2.0421549885    0.1679012114
 H    0.2467335533    0.0118947742   -2.5608372137
 H    2.4527373201    0.6794987869    0.5126358139
 H    2.2503412097   -1.0781431633    0.6706974257
 H    3.7292266963   -0.4127253074   -0.0333638972
 H    3.4295006367   -1.7525469201   -2.2197581471
 H    1.9605166385   -2.5041929172   -1.5797794138
 H    1.9049312136   -1.6035803702   -3.1111851430