20

 C   -0.0752416280    1.5605529029   -0.0704143514
 C    0.0213614092    0.0294079771   -0.0114327880
 C    0.7308339669   -0.5208993833   -1.2555010778
 C    0.7356570227   -0.4597307957    1.2562268012
 N    0.0160358061   -0.0948175661    2.4749542675
 C    0.6571914689   -0.6150188939    3.6756413406
 C   -0.0553471516   -0.1880485297    4.8834040340
 N   -0.6015958138    0.1668809938    5.8371096054
 H    0.9202307572    2.0201928970   -0.0358601882
 H   -0.5548134026    1.8819609444   -1.0003125804
 H   -0.6695044887    1.9708486966    0.7524289487
 H   -0.9976145984   -0.3770513813    0.0190909240
 H    1.7587414410   -0.1449675275   -1.3229770984
 H    0.7757435744   -1.6149937770   -1.2412065299
 H    0.2088600086   -0.2192842501   -2.1687992250
 H    0.7983978284   -1.5554733473    1.2295088599
 H    1.7798082918   -0.0881538328    1.2531972592
 H   -0.0528498487    0.9144166478    2.5491712030
 H    0.6438684978   -1.7116823722    3.6373983654
 H    1.7181621488   -0.3221371828    3.7879127203