18

 C    0.2067737040    1.5468733876    0.1111725515
 C    0.0510619383    0.0611962244    0.0180907363
 C   -0.1290924449   -0.7268167452   -1.0848354009
 O   -0.2239390666   -2.0210841680   -0.7142779979
 N   -0.1056924921   -2.1185670910    0.6727502280
 C    0.0546656020   -0.8865720060    1.0815844761
 C   -0.2315819948   -0.4323700468   -2.5176840080
 C    0.3343345103   -1.3967716993   -3.5457946645
 C   -1.1510051383   -1.2492284401   -3.4091871627
 H    1.1562832784    1.8238622629    0.5826364976
 H    0.1843682102    2.0131687697   -0.8772541504
 H   -0.5939904472    2.0006950162    0.7058771752
 H    0.1711212677   -0.7000681586    2.1411174528
 H   -0.1480128578    0.6236183225   -2.7470517470
 H    0.8246328650   -0.9678054666   -4.4122920441
 H    0.7883640719   -2.3039489731   -3.1651474485
 H   -1.6969332688   -2.0570610523   -2.9365626388
 H   -1.6964939370   -0.7173636462   -4.1804088447