15

 C   -0.0870598585    1.3429369047    0.0703778292
 N    0.0102748729   -0.1038489530   -0.0448780118
 C    0.5565502110   -0.6083343560   -1.0422772224
 O    1.1297780047   -0.0131148308   -2.1374045888
 N    1.6234388219   -1.0321872197   -2.9985797202
 C    1.3271049876   -2.1219639135   -2.3985140544
 C    1.6819566714   -3.4949837151   -2.8747116305
 O    2.2580959393   -3.4883381506   -4.1513491434
 O    0.6858407197   -1.9764598114   -1.2196960109
 H    0.4874542401    1.8942917958   -0.6827432685
 H   -1.1383732835    1.6415514211   -0.0076951327
 H    0.2592750992    1.6417421927    1.0645877108
 H    2.3278267311   -3.9576722323   -2.1091377397
 H    0.7699729252   -4.1008026295   -2.9235150478
 H    2.9072438079   -2.7763388624   -4.1901570089