21

 C    0.0435182643    1.5871234791    0.0013312714
 C   -0.0327964189    0.0615005801   -0.0932140181
 C   -1.4472096844   -0.4821942192    0.1543691012
 C   -1.5205226519   -2.0014032502    0.0162192160
 C   -2.8643446902   -2.7518154357    0.1201143748
 C   -3.7547506229   -2.4022258194   -1.0182199081
 C   -2.6434661086   -3.4200134725   -1.2605196405
 C   -1.3376400515   -2.6902440370   -1.3694357855
 O   -0.4234780187   -2.7287650402   -2.1457591102
 H    1.0631210170    1.9458598100   -0.1699655736
 H   -0.6050840644    2.0633135404   -0.7425807182
 H   -0.2729010386    1.9410025068    0.9892064802
 H    0.3118958735   -0.2735640453   -1.0778669794
 H    0.6556168539   -0.3867950264    0.6355770523
 H   -1.7830077879   -0.1964058763    1.1607972998
 H   -2.1459389149   -0.0061199477   -0.5450973493
 H   -0.7806090658   -2.4660651833    0.6824997827
 H   -3.2286377675   -3.2412643271    1.0138782832
 H   -4.7476406929   -2.8401853814   -1.0042791124
 H   -3.7134048436   -1.4244955569   -1.4879516919
 H   -2.8635610160   -4.4218837077   -1.6068057945