14

 C   -0.2181213844    1.5566036949   -0.0149712409
 C    0.0934659425    0.0628473373    0.0045651167
 C    0.9176345375   -0.4816350767   -1.1738457675
 O    1.7271917687   -1.5675838713   -0.6635104848
 C    1.8369837208   -1.5246663377    0.6854761460
 O    2.5226856161   -2.2606952326    1.3272601229
 C    0.9177918243   -0.3908647601    1.1956858811
 O    0.8988543362    0.0201248334    2.3212250441
 H    0.6990708160    2.1466724388   -0.1068364363
 H   -0.8758088003    1.8135552279   -0.8500182343
 H   -0.7097077957    1.8452315414    0.9172427912
 H   -0.8436076460   -0.5104089192    0.0656307845
 H    0.3134499967   -0.8843751616   -1.9881588471
 H    1.5895362176    0.2830894254   -1.5792754355