14

 O    0.1712315236    1.3087481261    0.2020630698
 C    0.1413266933   -0.0337752564    0.0025575925
 C    0.0858691745   -0.8092643775   -1.1266664088
 C   -0.0049695269   -2.1641301358   -0.6433183616
 C   -0.0132418246   -2.1084572048    0.7342616920
 N    0.0642208850   -3.3994528989    1.1910961314
 C    0.0458661293   -4.1793645763    0.0418991794
 N    0.0258961886   -3.4769264123   -1.0678054863
 N    0.1461107168   -0.8081246725    1.1636161153
 H    0.0566923271    1.7415407755   -0.6493634935
 H    0.1224651910   -0.4556503084   -2.1448563702
 H   -0.0093276809   -3.7376399430    2.1346137356
 H    0.0252058221   -5.2568674208    0.1080639694
 H   -0.1198628890   -0.4213439848    2.0539597950