16

 O    0.1587371945    1.3360360643   -0.2280463760
 C    0.0531804640   -0.0372065016    0.0777371885
 C   -1.4030880766   -0.5326305370    0.0204148777
 C   -2.1089198574   -0.4889515752   -1.3984255373
 C   -2.2413952666   -2.0137423671   -1.3287318157
 O   -0.9210891683   -2.5519156209   -1.1633445169
 C   -1.6015325532   -2.0787733904   -0.0076137478
 C   -2.1977318775    0.1198706471    1.0520039686
 N   -2.7951904077    0.6555514562    1.8854126798
 H   -0.2447134646    1.8376920843    0.4893910883
 H    0.6170384696   -0.5762553579   -0.6861033723
 H    0.4848317321   -0.2783998370    1.0602277225
 H   -3.0652780399    0.0346105794   -1.3703432607
 H   -1.4902352784   -0.0972230196   -2.2072835432
 H   -2.9846116337   -2.6585139602   -1.7804974863
 H   -1.7243553464   -2.7498114641    0.8337813808