18

 O   -0.1199118590   -0.0123550227    0.3048093556
 C   -0.0758328357    1.1947454057    0.2015565402
 N   -1.1320835804    2.0523172192    0.0986959909
 C   -0.7737034527    3.4532577147   -0.0647075469
 C    0.6979169042    3.4721557199    0.4074637560
 C    1.1988938948    2.0614537974    0.1218944429
 C    2.4521876819    1.4650107095    0.7816398230
 C    2.9276209502    1.2185170773   -0.6628930255
 O    1.7802417835    1.9161314173   -1.2037546230
 H   -2.0695664774    1.7011464998   -0.0177095975
 H   -0.8629015987    3.7734319751   -1.1108627063
 H   -1.4148682404    4.0994345322    0.5426323019
 H    1.2994817066    4.2280303663   -0.0999506427
 H    0.7369679647    3.6571628588    1.4863465930
 H    3.0487177097    2.1824807036    1.3479112025
 H    2.2624219596    0.5724773397    1.3782038515
 H    3.8665531212    1.6971841312   -0.9624539166
 H    2.9398942577    0.1668613550   -0.9680056589