23

 C   -0.1609121471    1.4821496318   -0.2438831258
 C   -0.0023324194    0.0034820271    0.0411444207
 C    1.3358981666   -0.6770109996   -0.0809300170
 O    2.4185131050    0.1398759004   -0.4305497919
 C    0.6859583554   -0.5462759597    1.2882861917
 C    1.2900711796    0.4231197623    2.2883008965
 C    0.0774175299   -1.8094109168    1.8805376594
 C    1.0651014745   -2.7023348725    2.6277347872
 O    0.3725614641   -3.8859622099    2.9985710496
 H    0.7727942709    2.0275392395   -0.1007032345
 H   -0.4673326022    1.6341436250   -1.2843588997
 H   -0.9281408285    1.9311097337    0.3963088034
 H   -0.8448081074   -0.5954492759   -0.2971915286
 H    1.3612536406   -1.6697521014   -0.5331456615
 H    3.2000670013   -0.1889837160    0.0253411795
 H    1.7559782808    1.2766264875    1.7942768322
 H    0.5250998725    0.8033619263    2.9752591446
 H    2.0618006768   -0.0594865932    2.8990319671
 H   -0.7430250228   -1.5489432553    2.5620515383
 H   -0.3680369208   -2.4141073885    1.0819620897
 H    1.9239319158   -2.9307603989    1.9743934314
 H    1.4591173111   -2.1840920459    3.5151432692
 H    0.9704921233   -4.4361810200    3.5125369987