16

 C   -0.0380144197    1.5044100500    0.0870537527
 C   -0.0048744181    0.0173023106   -0.0389338729
 C   -0.0285135848   -0.7826349195   -1.1690174401
 C    0.0231326350   -2.1256718553   -0.7343054173
 O    0.0185403514   -3.2036389269   -1.5541032669
 C    0.0776830558   -2.1345716402    0.6558578407
 N    0.0580474420   -0.7987444335    1.0516220755
 C    0.1396900384   -3.2289940493    1.5266411531
 C    0.1929452639   -4.2017460058    2.2423943371
 H    0.8562684748    1.8936938337    0.5890151021
 H   -0.0882070595    1.9615795596   -0.9032353770
 H   -0.9094374531    1.8482588388    0.6576780707
 H   -0.0777063763   -0.4416994603   -2.1908861581
 H    0.0595096223   -3.9963103749   -1.0049131471
 H    0.0911262914   -0.4966761930    2.0095175330
 H    0.2398460966   -5.0515925441    2.8764711244