14

 O   -0.1733187645   -0.0790307241    0.1235775830
 C   -0.0399406009    1.1100049791    0.1432604803
 O   -1.1072624717    2.0238730358    0.0993253206
 C   -0.6339772216    3.3195869413    0.2834086159
 C    0.7017139238    3.2669715000    0.3046156931
 C    2.0883558778    3.6472321762    0.7516594798
 C    2.4289464834    2.7878931529    1.9648093177
 C    2.4374881809    2.1527588300    0.6057889312
 N    1.0680652631    1.9287848093    0.1250688985
 H   -1.3729822123    4.0969831815    0.3609576684
 H    2.6632414277    4.5127100170    0.4582837958
 H    3.4115644404    2.9731555337    2.3892288503
 H    1.6586196581    2.5306918053    2.6844995016
 H    3.2810443459    1.6666336321    0.1371336338