21

 C    0.4504285102    1.7690811546    0.1910937930
 C    0.1628435059    0.2860632621    0.0720982870
 C    1.1402117204   -0.7694344174   -0.3987699393
 C    2.6375207390   -0.4908472139   -0.3737986743
 C    2.9590267179   -0.0845232522    1.0671187610
 C    4.3253905609    0.1214820338    1.5575846494
 O    3.4822011185    1.2386725749    1.2685502560
 C    1.8001148606   -0.5165317605    1.9698938377
 C    0.6279052277   -0.7851464023    1.0350471152
 H    1.4547012465    1.9930853766    0.5525939085
 H    0.3329053016    2.2578267096   -0.7829521159
 H   -0.2613310468    2.2396849279    0.8791186729
 H   -0.8455614009    0.0941124609   -0.2903132622
 H    0.7851881377   -1.4963285380   -1.1214937704
 H    3.1785611888   -1.4069557708   -0.6396368240
 H    2.9638968425    0.2936836111   -1.0640448500
 H    4.5522870843   -0.0325518717    2.6127130437
 H    5.1705580111   -0.0135892835    0.8823423832
 H    2.0565815864   -1.4413713616    2.5005032216
 H    1.6097906342    0.2521470148    2.7257771426
 H   -0.0996365864   -1.5234662643    1.3549115644