19

 C   -0.0019725652    1.5020357993    0.0981984088
 C   -0.0188308906    0.0495165569    0.0153161944
 C   -0.0311349786   -1.1510243245   -0.0545119003
 C   -0.0490891597   -2.6148022796   -0.1079044313
 C   -1.4589085077   -3.1110572407   -0.0413708775
 N   -2.5272038566   -3.5525918939   -0.0402075410
 N    0.6834546200   -3.1493591169   -1.2543420012
 C    0.8865378716   -4.5897580654   -1.1554373484
 C    0.1280345914   -2.7532085622   -2.5441847920
 H    0.8623709459    1.9160850601   -0.4317265169
 H   -0.9059225062    1.9339127000   -0.3438947530
 H    0.0539933244    1.8356434469    1.1397811611
 H    0.4496938283   -3.0013096789    0.7915366579
 H   -0.0495023040   -5.1710168074   -1.2194304960
 H    1.5433471975   -4.9109909438   -1.9684447248
 H    1.3779746320   -4.8311083224   -0.2073163410
 H    0.0329012335   -1.6657238248   -2.5822167870
 H    0.8153866258   -3.0676668212   -3.3343962993
 H   -0.8604344918   -3.2000090616   -2.7463442825