19

 C    0.4977583369    1.3549593830    0.1815879281
 C   -0.0651543241   -0.0144757351   -0.1434271578
 O    0.7895929449   -0.6147228402   -1.1402824435
 C    0.4323089666   -1.8437950607   -1.5512345222
 O   -0.5299321122   -2.4419630094   -1.1427527907
 C    1.3973830553   -2.3836873969   -2.5890073717
 C    2.5500636002   -1.5170615493   -3.0332988345
 C    1.4649971458   -3.8568733238   -2.6741379718
 O    0.7207673530   -3.1090564164   -3.6251498800
 H    1.5150784023    1.2772943377    0.5754196652
 H    0.5204397664    1.9899422735   -0.7084889554
 H   -0.1271645303    1.8419118918    0.9359831406
 H   -0.0935399718   -0.6686322329    0.7335793206
 H   -1.0823986447    0.0409234387   -0.5426848800
 H    3.2002089046   -1.2692268115   -2.1898929679
 H    3.1349319652   -2.0434092532   -3.7911767609
 H    2.1877597737   -0.5788948771   -3.4619425382
 H    2.3832603246   -4.3120000754   -3.0436541591
 H    0.8689649336   -4.4504789829   -1.9853104706