16

 N    0.0772570610   -1.1621800387    0.0818324429
 C    0.0357050194   -0.0074329090    0.0496831786
 C   -0.0212797983    1.4539544945    0.0029017114
 C   -0.5543839649    2.0814662531    1.2883993084
 C    0.5729107299    2.3419749696    2.2652263261
 C   -0.0044220407    3.4831630515    1.4503551892
 C    1.2741663937    3.5049632779    0.5758205227
 C    1.8507890001    2.3637860625    1.3912147422
 C    1.3550856356    2.1140182352   -0.0175970399
 H   -0.6203649857    1.7514629975   -0.8655761321
 H   -1.5429205565    1.8400145827    1.6578849405
 H    0.5156994707    2.1458626959    3.3261230274
 H   -0.5929810713    4.3344900480    1.7616246102
 H    1.7576443345    4.3745670884    0.1538167804
 H    2.8645813215    2.1859138868    1.7195831996
 H    2.0631305111    1.9014658740   -0.8084932376