12

 O   -0.0964075321    0.0426059114    0.1121408241
 C    0.0705475820    1.1901605570   -0.1306390642
 O    0.9073304507    1.9715367021    0.6449067611
 C    0.9917954886    3.2807789841    0.3320053251
 C    2.0209714362    4.0281465073   -0.0759769157
 N    1.5278989482    5.3379860541   -0.1316213585
 C    0.2032451471    5.3768984385    0.2304882833
 O   -0.5631353315    6.2933223718    0.2945308601
 O   -0.1274746024    4.0508075405    0.5309553517
 H   -0.3809529340    1.7612538047   -0.9580959731
 H    3.0353672261    3.7617503550   -0.3108673637
 H    2.0355768712    6.1643153037   -0.3940243402