17

 O    0.1242318177    1.3524391430    0.0915503633
 C    0.0391095309   -0.0290877394   -0.2183744546
 C   -1.3800600079   -0.5582671401   -0.0372427805
 C   -1.6088580367   -2.0752281336   -0.1204573169
 N   -0.8193046905   -2.6759408232    0.9812001107
 C   -2.1597626297   -2.1286677442    1.2597578634
 C   -1.9895584996   -0.6086647472    1.4334102375
 C   -1.1518809593   -0.1336292884    2.5243184338
 N   -0.4674708133    0.2775887941    3.3615479962
 H    0.2311467857    1.4320853763    1.0457242688
 H    0.3246903457   -0.1366879662   -1.2717236333
 H    0.7367959076   -0.6278096895    0.3777634103
 H   -2.0673664397   -0.0040171201   -0.6802576146
 H   -1.8794844894   -2.6542761911   -0.9939467990
 H   -0.9114509592   -3.6884935679    0.9146006062
 H   -2.9460551663   -2.7373295084    1.6864959369
 H   -2.9511055958   -0.0923592240    1.4688333018