20

 C    0.1387221502    1.5030682265   -0.0555299997
 C    0.0991781577   -0.0122057221   -0.0105516820
 C    1.2229932480   -0.7872080552   -0.6619583714
 C    1.1397803956   -0.7126115468    0.8414273526
 C   -1.2538130971   -0.6702792452   -0.0515113767
 N   -2.4364666221    0.1089948300    0.3104771924
 C   -2.3299156842   -0.4136377083   -1.0724722340
 C   -2.2332672094    0.5180811553   -2.1621475011
 C   -2.1867401450    1.2437015176   -3.1202604798
 H    1.1730023123    1.8536512793    0.0171807824
 H   -0.2868340328    1.8894116566   -0.9845904857
 H   -0.4311636759    1.9299587223    0.7741668521
 H    0.9847594814   -1.7322875249   -1.1395598625
 H    1.9995812683   -0.2220191492   -1.1657794066
 H    1.8581522225   -0.0930775952    1.3672800991
 H    0.8497039721   -1.6081183777    1.3820791865
 H   -1.2284617992   -1.7098385310    0.2786230290
 H   -3.1016876232   -0.4461500856    0.8413593820
 H   -2.9386356671   -1.2849435564   -1.3109909986
 H   -2.1358948321    1.8991000901   -3.9541118380