18

 C   -0.1713319480    1.2944756985    0.0181247423
 O    0.3087835050   -0.0306648832    0.1494456436
 C    0.7215586717   -0.5978571475   -1.0553703186
 C    1.3337204590   -1.9759604987   -0.9217956243
 C    0.3287466279   -2.9713747273   -0.5046121866
 N    0.3721746817   -2.5982952917   -1.9296982868
 C   -0.3382575072   -1.2584433047   -2.0295348684
 C   -1.7371695580   -1.2388448181   -1.6598146502
 C   -2.8991978022   -1.2223851267   -1.3488104530
 H    0.6019430731    1.9604694983   -0.3950093160
 H   -1.0605121956    1.3433217475   -0.6234795762
 H   -0.4373436214    1.6388941154    1.0197249197
 H    1.3611964768    0.0980731154   -1.6161230172
 H    2.3968743953   -2.1874746908   -0.9475153131
 H    0.6827774418   -3.9826695276   -0.3327673470
 H   -0.5218407187   -2.6694687496    0.0984345376
 H   -0.2131340732   -0.8916497974   -3.0517195395
 H   -3.9267241080   -1.2110076718   -1.0801090464