15

 N    0.0501985196    1.4127274633    0.0751162590
 C   -0.0046959656    0.0389119806    0.0221776592
 C   -1.1946526249   -0.6650770075   -0.0017072251
 N   -2.4128062273    0.0796656183   -0.0317202392
 N   -1.2000721618   -2.0138971598   -0.0436201392
 C   -0.0828353963   -2.6914054793   -0.0504823316
 C    1.2359278547   -2.0840545341    0.0145653157
 O    2.3196007047   -2.6418624086    0.0406187034
 N    1.1549723729   -0.6738702659    0.0482056609
 H    0.8321797551    1.8479359460   -0.3953488987
 H   -0.8467758960    1.8173924476   -0.1701454715
 H   -2.8013665356    0.1881290615    0.9027069384
 H   -3.1035025020   -0.4349377204   -0.5695389976
 H   -0.1226738822   -3.7749019423   -0.1040787876
 H    2.0470954146   -0.2014590294    0.1174945739