16

 C   -0.1277092545    1.5872248933   -0.0042664104
 C    0.0616783281    0.0704938785    0.0223414483
 N    0.8490994176   -0.3989751084   -1.1382597107
 C    1.7677484627   -1.1585864828   -0.6864280511
 C    2.7370398755   -1.7968621437   -1.5341423772
 N    3.5325475150   -2.3107020332   -2.1965283780
 N    1.8457031067   -1.4197434488    0.7174316204
 C    2.2265033771   -0.1735947946    1.4449681141
 C    0.7971247874   -0.5076699448    1.2388692428
 H    0.8319777715    2.1065958600    0.0662098478
 H   -0.6124270256    1.8899322740   -0.9354552484
 H   -0.7542685074    1.9058329759    0.8341186156
 H   -0.9267708186   -0.4019507384   -0.0524216354
 H    2.6861219933   -0.3483759838    2.4117195564
 H    2.6718683039    0.6229243346    0.8560252250
 H    0.2172070674   -0.8887903076    2.0723645507