17

 C   -0.2156311027   -1.2428011667    0.4636823619
 C   -0.1113232385   -0.0619668271    0.2654052883
 C   -0.0451917965    1.3578292176    0.0017576139
 C    0.7829463545    2.2138599768    0.8755682956
 O    1.2417386521    1.8468627855   -0.4221036149
 C   -1.2411027730    1.9176299446   -0.7388289073
 C   -1.1616764861    3.3548057703   -1.2995117479
 O   -1.4586868096    2.8955501419   -2.6323562825
 C   -1.3989298156    1.5141917942   -2.2245750182
 H   -0.2911244215   -2.2869082214    0.6447803567
 H    0.5111750621    3.2615438989    1.0002273732
 H    1.3188291536    1.7630520259    1.7081462604
 H   -2.1415368889    1.7289572935   -0.1498205002
 H   -1.9131915751    4.0614581595   -0.9299085215
 H   -0.1654882958    3.8085203442   -1.2403233307
 H   -0.5275059360    0.9978055194   -2.6460874869
 H   -2.3091832128    0.9653751928   -2.4890149298