21

 C   -0.1374383781    1.5185206136   -0.0135845674
 C    0.0049033583    0.0116423494    0.0282042307
 C    1.3200996624   -0.7300993077   -0.2553382644
 C    2.5934609533    0.0120327825   -0.3871525936
 C    3.1113648560    0.7619897175    0.5890177548
 C    2.4348963822    0.9435106923    1.9215601557
 C    1.4417796707   -0.1812742406    2.2850925564
 O    0.4747296024    0.2728385643    3.2336206690
 C    0.6842408605   -0.7748324510    1.1186173269
 H    0.8296013077    2.0254615152   -0.0258921909
 H   -0.6714991262    1.8205598775   -0.9204915738
 H   -0.7047314869    1.8814637839    0.8494479189
 H   -0.8645407101   -0.5054730730   -0.3708900427
 H    1.2372014355   -1.6167992572   -0.8763482360
 H    3.1117203523   -0.0653842605   -1.3394733092
 H    4.0431796407    1.2971126403    0.4270290647
 H    3.1860061349    1.0304979711    2.7178056015
 H    1.8776430412    1.8898733963    1.9355916376
 H    2.0235398546   -1.0084444106    2.7237845485
 H    0.9471648184    0.5536820312    4.0244973788
 H    0.1870282299   -1.7024284643    1.3877895143