20

 C    0.1122651661    1.4493860935    0.1119351717
 C   -0.0570959374   -0.0486792871   -0.0707257198
 O    0.8936797244   -0.4929544501   -1.0249907086
 C    0.8723405725   -1.8755447266   -1.2488046131
 C   -0.1825571072   -2.3853284592   -2.2725325571
 N    0.8748399650   -2.4320137893   -3.3078292328
 C    1.9470926811   -2.2883551739   -2.3012174636
 C    2.9795907419   -1.2250800247   -2.6342871899
 O    4.1047176164   -1.2275225481   -2.2071106710
 H    1.1238374205    1.6804399997    0.4566952861
 H   -0.0559256253    1.9723778138   -0.8335580059
 H   -0.6029434445    1.8252438273    0.8494643289
 H    0.0994324305   -0.5796080997    0.8829488864
 H   -1.0784601427   -0.2839126574   -0.4098056243
 H    0.9128275278   -2.4233470979   -0.2984136720
 H   -0.6063954907   -3.3593619633   -1.9946544467
 H   -1.0003463683   -1.6930795096   -2.5012227716
 H    0.9102478000   -3.2762459745   -3.8662371798
 H    2.4701659591   -3.2084160910   -2.0118124594
 H    2.5994925508   -0.4380498820   -3.3192792877