16

 C   -0.0518134827    1.4193982958    0.0930501098
 O   -0.0049260769    0.0216117748   -0.1477409192
 C   -1.2440368864   -0.6327483112   -0.0122826842
 C   -1.1702532766   -2.0424778186   -0.6243875365
 C   -1.7364148449   -2.9428603859    0.4432483991
 C   -1.9966060496   -2.3063986941    1.5924510323
 C   -1.6586312930   -0.8736145284    1.4668345221
 O   -1.6839025129   -0.0294718071    2.3342046750
 H    0.9534112449    1.8019135095   -0.0993691723
 H   -0.7580660900    1.9126314069   -0.5936966224
 H   -0.3438298061    1.6465155154    1.1224197534
 H   -2.0446989005   -0.0419819924   -0.4891405174
 H   -1.7148473004   -2.1328999822   -1.5702281903
 H   -0.1237626679   -2.2903738380   -0.8368076219
 H   -1.8944911917   -4.0022906845    0.2694026778
 H   -2.3762831054   -2.7398323098    2.5088177145