20

 O    0.0122965335    0.0151234795    0.4060390723
 C   -0.0024715580    1.1873339889    0.0944281012
 C   -1.3178525612    1.9389934370   -0.0996974871
 C   -1.2321433847    3.1493357696   -1.0413419416
 C    0.0184236122    3.9797017946   -0.7254870616
 N    1.2520675886    3.1985216484   -0.8352778249
 C    1.2561059505    2.0088972089   -0.0108790023
 C    2.0697248021    2.0782827331    1.2862998760
 C    2.5697347080    1.2838376528    0.1209473664
 H   -2.0815521713    1.2166616060   -0.4001060023
 H   -1.5994314669    2.2876953044    0.9053076524
 H   -1.1771622718    2.8091511108   -2.0840735844
 H   -2.1398271603    3.7587226879   -0.9575395015
 H    0.0951099747    4.8405523072   -1.3974723052
 H   -0.0427319389    4.3753155389    0.2971677234
 H    1.3858612750    2.9277081744   -1.8060070070
 H    2.5328364383    3.0370848807    1.4877959400
 H    1.6871298406    1.5401346457    2.1458787208
 H    2.5105270005    0.2038944529    0.1802023943
 H    3.3957073790    1.6913326481   -0.4501971989