21

 C    0.4155277962    1.8906508679    0.3737929876
 C    0.4201831122    0.3812438841    0.3562800598
 N    1.7485103847   -0.2714570315    0.3233691367
 C    0.8985550146   -0.4337008683    1.4986296230
 C    1.3805797117   -0.0960313952    2.9100640733
 N    0.9278628185   -1.4431156423    3.4277781345
 C   -0.5284272035   -1.5604414735    3.1862417455
 C   -1.5283722545   -0.4382224141    3.3456549280
 C    0.3831410025   -1.7504132592    2.0338527414
 H    1.2168713273    2.2704631863    1.0132344004
 H    0.5708385459    2.2927447819   -0.6330696230
 H   -0.5398726544    2.2763964529    0.7467327231
 H   -0.3631060664   -0.0738468524   -0.2502654537
 H    1.7236585408   -1.1108790903   -0.2518473749
 H    2.4684464734   -0.0307650504    2.9726273947
 H    0.9339023182    0.7610079719    3.4233336032
 H   -0.8755327751   -2.4982807681    3.6186832304
 H   -1.2498664470    0.4644532236    2.7991572232
 H   -2.5050083189   -0.7624859664    2.9711575787
 H   -1.6488931228   -0.1767935638    4.4026907660
 H    0.5417375068   -2.7148438930    1.5565841222