21

 C   -0.1068738319    1.5837850187    0.0420799190
 C    0.0002286545    0.0487594104    0.0057341440
 C   -1.4129890958   -0.5675006801   -0.0200370050
 C    0.8042924884   -0.4406937025   -1.1938079311
 C    1.7982483774   -1.2617236733   -0.8542343311
 C    1.8962134531   -1.4140876597    0.6319170521
 O    2.1639503632   -2.6665466261    1.1862077047
 C    2.2574428343   -0.1478520408    1.3776613610
 C    0.8016328939   -0.5298660701    1.1830087260
 H    0.8787519346    2.0560291052    0.0769904874
 H   -0.6274492650    1.9593464453   -0.8459861465
 H   -0.6708358014    1.9119276038    0.9217159491
 H   -1.9600097941   -0.2579846222   -0.9171276991
 H   -1.3613538572   -1.6601236762   -0.0143747013
 H   -1.9921791535   -0.2457213754    0.8534469214
 H    0.5665394386   -0.1204980410   -2.2034043354
 H    2.4873930606   -1.7496933975   -1.5351960372
 H    3.1197740754   -2.7733960769    1.2342614203
 H    2.6352714868   -0.2744069714    2.3879229474
 H    2.6881091142    0.6809357490    0.8252747411
 H    0.2616483239   -0.8441904090    2.0691056632