15

 C    0.6961765081   -0.4803688949    0.8753224160
 C    0.2482648213    0.4914349545    0.3281009692
 C   -0.3243365543    1.6566567859   -0.3519993793
 O    0.6268052774    2.5340937604   -0.9312889720
 C    1.3331384640    3.3054617115   -0.0035138062
 C    2.6417333116    2.8054825102    0.5492677911
 C    2.6099566089    3.9078562284   -0.4909584493
 H    1.0947443779   -1.3354440449    1.3631003221
 H   -0.9555090932    1.3195014515   -1.1812258737
 H   -0.9740247537    2.2042405860    0.3494471310
 H    0.6934932630    3.9014203378    0.6491064874
 H    2.9012628252    3.0542067963    1.5724420216
 H    2.9639710336    1.8255912167    0.2202921575
 H    2.9105159952    3.6446787923   -1.4986998797
 H    2.8477624951    4.9231956982   -0.1949390757