20

 C    0.0032673367    1.5366780697    0.0123576638
 C    0.0139486274    0.0012266538    0.0251048072
 C   -1.4369781855   -0.5114066510   -0.0223060022
 N    0.6973577573   -0.4407487538   -1.2057195815
 C    1.5043926599   -1.4113151459   -1.1591644300
 O    1.8652559517   -2.1875026119   -0.1031291092
 C    1.0834015372   -2.0063271899    1.0898669214
 C    0.7473984250   -0.5308853567    1.2857613381
 O    1.9293119486    0.1965098869    1.5924214157
 H    1.0187464719    1.9338673558    0.0266843637
 H   -0.4988516692    1.8904287252   -0.8916885008
 H   -0.5258292984    1.9270400774    0.8879187667
 H   -1.9122521237   -0.1766346967   -0.9481548217
 H   -1.4909298670   -1.6033856520   -0.0020541037
 H   -2.0116568245   -0.1200494824    0.8238801176
 H    2.0497190583   -1.7289627860   -2.0468596240
 H    0.1815424947   -2.6246415863    1.0192020152
 H    1.7018784574   -2.3717606478    1.9117878753
 H    0.1032696287   -0.4210382113    2.1646300835
 H    2.5661038534    0.0407578530    0.8856431149