21

 O    0.2160507550    0.2389566580   -1.6668018855
 C   -0.2173776463    0.4373500723   -0.3308812536
 C   -1.4449699371   -0.4293417900    0.0451921761
 C   -1.1828837837   -1.9129042106   -0.2370180477
 O   -0.0427128326   -2.4388337907    0.4208988546
 C   -0.2607674244   -2.8037799137    1.7710461512
 C   -0.2622173137   -1.6344415029    2.7594499556
 C   -1.3582000520   -0.6068588621    2.5949568498
 C   -1.8651507085   -0.1141817596    1.4623487493
 H    0.7417495503   -0.5666243761   -1.6823842901
 H    0.5921614418    0.2413385393    0.3830750155
 H   -0.4834301689    1.4955987966   -0.2445561053
 H   -2.2596361028   -0.1399780703   -0.6318698783
 H   -2.0758839615   -2.5038920309    0.0167036290
 H   -0.9936006676   -2.0358412554   -1.3086825277
 H   -1.2071573607   -3.3614250625    1.8576059685
 H    0.5557752255   -3.4865783313    2.0300433777
 H   -0.3256242297   -2.0643096045    3.7670161303
 H    0.7176707074   -1.1375033439    2.7121999966
 H   -1.7519403874   -0.2076507299    3.5277826399
 H   -2.6294596532    0.6549572684    1.5559885939