18

 O    0.0536064964   -0.0434888714    0.0451888942
 C   -0.0341102312    1.1634261252   -0.0189538424
 C   -1.3737511676    1.8690524011   -0.1652366257
 C   -1.2508317304    3.2501665097   -0.8269611660
 C   -0.0616174956    4.0234544678   -0.2780567775
 C    0.2075020361    3.9851946218    1.2554470322
 C    1.4499050672    3.1781676372    0.9125176711
 C    1.2035277223    2.0068155565    0.0160988087
 N    1.2830298821    3.3719697444   -0.5687176331
 H   -2.0457042883    1.2001022981   -0.7091767326
 H   -1.7952951718    1.9702742357    0.8436965261
 H   -1.1140021339    3.1385550281   -1.9096514390
 H   -2.1725621587    3.8247553464   -0.6819967851
 H   -0.0378111547    5.0353226873   -0.6863400262
 H    0.4609269162    4.9716724238    1.6478408698
 H   -0.5348694880    3.5306132419    1.9166439059
 H    2.4177722675    3.2790161145    1.3944246999
 H    2.0924772923    1.4210579418   -0.1993968303