20

 C   -0.3099327683    1.4950726698   -0.2088020027
 C    0.0231488749   -0.0018606408    0.0034194378
 C    0.8371535400   -0.2025955309    1.3031713791
 C   -1.2523135989   -0.7238682319    0.1552930794
 N   -2.2511048070   -1.2815758239    0.3198312504
 C    0.7876996084   -0.5482003558   -1.2264741706
 C    2.1901603042   -0.0139091240   -1.4431160139
 C    0.4348789855   -1.8496943057   -1.8164560941
 O   -0.0078397201   -0.6215082782   -2.4109737538
 H    0.6065428020    2.0899855178   -0.2347269258
 H   -0.8490946402    1.6340175991   -1.1482382387
 H   -0.9315081753    1.8661581021    0.6098322846
 H    0.2530011181    0.1194960198    2.1686851057
 H    1.1052451278   -1.2532201909    1.4439515322
 H    1.7533376560    0.3918940275    1.2713914199
 H    2.8778321200   -0.3569241558   -0.6648049227
 H    2.5595943328   -0.3677834530   -2.4080165383
 H    2.2106290417    1.0794879826   -1.4591051491
 H    1.1908930132   -2.3914713446   -2.3831796842
 H   -0.3509936049   -2.4599959332   -1.3792291153