22

 C   -0.9190484928    1.1729246519   -1.5399365522
 C   -0.4892710854   -0.0781041323   -0.8041368707
 C    0.9499779277   -0.5522351644   -0.7149220884
 C    2.1211704456    0.1675068457   -1.3458413414
 C    0.2432996172   -0.0445605854    0.5250065712
 C    0.6447028328    1.2550171406    1.1979003305
 N   -0.1615675799   -1.0675723558    1.4639989643
 C    0.7211003194   -1.7684151864    2.2271002427
 O    1.9290300727   -1.6842552815    2.1577174569
 H   -0.1785138432    1.9736919386   -1.4850286198
 H   -1.0840254521    0.9546868522   -2.6006481583
 H   -1.8579305023    1.5666275440   -1.1344866404
 H   -1.2143735996   -0.8859345242   -0.8816875793
 H    1.0617298491   -1.6320571423   -0.7295720998
 H    1.9940538741    1.2522404215   -1.3752546918
 H    3.0387452717   -0.0452835358   -0.7879090596
 H    2.2691264971   -0.1711752993   -2.3770686254
 H    0.9553584647    2.0178687817    0.4821254320
 H   -0.1899343548    1.6626839674    1.7794849661
 H    1.4799037935    1.0701895514    1.8795233907
 H   -1.1418664764   -1.1508359255    1.6892942029
 H    0.2013188610   -2.4543147522    2.9279889799