21

 O   -0.0223724262    1.4067345983    0.2795341031
 C    0.0116496394   -0.0099759144    0.1785767812
 C   -1.4132731072   -0.4934544540   -0.0624349693
 C   -1.4910108720   -2.0019703970   -0.2115935908
 O   -1.0798346645   -2.7033598829    0.9941609887
 C   -2.3380743302   -3.4057816050    1.0883417717
 C   -2.8626924417   -2.6782666687   -0.1437260107
 C   -4.2183511555   -2.0843635264   -0.3705834573
 C   -3.7132330651   -3.2030019616   -1.2560189658
 H    0.8603088044    1.7105377550    0.5097873293
 H    0.6601740500   -0.3341374363   -0.6526969290
 H    0.3984150651   -0.4726054089    1.0977035097
 H   -2.0477977645   -0.1707408962    0.7699397410
 H   -1.8004079952   -0.0184883432   -0.9733266727
 H   -0.8801119035   -2.3323527145   -1.0662612856
 H   -2.2099508924   -4.4915956519    0.9817062211
 H   -2.8552423756   -3.1975743432    2.0342319474
 H   -4.9993873506   -2.3118656867    0.3483628841
 H   -4.2799790074   -1.0861204541   -0.7917147934
 H   -3.4289270811   -2.9582661950   -2.2749605478
 H   -4.1535986462   -4.1887506032   -1.1419450653