23

 C   -0.0030220250    1.5885819840   -0.0266497851
 C   -0.0429527266    0.0599977344   -0.0895137265
 C    0.7850552747   -0.5195812937   -1.2437787488
 O    2.1527877447   -0.1158298230   -1.1650429641
 C    0.6698087959   -2.0356766893   -1.3458383812
 C   -0.6724470856   -2.6615846004   -1.8249779943
 C    0.1613605648   -3.7009992944   -2.6221764451
 O   -0.2885675579   -4.1657787666   -3.8683727788
 C    1.3792680628   -2.7454087738   -2.5321520941
 H    1.0291274122    1.9433333134    0.0341122191
 H   -0.4522572396    2.0304825391   -0.9230427778
 H   -0.5513718607    1.9657049735    0.8417514540
 H    0.3327450559   -0.3642347135    0.8536712132
 H   -1.0788079723   -0.2883926280   -0.1865441128
 H    0.4327264392   -0.0796639800   -2.1875223616
 H    2.5198471967   -0.4908031085   -0.3563011327
 H    0.9773581608   -2.4853824640   -0.3921615376
 H   -1.3841173199   -3.0258631619   -1.0808255767
 H   -1.1960463109   -1.9817374913   -2.5090389119
 H    0.3283128587   -4.5999975658   -2.0207838183
 H   -0.4162562171   -3.4018398188   -4.4407476611
 H    1.4229747119   -2.0831732119   -3.4053288740
 H    2.3695300974   -3.1773040396   -2.3751570838