18

 C    0.1107444588    1.6117456995   -0.0223305923
 C    0.0062888443    0.1174686406    0.0598185904
 C   -0.8629944808   -0.6393647886    1.0246124182
 C    0.6239517137   -0.8831429460    1.0135713421
 N    1.2286132313   -1.7099086387   -0.1077909561
 C    0.2123869571   -2.2462660869   -1.0625765213
 C   -1.0095950988   -2.9444110167   -0.7725973977
 C   -1.9824732469   -3.6400632901   -0.6365272524
 C    0.5364067271   -0.7898561152   -1.0715595820
 H    1.0907496077    1.9255245272   -0.4001525469
 H   -0.6530869769    2.0288195978   -0.6901964277
 H   -0.0289861995    2.0659080220    0.9635258075
 H   -1.1660717791   -0.0393068090    1.8794993226
 H   -1.5954082007   -1.3715311507    0.7198548470
 H    1.2522315498   -0.7434647979    1.8841217985
 H    0.7640682937   -2.7670280844   -1.8465747909
 H   -2.8561843494   -4.2252046411   -0.4878735027
 H    1.0823082886   -0.3669647818   -1.9120917263