12

 O    1.4868933835    2.3950526218   -1.1953942869
 C    0.4789030161    1.9781062606   -0.6892506050
 C    0.5206951409    1.1502757234    0.5327664940
 N    0.5687807650    0.4738772079    1.4691085207
 C   -0.9018625362    2.2186295567   -1.2640326161
 C   -1.6635531700    0.9708365060   -1.7746159384
 C   -2.6594512726    1.3420353241   -0.6737284871
 O   -3.6980233797    0.9655659547   -0.2552467825
 O   -1.9079728480    2.4209416796   -0.2324839422
 H   -0.8530563797    3.0626103394   -1.9534792834
 H   -2.0474568334    1.0305913781   -2.7930563089
 H   -1.1738328358    0.0077402877   -1.6173426539