20

 C   -0.2300737603    1.4966963889   -0.0309360620
 C    0.0830759491    0.0051221980    0.0392752030
 C    0.9299138433   -0.5300372940   -1.1234879473
 O    1.4550267824   -1.7688040338   -0.6714660262
 C    1.6468563129   -1.6855963014    0.7315249372
 C    1.6783035693   -2.9909721793    1.4634713319
 C    2.9534929555   -2.1798919950    1.2811570260
 C    0.9475251673   -0.4274462127    1.2409803589
 H    0.6911715835    2.0899533081   -0.0597564787
 H   -0.8134322294    1.7404615577   -0.9254042220
 H   -0.8088606264    1.8224595901    0.8392056513
 H   -0.8540217900   -0.5648746743    0.0588850719
 H    0.3582532457   -0.7187826221   -2.0370204028
 H    1.7406585522    0.1793970514   -1.3647027661
 H    1.2323258962   -3.0452823648    2.4514171338
 H    1.5730934436   -3.8889429145    0.8645919985
 H    3.6776344178   -2.5520746733    0.5650692617
 H    3.3788890527   -1.6785763322    2.1451900398
 H    1.6801909899    0.3551040561    1.4743003963
 H    0.3593819646   -0.6097603928    2.1441582046