17

 C    0.0340317794    1.4874640737    0.2417358611
 C   -0.0870590923   -0.0084674559   -0.1005015901
 C   -1.4956686343   -0.5029244045   -0.0811918170
 C   -2.2851011740   -1.0113452644   -1.0514914941
 C   -3.5403136380   -1.3976649155   -0.3067602959
 O   -3.7076307007   -0.3040951984    0.6418947015
 C   -2.3853540460   -0.6404521233    1.1431991485
 C   -2.8577305694   -2.1483406722    0.9209683256
 O   -2.8238354003   -3.2038522982    1.4489277279
 H    1.0820673507    1.8008584692    0.2307376880
 H   -0.5148721825    2.0982078166   -0.4808393299
 H   -0.3708155834    1.7028597155    1.2354189988
 H    0.3490719058   -0.2002904345   -1.0868953540
 H    0.5079032240   -0.5882391416    0.6186064517
 H   -2.0622608558   -1.2022240767   -2.0912042493
 H   -4.4469017394   -1.7130741540   -0.8161389697
 H   -2.1251612639   -0.1980045760    2.1017312168