20

 C   -0.2786571265    1.4684761961   -0.0570917895
 C    0.1640650533   -0.0024184688    0.0465015342
 C    0.8305295469   -0.5210149567   -1.1893883295
 C    2.1006560074   -0.9236220419   -1.3169581459
 N    2.3904128111   -1.3319864089   -2.6314005820
 C    1.2759096010   -1.2423694769   -3.4400301252
 O    1.2034504863   -1.5693823075   -4.6032352992
 C    0.1605487514   -0.6626394936   -2.5450928717
 C   -1.0948278466   -1.5463391066   -2.5879624213
 H    0.5791355687    2.1224480557   -0.2425734678
 H   -0.9918060786    1.6143382199   -0.8748750759
 H   -0.7636845705    1.7948254984    0.8680913967
 H    0.8484392300   -0.1173192092    0.8954973937
 H   -0.7164856774   -0.6172807059    0.2802022715
 H    2.8788312959   -0.9602383672   -0.5668059929
 H    3.2618514149   -1.7237250490   -2.9471144442
 H   -0.0946437143    0.3233621616   -2.9581767505
 H   -0.8992847756   -2.5249775139   -2.1387096489
 H   -1.9240637365   -1.0821714141   -2.0465724454
 H   -1.3970878606   -1.7009132113   -3.6270677661