21

 C   -0.0801878130    1.5745466523    0.0073153845
 C   -0.0386014953    0.0436400060    0.0043731243
 C   -1.4684261342   -0.4602463761   -0.2197154184
 C    1.1297498104   -0.6709054073   -0.7850374925
 C    2.1154511318   -0.1982313951    0.3356092427
 C    0.8384500686   -0.6825135051    1.1008711279
 C    0.9012234844   -1.8792788229    0.1377099692
 C    0.3410702783   -3.2174052557    0.0428768106
 O    1.7528580931   -2.9952241219    0.2623479122
 H    0.8845051233    2.0582473457    0.1595035866
 H   -0.4838112391    1.9390100806   -0.9442350458
 H   -0.7530915508    1.9283448229    0.7967580955
 H   -1.8600138546   -0.0785766188   -1.1697294858
 H   -1.5528755707   -1.5466119764   -0.2386190018
 H   -2.1296430602   -0.0879239209    0.5712897741
 H    1.2984534903   -0.6744954223   -1.8629741349
 H    3.0048090589   -0.8150190998    0.4691892572
 H    2.3622580912    0.8599293819    0.3802451786
 H    0.6741088220   -0.6994038099    2.1793537522
 H   -0.1948144573   -3.6510223007    0.8868702537
 H    0.0856419930   -3.6397262164   -0.9286798201