16

 C   -0.0538713144    1.6285733716    0.0120542704
 C    1.4497199534    1.8667482383   -0.0013704818
 C    2.1258773634    0.7364505736    0.7460347809
 C    2.1110012583    0.7446397933   -0.7739986306
 C    1.0866707354   -0.3921016495   -0.9828929122
 O    1.4692815901   -1.4167752110   -0.0192421540
 C    1.1057042812   -0.4025752876    0.9626834554
 C   -0.0125988905    0.1131150496    0.0034901660
 H   -0.5375449998    2.0345133911    0.9077856365
 H   -0.5549361757    2.0440874773   -0.8696168569
 H    1.8737178377    2.8642691084   -0.0001442054
 H    3.0226406988    0.8551145956    1.3375119309
 H    2.9960284725    0.8697651467   -1.3816014576
 H    0.8996979295   -0.7740714689   -1.9854227515
 H    0.9383406885   -0.7953348039    1.9645093612
 H   -0.9371352186   -0.4587514046    0.0094552388