19

 C   -0.0373787286    1.5749848030   -0.0421912704
 C   -0.0140756237    0.0401695962   -0.0234912873
 O    0.6849205973   -0.4371688311    1.1200377004
 C   -1.4446977557   -0.5231685880    0.0076744363
 O   -1.9890870297   -0.1452040786    1.2706466563
 C    0.7776843550   -0.5031514788   -1.2410177986
 N    2.1557091132   -0.0178987724   -1.1801053393
 C    0.7006502699   -1.9810532842   -1.3150517646
 N    0.6832780047   -3.1331187386   -1.4148034846
 H    0.9800491232    1.9638952661   -0.0094571677
 H   -0.5274331707    1.9525159422   -0.9461257995
 H   -0.5959891434    1.9378411277    0.8238020348
 H    0.0548776383   -0.3863649636    1.8507938588
 H   -2.0391315752   -0.1094759861   -0.8200875047
 H   -1.4155447888   -1.6144199286   -0.0907746681
 H   -2.7265946296   -0.7270012549    1.4725155946
 H    0.3131616446   -0.1108055933   -2.1536827701
 H    2.5655631816   -0.3311019484   -0.3043820075
 H    2.7023916077   -0.4210610686   -1.9339970389