21

 C    0.2896960883    1.6095486260    0.0353529012
 C   -0.0537670024    0.1433454660   -0.1588223843
 O    0.8847025465   -0.4186831127   -1.0654518016
 C    0.6728183357   -1.7894055155   -1.3332089972
 C   -0.5585625946   -1.9792188112   -2.2202039692
 O   -1.3141634991   -2.9127014889   -2.1526101248
 C    1.8852994877   -2.3241765911   -2.0623211749
 C    3.0438719674   -2.8869490466   -1.2789809923
 C    2.1518935270   -3.8077590720   -2.0707503088
 H    1.3049489631    1.7153511401    0.4277630808
 H    0.2320780214    2.1470157724   -0.9153319284
 H   -0.4069475160    2.0732644279    0.7398992026
 H   -0.0142184513   -0.3978625816    0.8006271862
 H   -1.0808434270    0.0358975582   -0.5442396754
 H    0.5127543582   -2.3631438392   -0.4063473361
 H   -0.6824838076   -1.1678099636   -2.9761847877
 H    2.1259880275   -1.7705358937   -2.9652801116
 H    4.0453119785   -2.6933468688   -1.6463081255
 H    2.9608143491   -2.8998923297   -0.1975071879
 H    1.4618659743   -4.4450884246   -1.5285345661
 H    2.5387002734   -4.2491846016   -2.9819950887