17

 N   -0.1927222494    1.4564698609   -0.0793713796
 C   -0.0082226071    0.1182081492    0.0734953439
 O    1.0659314657   -0.3762200361    0.3665151468
 C   -1.2501829179   -0.7379984953   -0.1737883016
 C   -1.4552052954   -1.1095272220   -1.6745290492
 C   -0.9810044198   -2.5237737017   -1.2761402091
 N   -1.0354214162   -2.1593410320    0.1685180849
 C   -1.9145755969   -3.6729904684   -1.5890384703
 O   -2.7485835549   -3.6596233439   -2.4574419640
 H    0.5912351752    2.0738720268    0.0538192880
 H   -1.0923257588    1.8527359255   -0.2883158133
 H   -2.1170541981   -0.2896543340    0.3277127318
 H   -2.4923473946   -1.0906469707   -2.0108156674
 H   -0.8316037652   -0.5710139826   -2.3884775124
 H    0.0249696485   -2.7799324986   -1.6379711677
 H   -0.1397505722   -2.2679590116    0.6392247188
 H   -1.7822017628   -4.5512410953   -0.9169711194