23

 C    0.0959523677    1.5269802672    0.0463626840
 C    0.0502081044    0.0717914091    0.0020926736
 C    0.0278083942   -1.1322991248   -0.0326452228
 C   -0.0186301052   -2.5898793749   -0.0638255410
 C   -1.4527665576   -3.1756338332   -0.0935417838
 C   -2.2163394380   -2.7088226564   -1.3392523976
 C   -1.3761444053   -4.7146593111    0.0320194218
 C   -2.7344498882   -5.3885709321    0.2292366170
 O   -0.6626114230   -5.3006316035   -1.0571037032
 H    0.8729911839    1.8802341247    0.7336653948
 H    0.3113666108    1.9519083170   -0.9405246609
 H   -0.8576616718    1.9474531098    0.3850711739
 H    0.5285655081   -2.9704488692   -0.9350084875
 H    0.5072101441   -2.9868687098    0.8150057312
 H   -1.9809978599   -2.8059658726    0.7952605728
 H   -3.2595587602   -3.0375608269   -1.3287967650
 H   -2.2089833382   -1.6177749103   -1.3996875762
 H   -1.7463272775   -3.0867341396   -2.2552547311
 H   -0.7537831888   -4.9409191456    0.9074165129
 H   -3.3874918974   -5.2415233175   -0.6387709393
 H   -2.5992443225   -6.4645915337    0.3690022438
 H   -3.2523859025   -4.9873568760    1.1064830507
 H   -1.2343164872   -5.2722810104   -1.8315547982