20

 C    0.0525365311    1.5954693687    0.2151974571
 C    0.0619159794    0.0866895514    0.1003742062
 C    1.2885593562   -0.6910152637   -0.3669913196
 C    2.6198199348   -0.0017087560   -0.6219849771
 N    3.3247575121    0.4951729513    0.5537133730
 C    2.8006221882    0.3672455700    1.6940995344
 O    1.6063371756   -0.1676030484    2.0547821169
 C    0.8186212414   -0.8008458652    1.0576308503
 C    0.2139235711   -2.0631476824    1.6127529600
 H    1.0279617123    1.9986466199    0.4952341323
 H   -0.2314585161    2.0506783229   -0.7395563104
 H   -0.6716582380    1.9237050961    0.9681283771
 H   -0.8867318896   -0.3336699122   -0.2259706744
 H    1.0977638258   -1.5535011003   -0.9991120646
 H    3.2910018555   -0.7093418885   -1.1231040917
 H    2.5058653974    0.8391092792   -1.3195130180
 H    3.3121099750    0.7301748229    2.5837475834
 H   -0.3888504570   -1.8456046976    2.5006720432
 H   -0.4306266329   -2.5362723452    0.8669847290
 H    0.9941137776   -2.7769800427    1.8968870529