14

 N   -0.0052606442    1.4340579328    0.1676031413
 C    0.0409358828    0.0420744489    0.0364523648
 C   -1.0089378238   -0.8357462792   -0.0038263217
 O   -0.5728203735   -2.1733310720   -0.0398192981
 C    0.7481419382   -2.0504494592   -0.0344138039
 C    1.2302548941   -0.7773951997    0.0141564087
 C    2.6612842192   -0.9464587673    0.0197510434
 C    2.8732026756   -2.2906495833   -0.0272692187
 O    1.6780235156   -3.0063778275   -0.0615505665
 H    0.7064419990    1.9013785452   -0.3793526027
 H   -0.9117368130    1.8241140015   -0.0560363660
 H   -2.0772528975   -0.7100719942    0.0025281080
 H    3.4352697731   -0.1960017030    0.0589584048
 H    3.7591454845   -2.9014427728   -0.0414795332