16

 C   -0.3285762316    1.5104342925    0.2087315205
 C   -0.0370296650    0.0613621335    0.0143890739
 C    0.2101975092   -0.6740158907   -1.1110573849
 O    0.4132828645   -1.9458214382   -0.7523641081
 N    0.2844550179   -1.9890457966    0.6833512319
 N    0.0312854968   -0.8247356185    1.0701583175
 C    0.2724434913   -0.3300999478   -2.5353565908
 C    1.2381282181   -1.0322428013   -3.4338781952
 N   -0.1971232811   -1.2915377140   -3.5546666540
 H    0.4856338488    2.0129679754    0.7412950209
 H   -0.4648087094    2.0142504997   -0.7510853971
 H   -1.2401851433    1.6474032016    0.7978973576
 H    0.0162964231    0.7025706630   -2.7504340466
 H    1.6796463190   -0.4827515781   -4.2600881430
 H    1.8729911657   -1.7903167679   -2.9852190628
 H   -0.4249441540   -2.1730892628   -3.0994190998