16

 O   -0.1295389580    1.3600340387    0.0575588145
 C    0.0424055847   -0.0038114700    0.0218771518
 C   -0.1799539838   -0.8581358206   -1.2519071815
 C   -1.0088180329   -1.0523979853   -0.0142604767
 N    0.0426166976   -2.0593392313    0.4752645395
 C    0.6110573623   -2.1495984495   -0.9436420035
 C    2.0941867650   -1.9609913515   -0.7822484092
 C    2.2949922889   -1.2259991093    0.3167995240
 C    0.9499501024   -0.9077600930    0.9028114947
 H    0.5535780512    1.7700838689   -0.4850096092
 H   -0.4472844862   -0.3927533067   -2.1931562689
 H   -2.0662096903   -1.0936109645    0.2016410873
 H    0.2767205805   -3.0415247847   -1.4762598845
 H    2.8406090636   -2.3140345093   -1.4827535969
 H    3.2395571441   -0.8586102228    0.6979378616
 H    0.8938871808   -0.6980790691    1.9719607271