15

 C   -0.1075056135    1.4687503982    0.0100064290
 C   -0.0270866724   -0.0198975250   -0.0311984648
 N   -0.0837110071   -0.7742934871   -1.1020615845
 C    0.0310728829   -2.0825798047   -0.6620727530
 N    0.0238814078   -3.2567480093   -1.4564789721
 C    0.1579381658   -2.0973718877    0.6977307950
 O    0.2970935686   -3.1055720277    1.5836446349
 N    0.1218952080   -0.7899491208    1.1066991937
 H    0.7957260827    1.9196715850    0.4391075429
 H   -0.2221769485    1.8356961639   -1.0107911671
 H   -0.9623106359    1.8202327354    0.6008213956
 H    0.7766823501   -3.2375648428   -2.1395612797
 H   -0.8387088405   -3.3290219158   -1.9897648776
 H    0.2931975803   -3.9122799912    1.0489404201
 H    0.1921832717   -0.4723090505    2.0587639174