17

 C    0.4678467207    1.3870602171    0.0331540247
 O    0.6293845991   -0.0128437481    0.0360168485
 C    0.1523933171   -0.6230467073   -1.1543255734
 C    0.4537050505   -2.0828315536   -1.0967734935
 C    1.3889466415   -2.7392514460   -0.3544049069
 N    2.3900496183   -2.3417317294    0.5096512918
 O    1.2989363571   -4.0691061556   -0.6377960870
 C    0.2935635695   -4.1513367377   -1.5599374357
 N   -0.2348506943   -3.0187376894   -1.8674160183
 H    1.0169971320    1.8585099185   -0.7964353535
 H   -0.5923694017    1.6701668413   -0.0507716746
 H    0.8608103709    1.7651315080    0.9798732555
 H   -0.9336036714   -0.4722915097   -1.2612330620
 H    0.6271111704   -0.1452998591   -2.0302606180
 H    2.2181782415   -1.3927243670    0.8199675915
 H    2.5206558715   -2.9742448454    1.2894711948
 H    0.0479840575   -5.1380087666   -1.9164774237