15

 N    0.1109694596    1.3528699005    0.1658216750
 C   -0.0651496728   -0.0198297119    0.0523376389
 C   -1.1843434136   -0.8103771106    0.0178564840
 C   -0.6593928861   -2.1457109494    0.0076917636
 C    0.7141594173   -2.0550356396    0.0269806632
 O    1.1002840350   -0.7368861441    0.0579033368
 C    1.2936764955   -3.3416900716   -0.0073356447
 C    0.2134801419   -4.2061104683   -0.0430924694
 N   -0.9698857628   -3.4790476223   -0.0359249383
 H    0.9455344877    1.6730536552   -0.3104945098
 H   -0.6968801788    1.8748285809   -0.1449147363
 H   -2.2051955881   -0.4655975304    0.0031508473
 H    2.3336886452   -3.6237128129   -0.0027834809
 H    0.1913034036   -5.2832181134   -0.0661295151
 H   -1.8893968237   -3.8809139622   -0.0508808846