23

 C   -0.3389215886    1.3721239351    0.0769007200
 C    0.0268474453   -0.1218231696   -0.0335354334
 C    0.6435180990   -0.4401320832   -1.4040826211
 O    1.7988456244    0.3069435583   -1.7295832793
 C    2.9918603917   -0.1636742546   -1.1340400472
 C    3.1510646680    0.2152975011    0.3395142834
 C    2.1710701499   -0.4092639082    1.3046389108
 C    0.8506331881   -0.5713184161    1.1671195971
 C    0.0385301282   -1.1893019591    2.2794424097
 H    0.5511291101    1.9948772370   -0.0399450187
 H   -1.0516303319    1.6553051549   -0.7053797372
 H   -0.7929954314    1.5989778276    1.0460006998
 H   -0.9122085188   -0.6930529047   -0.0099113943
 H    0.8598591700   -1.5185792072   -1.4702563196
 H   -0.0906351095   -0.1961915608   -2.1811843060
 H    3.0618319447   -1.2582798783   -1.2451242750
 H    3.8074479761    0.2859714460   -1.7111316085
 H    4.1680797767   -0.0672372627    0.6390124520
 H    3.1132977671    1.3116969752    0.4176310210
 H    2.6094351332   -0.7362445694    2.2461457686
 H    0.6490304775   -1.4154784805    3.1575801869
 H   -0.7738987230   -0.5206974061    2.5936813204
 H   -0.4411134070   -2.1200047946    1.9485719606