18

 C    0.4091684944    1.3519314421    0.2254056563
 C    0.1295894285   -0.1446204742    0.0531635263
 C    0.5292590017   -0.6337669237   -1.3253720607
 O    1.9637741776   -0.5044659403   -1.5744986990
 C    2.1035171204   -1.8980087601   -1.8762331136
 C    3.0438032977   -2.6054165775   -1.0057754296
 N    3.7683242396   -3.2060934402   -0.3351921977
 C    0.5888341281   -2.1595617904   -1.5798326245
 O    0.2782754965   -2.9066335569   -0.4417693643
 H    1.4698593706    1.5660194376    0.0671429153
 H   -0.1661183892    1.9510087956   -0.4892815272
 H    0.1418891398    1.6840394845    1.2324173435
 H    0.6669840061   -0.7263474768    0.8069501259
 H   -0.9377438203   -0.3559033675    0.1929813078
 H   -0.0263310563   -0.0933362601   -2.1030105191
 H    2.3974874081   -2.0613212926   -2.9211117187
 H    0.0362675632   -2.5019640918   -2.4627773738
 H    0.5036611936   -3.8307152776   -0.5944103869