14

 O    0.0653302042    1.3368644914    0.0077052255
 C   -0.0490925760   -0.0616659584    0.0027037092
 C   -1.5236220730   -0.4293422914    0.0145253083
 O   -2.4503939520    0.3319636322    0.0273689132
 O   -1.6411116227   -1.7765583422    0.0083850518
 C   -3.0002340957   -2.2597837237    0.0188218069
 C   -2.9806226807   -3.7119959643    0.0101478199
 C   -3.0009255057   -4.9122295156    0.0035808898
 H    1.0013096595    1.5566807924   -0.0005405042
 H    0.4003188016   -0.5299149619   -0.8871409064
 H    0.4161990393   -0.5374561771    0.8803389567
 H   -3.5132341608   -1.8738598756    0.9063909977
 H   -3.5303756436   -1.8636618742   -0.8540456436
 H   -3.0166325645   -5.9742152116   -0.0016124347