15

 C   -0.2039499942    1.4761288149    0.0146079173
 C    0.0733225498   -0.0384157451   -0.0321969697
 N    0.7889243630   -0.3793654482   -1.2574033669
 C    1.9208834256   -0.9333943649   -1.1997311182
 O    2.6706578567   -1.2820916632   -0.1269456374
 C    2.2338462692   -0.8282561328    1.1567574796
 C    0.7535912729   -0.4801131744    1.2549685365
 O    0.1926179361   -0.5116247208    2.3236067114
 H    0.7312041132    2.0412253812    0.0834786467
 H   -0.7138638954    1.7761180934   -0.9036438441
 H   -0.8283049112    1.7189650180    0.8772342457
 H   -0.8964212136   -0.5514876828   -0.0614895790
 H    2.4441174886   -1.2200490531   -2.1099384369
 H    2.4718390927   -1.6067256099    1.8844159051
 H    2.8061981065    0.0724430178    1.4241278600