17

 O    0.1954178171    1.3494688533    0.0135255038
 C    0.1432635556    0.0005860297    0.0680673794
 N    0.2638730963   -0.7401753956   -1.0290982856
 N    0.1524610350   -2.0298940889   -0.5835298118
 C   -0.0130837273   -2.0778150042    0.7533195767
 C   -0.0291295140   -0.7879049769    1.2241902306
 C   -0.2666097981   -0.7473106882    2.7054270198
 C   -0.0561868111   -2.2486214364    3.1026349934
 C   -0.2364452145   -3.1136182912    1.8095893615
 H    0.3281054193    1.5864368825   -0.9131129609
 H    0.2396891276   -2.7777709384   -1.2479900392
 H    0.4181350192   -0.0909073195    3.2515337830
 H   -1.2828771266   -0.4096899074    2.9472375209
 H    0.9666583143   -2.3778274325    3.4686020659
 H   -0.7275204568   -2.5664275910    3.9042077047
 H   -1.2460178220   -3.5404042352    1.7441424402
 H    0.4660924362   -3.9528988802    1.7753866876