18

 C    0.0004978341    1.5218028018    0.0501190845
 C    0.0298131914    0.0142629903    0.0153269026
 C   -0.0222300566   -0.7020084824   -1.1804318470
 C    0.0027370547   -2.0901465260   -1.2181941257
 C    0.0842534605   -2.8192967327   -0.0242087866
 N    0.1737756828   -4.2139076696   -0.0426855232
 C    0.1357302402   -2.1223553834    1.1866438346
 C    0.1098638488   -0.7320436141    1.2020315253
 O    0.1623106572   -0.1330871032    2.4289269669
 H    0.9039524972    1.9487944627    0.5082467059
 H   -0.0645519117    1.9295570978   -0.9616233501
 H   -0.8627832575    1.9126223098    0.6074021168
 H   -0.0871491329   -0.1508125979   -2.1146173153
 H   -0.0354069809   -2.6121883759   -2.1689688500
 H   -0.2340675116   -4.6471591002   -0.8585419693
 H   -0.1380971861   -4.6660478428    0.8047043232
 H    0.2013767900   -2.6505775007    2.1321543956
 H    0.1386590404    0.8217435764    2.3135313619