15

 C    0.0015992811    1.4362212347    0.0437022643
 N    0.0055207936   -0.0102486136    0.0180621520
 C   -0.0619234601   -0.7943457672   -1.1787458960
 O   -0.1280443235   -0.3033892043   -2.2804059308
 C   -0.0334611971   -2.2030632519   -0.7704369856
 C    0.0456745857   -2.2460974005    0.5798661235
 N    0.1038542956   -3.2225074840    1.4974911628
 C    0.0717155004   -0.8238649752    1.1126884336
 O    0.1380570093   -0.5131197602    2.2831498908
 H    0.9167215666    1.8209819348    0.5033449516
 H   -0.0601681696    1.7748576388   -0.9915023894
 H   -0.8565896482    1.8143341903    0.6070040246
 H   -0.0723487603   -3.0120792187   -1.4827701992
 H    0.0861240420   -4.1971843760    1.2590642867
 H    0.1539748145   -2.9456291067    2.4655155912