18

 C   -0.0406597441    1.5146659744    0.0390366840
 N    1.4877729419    1.2769573399    0.0487800842
 C    1.1932318144    0.0402321979    0.9212787398
 C    2.2090649068   -1.0403264807    0.5669715255
 C    1.8163740024   -1.1370789206   -0.9175168161
 O    0.6547740423   -2.0044074841   -1.0634755380
 C   -0.5355464760   -1.3500985372   -0.5366502651
 C    0.0458654774   -0.0136128163   -0.1340694140
 C    1.2138043557    0.2517265488   -1.0924315311
 H   -0.4193805190    1.9114961229    0.9848070101
 H   -0.3847248144    2.1123224222   -0.8091229306
 H    0.9746710190    0.2641633673    1.9666056460
 H    3.2387295158   -0.7005258452    0.7214659465
 H    2.0528876616   -1.9850385573    1.0926620536
 H    2.5671943598   -1.5017348443   -1.6166646204
 H   -1.2924506785   -1.2907457153   -1.3277718380
 H   -0.9356114265   -1.9400923375    0.2960063239
 H    1.0536555115    0.6712194652   -2.0849294903