18

 C    0.0944370135    1.5141419300    0.0414943096
 C    0.0447813668    0.0593918403    0.0395424613
 C   -0.0018856286   -1.1453536915    0.0306494927
 C    0.0019224746   -2.5854914053    0.0128106551
 O    1.0294899709   -3.1719206464   -0.7498025192
 C   -0.4626101126   -3.3504671458    1.2465340272
 C   -1.2889997048   -3.3701522944   -0.0176508642
 C   -2.6371681850   -2.6939274826   -0.0889389180
 H    0.9875765171    1.8755909548   -0.4802898994
 H   -0.7776427694    1.9454159700   -0.4626221821
 H    0.1227640057    1.9151415447    1.0608834606
 H    1.8680597806   -2.8708866073   -0.3817536014
 H    0.1093108563   -4.2368781978    1.4971474318
 H   -0.8272779528   -2.7745003617    2.0904083340
 H   -1.1923140495   -4.2788838077   -0.6051986581
 H   -2.6368442994   -1.7534554340    0.4690969913
 H   -2.9106472362   -2.4655953462   -1.1244803026
 H   -3.4164877571   -3.3383697291    0.3320885212