18

 N    0.0894347122   -1.1476824403    0.5944795148
 C    0.0849658551   -0.0171792592    0.3522002743
 C    0.0283779841    1.4081918074    0.0203765406
 C   -0.7529039665    2.2329841761    1.0885578481
 C    0.2924811851    2.6771754296    2.1214861237
 C    0.8312247634    1.5937289811    3.0800250427
 O    2.0376099017    1.4394512425    2.2981636074
 C    1.6761094606    2.5315452976    1.4277334256
 C    1.4298860356    2.0801064049   -0.0084909966
 H   -0.4590760795    1.4808080647   -0.9565500823
 H   -1.1784093746    3.1119039761    0.5934260734
 H   -1.5806550950    1.6684813026    1.5249518813
 H    0.0485549407    3.6339003850    2.5834433847
 H    1.0516714137    1.9505424432    4.0936181004
 H    0.2605011979    0.6606112799    3.1394009348
 H    2.3875283071    3.3612282926    1.5040183549
 H    2.2177099814    1.4168411733   -0.3718161923
 H    1.3861267669    2.9554367430   -0.6664156255