15

 O    0.1879572028    1.3215683109   -0.3534415460
 C   -0.0011239443   -0.0344773859   -0.0598315525
 C    0.5329255760   -0.4070154666    1.3348643205
 O    1.5024560100    0.1209953659    1.8317602328
 C   -0.3945087101   -1.4016438364    1.9098266880
 C   -1.5126525556   -1.4374747183    1.1654133612
 C   -1.4510173953   -0.5000948340    0.0138968653
 C   -2.5891111508    0.3103928727   -0.4454784284
 O   -2.1605364622   -0.8396015875   -1.1775914006
 H    0.9454774236    1.6017649746    0.1814050433
 H    0.5103175740   -0.6802551716   -0.7951076916
 H   -0.1959315689   -1.9501027709    2.8212796036
 H   -2.3852368426   -2.0564890027    1.3416615929
 H   -3.5562165518    0.2196181102    0.0469031114
 H   -2.3702624947    1.2714603696   -0.9047579898