16

 C   -0.0083938109    1.4536457967    0.0528713499
 C    0.0092790511   -0.0009677807    0.0528969680
 C   -0.0007123803   -1.2088831657    0.0543963184
 C    0.0307986151   -2.6217198472    0.0523520054
 C    1.1600584986   -3.4035828824   -0.1114789490
 N    2.4904434312   -3.0802807429   -0.3835998996
 N    0.7208499127   -4.7018496748   -0.0477077728
 C   -0.6399499564   -4.6604543122    0.1480967571
 N   -1.0866581024   -3.4368529363    0.2079671024
 H    0.6242874099    1.8677656791    0.8468055156
 H    0.3445184258    1.8641280155   -0.9005726403
 H   -1.0251931938    1.8284033359    0.2150171430
 H    2.5816074861   -2.0746449809   -0.4778551781
 H    3.1335994097   -3.3942470142    0.3369719396
 H    1.2880524090   -5.5180539908   -0.2053860838
 H   -1.2290616354   -5.5594033090    0.2500353643