23

 C   -0.5084942663    1.4249888876   -0.0022659232
 C    0.0106071574   -0.0128580356   -0.0337055352
 C    0.9594430598   -0.3340076476   -1.2080914541
 C    1.6149923613   -1.6656620214   -0.8005289417
 C    1.8222301507   -1.5208097144    0.7044089958
 O    2.9255078171   -0.6396333718    1.0233066957
 C    2.0421575348    0.3524838134    1.5805560187
 C    0.7829126754   -0.4794541769    1.2268503840
 C   -0.1080488148   -0.8617579739    2.3981381742
 H    0.3104039006    2.1492835728    0.0631991901
 H   -1.0739231572    1.6535951085   -0.9116907324
 H   -1.1751679776    1.5954953785    0.8498498474
 H   -0.8585629089   -0.6816251394   -0.1229856738
 H    0.4358858365   -0.3844102109   -2.1671610246
 H    1.7252288495    0.4456421512   -1.2969810881
 H    0.9339094409   -2.5046328434   -0.9924980344
 H    2.5553716510   -1.8727607735   -1.3192111693
 H    1.9082431896   -2.4735693051    1.2401179888
 H    2.2089146474    0.4896011603    2.6575017934
 H    2.1538513764    1.3239622376    1.0833755649
 H   -0.6858637236   -0.0016748532    2.7565229813
 H   -0.8225295671   -1.6423285502    2.1126739163
 H    0.4798816271   -1.2375866925    3.2419859364