17

 O   -0.0751022170    1.4421554744   -0.1224317697
 C   -0.0093265626    0.0490827580   -0.0856691791
 C    0.4573656253   -0.6498974985    1.2548997240
 C   -0.9171739751   -1.3207976149    1.3255216406
 C   -1.2454355864   -2.6773138083    1.8921310437
 C   -1.2034944358   -2.7086198128    3.3578360454
 N   -1.1671827685   -2.7271276973    4.5121698039
 N   -1.8965398619   -0.2071095944    1.3414981091
 C   -1.3498184701   -0.6959515567    0.0458791857
 H   -0.7158633425    1.6907574000    0.5582486784
 H    0.5824126646   -0.2740164826   -0.9444873133
 H    1.2777239714   -1.3535472270    1.0928741192
 H    0.6993185114    0.0212679944    2.0814122645
 H   -2.2430803049   -2.9959075025    1.5654997932
 H   -0.5364253040   -3.4228936916    1.5125882188
 H   -2.8317136371   -0.5977158623    1.4513446825
 H   -2.0132987669   -1.0570671277   -0.7313277568