17

 C   -0.1863473148    1.5163147067    0.1976159916
 C    0.0435728932    0.0387562242   -0.0552689193
 C    1.0368866535   -0.3043336487   -1.1754584635
 C    1.6094008314   -1.6438163947   -0.7104411886
 N    2.9222506323   -1.9749264537   -1.2376620427
 C    1.5208861803   -1.5114966731    0.8196223931
 O    2.1469003201   -2.1228456731    1.6383534564
 O    0.6117577541   -0.5578351027    1.1416021779
 H    0.7594988862    2.0203664617    0.4177922540
 H   -0.6314093785    1.9818613103   -0.6874532889
 H   -0.8629090866    1.6651823848    1.0431063693
 H   -0.9163636398   -0.4628870976   -0.2372042160
 H    0.5656980441   -0.3423826155   -2.1589986488
 H    1.8351784321    0.4478157867   -1.2096064530
 H    0.9194547347   -2.4531847567   -0.9897829150
 H    3.5833508435   -1.2500885591   -0.9668731799
 H    3.2493032643   -2.8196783893   -0.7739319565