21

 C    0.0194115451    1.4658732135   -0.0274447688
 C   -0.0722238249    0.0059015203    0.4310221969
 C   -1.4227570579   -0.6099499027    0.1363982091
 C   -1.7324963078   -1.1892334905   -1.2120625248
 C   -1.6001887897   -2.1201762440   -0.0108659929
 C   -0.4840660569   -3.0128733311    0.0911105599
 C    0.4518621719   -3.7708942814    0.1716200027
 C    1.5771449666   -4.6890803396    0.3285667276
 O    2.4394453212   -4.3600460858    1.4118601504
 H    1.0028989286    1.8889169647    0.1990742355
 H   -0.1440719648    1.5507713522   -1.1068635092
 H   -0.7329834337    2.0876632758    0.4705181788
 H    0.7097644283   -0.5887433025   -0.0533061815
 H    0.1256868566   -0.0553148176    1.5087812095
 H   -2.2555764716   -0.1217483372    0.6377549420
 H   -2.7221675472   -1.0584490910   -1.6353046131
 H   -0.9294017348   -1.2262981735   -1.9400568351
 H   -2.5341802908   -2.5166445924    0.3776691826
 H    1.1933791946   -5.7179990663    0.4240747946
 H    2.2094597308   -4.6732469059   -0.5665357787
 H    1.8825055864   -4.2176177348    2.1842345746