18

 C   -0.1108677773    1.5150573240    0.0515709219
 C    0.0439525708    0.0111810560    0.0651897819
 C    1.3886640695   -0.6428727821   -0.1935965405
 O    2.5373465439    0.1494264298   -0.3005514070
 C    0.7858049191   -0.6973967340    1.1820026823
 C    1.4329213373    0.0167120322    2.3730506829
 O    1.2278517750   -0.9189980696    3.4630279274
 C    0.5722190684   -1.9701864359    2.9178723373
 N    0.2774831316   -1.9584011279    1.6832958257
 H    0.8224272274    2.0152551383    0.3241068220
 H   -0.3956210596    1.8672440836   -0.9461339836
 H   -0.8891622947    1.8430037378    0.7488901613
 H   -0.8076770880   -0.5499879227   -0.3092584906
 H    1.4062896665   -1.5720940017   -0.7605119238
 H    2.5393105549    0.5653176010   -1.1692584079
 H    2.5055272161    0.1798415490    2.2440855307
 H    0.9548305537    0.9628365444    2.6438872866
 H    0.3439356156   -2.7692650021    3.6135755133