16

 C   -0.1240892953    1.5222343939   -0.0395405193
 C    1.4256470728    1.7231711123    0.0505171574
 C    2.1795454811    2.1904732958    1.3371537125
 N    2.1417703891    1.0215725007    2.2704839600
 C    1.5603175863   -0.0421678704    1.5706695538
 C    1.3886705808    0.2406364512    0.2541408372
 N    0.0170738556   -0.0452271311   -0.0617403197
 C   -0.3671088920   -0.7932330615    1.0704881208
 N    0.5232845953   -0.8648633659    2.0275397252
 H   -0.6793117812    1.8351215813    0.8450549249
 H   -0.5993149375    1.8775134804   -0.9532022434
 H    1.8545999758    2.1484691489   -0.8588064371
 H    3.2075998178    2.4436445692    1.0488556202
 H    1.7484231960    3.0774827600    1.8199554893
 H    2.9624163337    0.8814473283    2.8435202798
 H   -1.3121615684   -1.3242005031    1.0974242384