19

 C    0.5242092807    1.4296392939    0.1194708548
 O    1.1988002360    0.2261065940   -0.2631926426
 C   -0.2010963305    0.1584442753    0.0010671236
 C   -0.6033278859   -0.6414692792    1.1946038768
 C    0.3446963803   -0.9372713164    2.3260767614
 C   -0.1861333828   -2.0642871806    1.4510913600
 C   -1.4467797284   -2.7797290942    1.9047027556
 C   -2.4022629544   -1.6143897008    2.2495892726
 O   -1.9711521879   -0.4850695841    1.4866625933
 H    0.7741099547    1.8060214233    1.1095190971
 H    0.4325926928    2.1794904199   -0.6642380966
 H   -0.8281247697    0.0016287248   -0.8775657695
 H    1.3811935952   -0.6626580378    2.1664468535
 H   -0.0063251232   -0.8393425976    3.3481523475
 H    0.5064199206   -2.5739223776    0.7919041365
 H   -1.8414574866   -3.3812654282    1.0791334752
 H   -1.2994319671   -3.4440126003    2.7617932213
 H   -3.4466854824   -1.8129972048    1.9942321043
 H   -2.3567649216   -1.3791110096    3.3215952052