17

 O    0.0252699810    1.2594769454   -0.4049633254
 C    0.0460998328   -0.0968978233   -0.0245959949
 C   -0.0163816390   -0.4019001677    1.4956065211
 O   -1.3061589202   -1.0498261641    1.3545149046
 C   -1.3270797532   -0.7482704989   -0.0386525275
 C   -2.6285716601   -0.3366938049   -0.6719938915
 C   -2.3818592235   -0.0297957705   -2.1440909957
 O   -1.6925114716   -1.3035598350   -2.3370546792
 C   -1.9846486887   -1.6843805545   -0.9928030955
 H    0.9328217465    1.5598666662   -0.5119458090
 H    0.8089442385   -0.6600173727   -0.5733686221
 H    0.7376721811   -1.0877332881    1.8963985453
 H   -0.0789294461    0.5007032702    2.1133009312
 H   -3.4974372878   -0.0845609120   -0.0793588112
 H   -3.2965151383   -0.0013141679   -2.7468705432
 H   -1.7426341320    0.8260984043   -2.3761039753
 H   -2.2547224894   -2.7122662364   -0.7773552615