17

 O   -0.8987566983    1.1645115887    0.1057825433
 C    0.2253014154    0.7646995997   -0.0386327356
 C    1.4433980279    1.6845815659   -0.0377882081
 O    2.5821409123    0.8686546058   -0.1827869496
 C    3.7832416677    1.6183275613   -0.2846541405
 C    3.8497007811    2.4110693027   -1.5947700397
 C    2.5315304041    3.1079754000   -1.8863426864
 O    1.5066252906    2.2837430079   -2.4582995579
 C    1.3268565510    2.7435741023   -1.1233759902
 H    0.4742101110   -0.3078439718   -0.1845266972
 H    1.4569064428    2.2113643684    0.9349366299
 H    3.8647926975    2.3037558521    0.5751158917
 H    4.6008186298    0.8962738727   -0.2170156042
 H    4.6576227283    3.1482473796   -1.5325271612
 H    4.0783696242    1.7433868009   -2.4320115129
 H    2.5867678918    4.1031232400   -2.3260732096
 H    0.5175827828    3.4568471237   -0.9747629618