18

 O   -0.0686654711   -0.0124122221   -0.0532897871
 C   -0.0291934506    1.1879436796   -0.0206112822
 N   -1.0168476506    2.1541501909   -0.0541860476
 C   -0.1165813991    3.3008781999    0.0975103096
 C    0.1000389501    3.9276975305    1.4918523519
 C    1.6481451809    4.1491861204    1.4412476842
 C    1.6682189269    2.5837154055    1.4752955553
 C    0.4203609232    2.7046256910    2.3947805934
 C    1.0705919486    2.2771081836    0.0860848173
 H   -2.0162136187    2.0665032802    0.0637270300
 H   -0.1886085344    4.0330594820   -0.7099487243
 H   -0.5852768505    4.7157887149    1.8054218893
 H    2.0684883498    4.6486617394    0.5624243906
 H    2.0413806316    4.6017660258    2.3543004089
 H    2.5501849269    2.0198278984    1.7753354012
 H    0.6913692915    3.0111642473    3.4067441459
 H   -0.2891829577    1.8759130265    2.4355336507
 H    1.7871861532    2.3125966062   -0.7346061670