20

 C   -0.1812803688    1.5226101297    0.0633726506
 C   -0.0901698431    0.0225988266    0.0001766055
 N   -0.0574387556   -0.7342065769    1.0285396052
 O   -0.0934633398    0.0077284423    2.2199956282
 C   -0.0427093818   -0.6929359903   -1.3361090978
 O   -1.1815963932   -0.3662040651   -2.1339038300
 C    1.2724123474   -0.4376728325   -2.0842202608
 C    1.3753992886   -1.2332668206   -3.3807085135
 O    2.6026510411   -0.8817543811   -4.0027301018
 H   -0.1950308735    1.9764393347   -0.9299800085
 H   -1.0862572250    1.8247098668    0.5993296917
 H    0.6648545881    1.9337491374    0.6228001129
 H   -0.0762632318   -0.6841101674    2.8896568148
 H   -0.1385700452   -1.7622528020   -1.1255607501
 H   -1.0750584100    0.5364464314   -2.4538606789
 H    1.3750816693    0.6303387771   -2.3200532172
 H    2.1145789618   -0.6976065727   -1.4335502005
 H    1.3347325387   -2.3111044142   -3.1537339930
 H    0.5141234224   -1.0035140950   -4.0236652338
 H    2.6644131707   -1.3610059484   -4.8340347131