20

 C    0.0449995927    1.5496430562    0.2187654330
 C   -0.0156475367    0.0639063971    0.0216268253
 C   -0.9088803582   -0.8284353084    0.7942962774
 N    0.5448463479   -0.9312376634    1.0310920905
 C    1.0608914462   -1.7403104667   -0.1271148982
 C    0.5610276972   -0.7116285656   -1.1662627616
 C   -0.2566299543   -1.0504578088   -2.4277980884
 O    0.7134912038   -0.4204589781   -3.2877737652
 C    1.5444712700   -0.0678276487   -2.1645346371
 H    1.0526182665    1.9399646234    0.0419194177
 H   -0.6408570579    2.0643755121   -0.4645088169
 H   -0.2390737846    1.8090012418    1.2424803830
 H   -1.4471645014   -0.3931322665    1.6309092813
 H   -1.4237012766   -1.6569928069    0.3100146963
 H    2.1507776964   -1.8100922988   -0.0806980383
 H    0.6391756080   -2.7507866414   -0.1832078889
 H   -0.3662824559   -2.1211238625   -2.6465060413
 H   -1.2425153555   -0.5706517573   -2.4913082128
 H    1.6780319736    1.0181429971   -2.0793247915
 H    2.5331645589   -0.5434699947   -2.2157860741