18

 C   -0.0312129343    1.4790246393    0.0287484223
 C   -0.0491059403   -0.0270799103    0.0503097766
 C   -0.4744113254   -0.7732679070   -1.2364802721
 C   -0.1913371644   -2.2718009153   -1.1779422313
 C   -0.7064238690   -2.2434471482    0.3035115299
 N    0.3837476764   -1.9713442162    1.2313986278
 C    0.9386849081   -0.7320935242    0.9488979469
 O    1.9920509861   -0.3031544245    1.3655598900
 C   -1.3145837685   -0.8380690862    0.0195669066
 H    0.9638601693    1.8378980080   -0.2494595917
 H   -0.7575692253    1.8772384895   -0.6860398020
 H   -0.2645283800    1.8891978062    1.0164151696
 H   -0.6418567595   -0.1866797333   -2.1318648492
 H   -0.8799890700   -2.8184640540   -1.8284220045
 H    0.8309909784   -2.6318436048   -1.3367288700
 H   -1.3510796613   -3.0526490967    0.6409608520
 H    1.0152252414   -2.7089374286    1.5117308145
 H   -2.3067217515   -0.4729821838    0.2503113846