14

 C   -0.0072279846    1.4483364498    0.0038011058
 N   -0.0049813787   -0.0111074096   -0.0183139578
 C   -0.1443769675   -0.7061500003   -1.1743568985
 N   -0.1536903847   -1.9995863915   -1.2818436825
 C   -0.0075462853   -2.6903622514   -0.1069802832
 C    0.1400202923   -2.1049455018    1.1105595641
 C    0.1509141317   -0.6667637299    1.2380048193
 O    0.2729017754   -0.0046237480    2.2530986182
 H    0.9313485043    1.8143654314    0.4253040432
 H   -0.1321696190    1.8215760521   -1.0135209013
 H   -0.8201133644    1.8084554460    0.6379266362
 H   -0.2564289229   -0.1001427405   -2.0707569580
 H   -0.0159330427   -3.7726378974   -0.2037878932
 H    0.2534147362   -2.6813930188    2.0197642277