17

 O    0.1108960291    1.4726378434    0.3155903386
 C    0.0900778706    0.0986418207    0.0928668688
 C   -1.2518462048   -0.7209557124    0.0726389347
 C   -0.7079572009   -1.5731691439   -1.1237311777
 C   -1.6145088168   -1.9411894110   -2.2613471827
 C   -1.3368005751   -3.0817217027   -3.1422334769
 O   -2.3448023921   -3.1641423246   -2.1334338978
 C    0.2679707612   -0.4002245090   -1.3417380598
 O    0.6807094145    0.1582088737   -2.3207238251
 H    0.1212842718    1.9046128657   -0.5477517376
 H    0.7975218221   -0.3904872752    0.7749436625
 H   -1.5096898807   -1.2573837160    0.9849139543
 H   -2.0861708240   -0.0864205567   -0.2373986373
 H   -0.1833691241   -2.4622966279   -0.7593915209
 H   -2.1977092969   -1.1152881418   -2.6712249416
 H   -1.6980097837   -3.0687516592   -4.1690759230
 H   -0.4503832101   -3.6906887131   -2.9693306884