15

 C   -0.0453812621    1.3536892139    0.0025511815
 O   -0.0224188210   -0.0683251208   -0.0290143744
 C   -1.2297364667   -0.6712840940   -0.0168923070
 N   -2.3859983455   -0.0259987737    0.0207339331
 N   -3.3045578330   -1.0182329250    0.0188655743
 C   -2.7479919885   -2.2613020871   -0.0276081615
 C   -1.3806648819   -2.0813027532   -0.0482993543
 N   -0.3428866119   -3.0267617714   -0.1558502209
 H    0.9974599852    1.6744152809   -0.0119345411
 H   -0.5761752731    1.7563201320   -0.8668737663
 H   -0.5402765495    1.7186694273    0.9091723559
 H   -4.2778672657   -0.7790730920    0.0621469636
 H   -3.3489007803   -3.1564161708   -0.0419756798
 H   -0.4461101767   -3.7963243377    0.4944834315
 H    0.5525340706   -2.5831235383    0.0097096554