19

 O    0.0647951631    0.0815908383   -0.5232363053
 C    0.0378197964    1.2270248971   -0.1617351178
 C   -1.0626996701    2.1385917791    0.4211348222
 C   -0.0110476263    3.2928297388    0.4900610547
 C    1.0500030142    2.3392553240   -0.0947560857
 C    2.5076827287    2.2989745370    0.3146789816
 C    3.1869700178    1.0365731177   -0.2341516893
 C    2.7913594954    1.4841185035   -1.6820920595
 C    2.1245654938    2.7322435282   -1.0871869242
 H   -1.9043408981    2.3023158654   -0.2575093714
 H   -1.4554741363    1.7955503930    1.3822708793
 H   -0.2488690087    4.1535597724   -0.1394515056
 H    0.2000923144    3.6465669965    1.5019832416
 H    2.8335492613    2.8966322513    1.1588288491
 H    4.2679385630    1.0439659800   -0.0787204922
 H    2.7802419708    0.0834946972    0.1096309090
 H    3.6628863106    1.7284649994   -2.2931927554
 H    2.1384472907    0.8095428111   -2.2394226134
 H    2.1008457295    3.7252721300   -1.5222787776