15

 C    0.0039093711    1.5355234184   -0.0224547882
 C    0.0183710500    0.0321191001   -0.0409139529
 C   -1.1274854838   -0.7118415091    0.0040759128
 N   -2.3987473890   -0.2420830313    0.0427708634
 C   -1.0393007897   -2.1822071195   -0.0134358018
 O   -2.0122731516   -2.8998497593    0.0437259840
 O    0.1998123201   -2.7317710552   -0.0908329145
 N    1.3885686547   -1.9873533601   -0.1469340165
 C    1.2382075755   -0.7031159275   -0.1180137198
 H    1.0149389483    1.9432564429   -0.0926438758
 H   -0.5780354662    1.9401974831   -0.8599504384
 H   -0.4435476974    1.9251089046    0.9014803006
 H   -2.5877577220    0.7150573094    0.2821700738
 H   -3.1150205195   -0.9341402362    0.2058010278
 H    2.1842688196   -0.1684106802   -0.1622242345