11

 O   -0.0496545838    1.3205573804    0.0096724643
 C    1.2527828116    1.7806816409   -0.0002265934
 C    2.1379122331    0.7646876818   -0.0143884784
 N    1.3646695192   -0.4000642743   -0.0133977521
 C    1.2992757381   -1.7732274865   -0.0202399290
 N    0.0400378305   -2.1474449603   -0.0102173903
 N   -0.7813007008   -1.0257560535    0.0037560881
 C    0.0501098222   -0.0259352928    0.0012841001
 H    1.3782523891    2.8493311317    0.0045025083
 H    3.2131819323    0.7738351640   -0.0246839701
 H    2.1563304184   -2.4251306613   -0.0320388175