12

 N   -0.0846822480    1.2581609638    0.0317260736
 C    0.0247581629   -0.0812921076   -0.1033347111
 O    1.0463472771   -0.6682907951   -0.4094969985
 C   -1.2843541412   -0.9013709612    0.0786386729
 O   -0.9579842615   -2.2628039364    0.0996818364
 C   -2.0216917821   -0.4847822572    1.2740950944
 C   -2.6330037966   -0.1094153459    2.2387290869
 H    0.7553647706    1.8119206306   -0.0212389022
 H   -0.8930386362    1.6507202498    0.4862709587
 H   -1.9088944646   -0.6705208131   -0.8030785189
 H   -0.0102483423   -2.2818863624   -0.1262290982
 H   -3.1765878281    0.1987549146    3.0979556461