18

 C   -0.0038815912    1.4907514182    0.0145167031
 C    1.4975504397    1.8257852556   -0.0141686320
 O    2.0222317570    1.4474294152   -1.2946865353
 C    1.9752970544    0.0135769076   -1.3004932780
 C    0.5010581543   -0.4246081511   -1.3450248896
 N   -0.0139121583    0.0017635047   -0.0142270882
 C    1.0816318527   -0.3656626956    0.9102973008
 C    2.0590314097    0.7882131782    0.9769701682
 C    2.3752306830   -0.4111831321    0.1256214459
 H   -0.4706991924    1.8370311115    0.9433132035
 H   -0.5536621169    1.9006059177   -0.8363206270
 H    1.7660192618    2.8662294652    0.1759028164
 H    2.6139332663   -0.3501108501   -2.1070920884
 H   -0.0651986257    0.0477059729   -2.1515208486
 H    0.4124695195   -1.5130127634   -1.4345760951
 H    0.8574333366   -1.0176716187    1.7455874884
 H    2.6195301390    1.0596351679    1.8619704579
 H    3.1876904805   -1.0954891737    0.3322332181