13

 O   -0.8787920439    1.3535279767   -0.1321726414
 C    0.2216434635    0.8777651080    0.0402295614
 C    1.4478624899    1.6827844007    0.0604374567
 C    1.4734500419    3.1163427266    0.6982631021
 O    2.8127868400    3.3989240628    1.0668059385
 C    3.1955639605    2.8898630714   -0.2474671322
 C    1.7121297051    3.0305321708   -0.7378565126
 C    2.9036588777    1.3666963294   -0.1100654553
 O    3.5378055418    0.3703850560   -0.2902853454
 H    0.3714272092   -0.2092737551    0.2019571053
 H    0.6417928629    3.4613772765    1.2977009952
 H    4.1039590673    3.3135880989   -0.6643733099
 H    1.2104132041    3.3374839274   -1.6425938522