20

 C    0.4442874748    1.4275430408    0.3068098814
 C   -0.2696781324    0.1603937423   -0.1799947453
 C    0.4523148427   -0.4900468196   -1.3505335291
 O    1.7249386367   -1.0941958802   -1.0798452155
 C    0.6655678431   -1.9586067249   -1.5242686419
 C    0.1497288401   -2.9464980836   -0.4988954791
 C    0.8559580556   -2.5405344687   -2.9091804927
 C    0.4287208324    0.3374489480   -2.5530010537
 N    0.3721585502    1.0162572978   -3.4872920526
 H    1.4647768293    1.1944690435    0.6237249589
 H    0.4968005285    2.1826598095   -0.4831501903
 H   -0.0880977584    1.8636079912    1.1563747569
 H   -0.3444363860   -0.5597761512    0.6367020397
 H   -1.2924243403    0.3972663526   -0.4960983873
 H    0.1717790664   -2.5421241527    0.5127463040
 H   -0.8738264202   -3.2522603561   -0.7383073758
 H    0.7769508809   -3.8439317816   -0.5135335914
 H    1.5861903836   -3.3551339066   -2.8657814716
 H   -0.0861951770   -2.9531577711   -3.2842788971
 H    1.2143642898   -1.7920313993   -3.6169723474