18

 C    0.2026569341    1.5065758299    0.0743339522
 C   -0.1113431062    0.0132017320   -0.0915903175
 C    0.6267053882   -0.5921930476   -1.2439100078
 O    0.3356854603   -0.1122135339   -2.5534420719
 C    0.5089723422   -1.4517241422   -3.1008449084
 C    0.9166082872   -1.9876713976   -1.7353562192
 C    2.0543130874   -1.1235600091   -1.1842635292
 C    3.1093350076   -0.6191982100   -2.0182432746
 N    3.9558554475   -0.2174014217   -2.6967569063
 H    1.2641619149    1.6649680999    0.2880590331
 H   -0.0414631960    2.0543867660   -0.8397577886
 H   -0.3784260240    1.9342029760    0.8958540564
 H    0.1471627599   -0.5382250631    0.8197652710
 H   -1.1859974764   -0.1278286731   -0.2574469402
 H   -0.4497087210   -1.8460972154   -3.4510379376
 H    1.2516317853   -1.4787902780   -3.9039692999
 H    0.6948319716   -2.9618427872   -1.3211449328
 H    2.3699073773   -1.4194644849   -0.1881519587