20

 C   -0.1920474943    1.5883100627    0.1000644077
 C    0.1762341171    0.1055935047   -0.0081718969
 C    0.8134801088   -0.4694304608    1.2653721673
 N    2.0448879383    0.1734124050    1.7040731631
 C   -0.2081594576   -0.7135718570    2.4126856263
 N   -0.3502429938   -2.1198658918    1.9663900106
 C    0.9312826750   -2.0409951398    1.2349265668
 C    0.9705653795   -2.7356310943   -0.0515141290
 N    1.0275702895   -3.2700258623   -1.0751178184
 H    0.6902109422    2.2131000361    0.2726838351
 H   -0.6630499488    1.9355620918   -0.8236719408
 H   -0.8982282918    1.7718092313    0.9174157750
 H   -0.7163168486   -0.4825497470   -0.2491410357
 H    0.8738675501   -0.0422025062   -0.8429369369
 H    2.6610294765    0.3278869892    0.9085035825
 H    1.8377769432    1.0946977391    2.0803082347
 H    0.2675018535   -0.5900977837    3.3937600042
 H   -1.1416287965   -0.1433037521    2.3838958058
 H   -0.3784744472   -2.8187632476    2.7002534935
 H    1.8131552249   -2.3345250974    1.8183181053