22

 C   -0.3339362249    1.5972478660   -0.0215622954
 C   -0.1276245217    0.0813074328   -0.0088885756
 C   -1.4324564184   -0.7292182752    0.0588688247
 C   -1.1792379808   -2.2358286638   -0.0659497053
 N   -2.1700202685   -0.4350215667    1.2887851083
 C   -3.4364281284    0.0407970895    1.3206065902
 O   -4.0974428317    0.3118825181    0.3270085806
 C   -4.0524718235    0.2451406025    2.7114196016
 O   -5.3490892394    0.7454562534    2.5848678769
 H    0.6240643197    2.1221561943   -0.0810289947
 H   -0.9405055831    1.9054409906   -0.8794304454
 H   -0.8463304332    1.9366563410    0.8835626748
 H    0.4122998570   -0.2271846798   -0.9120609061
 H    0.5140251976   -0.2043940722    0.8372166515
 H   -2.0975416780   -0.4070512703   -0.7473402928
 H   -0.6696839582   -2.4645505451   -1.0069045400
 H   -0.5452364780   -2.5985836965    0.7521479471
 H   -2.1202066014   -2.7919230792   -0.0402975495
 H   -1.7226566166   -0.6517943053    2.1674007891
 H   -4.0470145337   -0.7183224127    3.2473319624
 H   -3.4137090355    0.9347592551    3.2870996401
 H   -5.4836486292    0.8144818936    1.6233591674