15

 N    0.7170599453    0.0069008344   -0.7600740906
 C   -0.2455940235    0.3423368183    0.1234261044
 O   -0.2842324242    1.3634564913    0.7819461593
 C   -1.3642409437   -0.7005941227    0.2934230645
 O   -1.1425251415   -1.8103644132   -0.5466000719
 C   -2.1547855937   -2.7024638835   -0.7103671505
 N   -1.9679918993   -3.7014867088   -1.4514851971
 C   -1.4637000499   -1.0887915625    1.7741138053
 O   -1.6302325538   -2.2201817582    2.1401079994
 H    1.4842935934    0.6419404303   -0.9048501706
 H    0.6754154971   -0.8692045450   -1.2536208058
 H   -2.2985419020   -0.1758467580    0.0381859496
 H   -3.0678763002   -2.4334288999   -0.1697594982
 H   -2.8095322874   -4.2722264409   -1.4911146222
 H   -1.3820535266   -0.2265027317    2.4629293644