17

 C    0.0107917219    1.5171853578    0.0722781867
 C    1.5357109901    1.4430899579   -0.0547248711
 O    2.1152200912    1.1024633078    1.2162789540
 C    1.8539441434   -0.3023136398    1.3921264310
 C    2.2457436009   -0.8881626261    0.0258939856
 C    1.3110333824    0.0514189436   -0.7144879350
 N   -0.0497551740    0.0115886430    0.0068445799
 C    0.3295316750   -0.5109170428    1.3558577485
 H   -0.3945750470    1.9638209489    0.9844629042
 H   -0.4829685899    1.9490292762   -0.8048100270
 H    2.1214421830    2.2461682330   -0.5103907015
 H    2.3861762077   -0.6492092286    2.2779234031
 H    3.2975473595   -0.7222227897   -0.2178829529
 H    1.9920160262   -1.9441808026   -0.0930732468
 H    1.2233135976   -0.0105215380   -1.7974432082
 H    0.0702121462   -1.5727965100    1.4377234600
 H   -0.2018332742    0.0344916592    2.1394160693