18

 C   -0.0312718007    1.4791232510    0.0996749355
 C    0.0048896956   -0.0056929180    0.0050842990
 C   -0.0075427059   -0.8554044215   -1.0312419264
 C   -0.0627726919   -0.6566465571   -2.5051406195
 C    0.0632025990   -2.2153458950   -0.2987976582
 C   -1.0089826303   -2.0367453672    0.8153799822
 C    0.0803645045   -0.9913218774    1.1941027235
 O    1.0822622611   -1.9558178695    0.7250725594
 H    0.8603410462    1.8693953913    0.6073480574
 H   -0.0851104586    1.9462910352   -0.8880648733
 H   -0.8968143547    1.8258169086    0.6793919493
 H   -0.1066144231    0.4041220008   -2.7690005434
 H    0.8160889251   -1.0895827516   -3.0002823506
 H   -0.9413463300   -1.1457883624   -2.9459369780
 H    0.2110142229   -3.1341334770   -0.8668824087
 H   -2.0051145291   -1.6844126434    0.5379318221
 H   -1.0460700437   -2.8812726271    1.5081516084
 H    0.2462983935   -0.6161406595    2.2042710412