21

 C   -0.0501008339    1.1258817630    0.6396705997
 C   -0.3159263575   -0.3811528675    0.7430012031
 C   -1.5226471472   -0.7810160260   -0.0706972214
 O   -1.3585408455   -0.8591112618   -1.4922520525
 C   -1.6999059255   -2.0581947154   -0.7875554113
 C   -0.7091005750   -3.1828138195   -0.8505933764
 O    0.3124930348   -3.3015890936    0.1439335852
 C   -0.7122108586   -4.3012909138    0.1076731360
 C   -1.6382818881   -4.3810889649    1.2943329581
 H    0.8233836735    1.4102757437    1.2335115157
 H    0.1369570254    1.4141476045   -0.3992673451
 H   -0.9041880541    1.7101292283    1.0005027246
 H    0.5539614548   -0.9497445482    0.4112800839
 H   -0.4936623634   -0.6609296679    1.7892878069
 H   -2.4462255415   -0.2723291427    0.2224198275
 H   -2.7268084150   -2.3850452553   -0.9736586856
 H   -0.3596264706   -3.3853493003   -1.8650441210
 H   -0.3606186551   -5.2656480063   -0.2641168073
 H   -1.9861710485   -3.3904740318    1.5955384445
 H   -2.5097250503   -5.0009135758    1.0567626940
 H   -1.1250571888   -4.8389237085    2.1461355915