23

 C    0.0216587021    1.4498387443    0.0291953563
 C    1.3307068423    0.7177091189    0.1177357136
 C    0.0076511520   -0.0520087967    0.0964926001
 C    0.3533539362   -0.6677052136   -1.2725188883
 C   -0.5719139464   -0.3689407935   -2.4666074441
 C    0.2107592652    0.0637157139   -3.7164807629
 C    1.1020563975    1.2744549313   -3.4089761880
 C    2.2194296841    0.9122861684   -2.4129952726
 C    1.7508036743    0.0730236015   -1.2093680929
 H   -0.2796025647    1.9495355987    0.9448892998
 H   -0.2762976573    1.9797749033   -0.8702698631
 H    2.0039350776    0.8796364773    0.9522624422
 H   -0.4842634535   -0.5756317272    0.9077881698
 H    0.5101637500   -1.7464244059   -1.1914823346
 H   -1.1944154940   -1.2426552317   -2.6905451797
 H   -1.2653513219    0.4391738621   -2.2033345958
 H    0.8348343984   -0.7659463475   -4.0781181361
 H   -0.4888049158    0.3016946990   -4.5257177914
 H    1.5542972251    1.6599156212   -4.3299236645
 H    0.4774796563    2.0861514228   -3.0139019204
 H    2.9743522603    0.3354709424   -2.9631076806
 H    2.7269348904    1.8187366139   -2.0613995824
 H    2.5179843917   -0.6747842529   -0.9883762045