18

 O    0.0839996058    1.4009125701    0.0192547382
 C    0.0095529442    0.0225806897    0.0627680989
 C    0.2474384491   -0.7458756530    1.3968723544
 C   -0.6869543067   -1.8334897419    0.7977656131
 C   -1.3658849347   -0.7036491381   -0.0252853466
 C    0.1075578572   -2.7565840137   -0.1310414822
 N    0.9230594620   -1.9453279694   -1.0321025825
 C    0.9299012677   -0.5886525034   -0.9993152464
 O    1.5970391056    0.1206234558   -1.7361642289
 H    0.7176690116    1.5962845371   -0.6937001421
 H    1.2706696850   -1.0202511147    1.6679147339
 H   -0.2292935726   -0.2163532226    2.2248351080
 H   -1.3032195129   -2.4204420766    1.4794412575
 H   -2.1118089452   -0.1671009795    0.5653958993
 H   -1.7706849361   -0.9406446674   -1.0130704363
 H    0.7521408607   -3.4230198011    0.4576545104
 H   -0.5765693760   -3.3881760638   -0.7134950598
 H    1.5162456053   -2.3868628274   -1.7186563390