15

 C    0.2120849266    1.3435179929   -0.7055667606
 C    0.0590376994   -0.0165972928   -0.2117844769
 C   -0.0579028256   -1.1432223220    0.1939172230
 C   -0.1837188632   -2.4988345949    0.7053057701
 N   -1.3513787596   -3.1960219696    0.1599956459
 C   -2.4567589903   -2.7426035042   -0.4550899869
 N   -3.2457645165   -3.7623184227   -0.7189017562
 N   -2.5963653795   -4.8579579460   -0.2454953258
 N   -1.4626486185   -4.5351097473    0.2836784777
 H    1.2523083972    1.6740801405   -0.6171210796
 H   -0.0702841516    1.4127686872   -1.7612362339
 H   -0.4119368486    2.0449868186   -0.1422363743
 H    0.6924710206   -3.1032612900    0.4503438222
 H   -0.2653208272   -2.4948939091    1.7986071620
 H   -2.6335127033   -1.7068373705   -0.6878572067