12

 O    0.0002808842   -0.0842977560    0.0031948268
 C    0.0009195553    1.1215962055    0.0053138775
 O    1.1086951480    1.8861618128   -0.0027355380
 C    2.3468111753    1.1386087304   -0.0146995397
 C    3.4553266743    2.0755506147   -0.0192765805
 C    4.3955105036    2.8215199768   -0.0233526323
 C   -1.1886578111    1.9424416145    0.0175319652
 C   -2.2092328618    2.5757380115    0.0278510184
 H    2.3781956520    0.4849314306    0.8635566480
 H    2.3652510861    0.4917951068   -0.8984146215
 H    5.2249060650    3.4849618045   -0.0268791880
 H   -3.1117293909    3.1371355879    0.0369624342