17

 C   -0.0405763572    1.4096577324   -0.0580901502
 N    0.0252185877   -0.0402378156   -0.0073916527
 C    0.6095834041   -0.6377077751   -0.9543764957
 N    0.7576306122   -2.0191264825   -1.0711486005
 C    1.3318992841   -2.3021156451   -2.3118486186
 N    1.4551707715   -3.6154852602   -2.7576977046
 C    1.6453071493   -1.1378701388   -2.8974343683
 N    2.2898845285   -0.8756808234   -4.0972689682
 O    1.2094891306   -0.0787014834   -2.0550118008
 H    0.8921848741    1.8690492152    0.2998382906
 H   -0.2282091414    1.8018208156   -1.0675660017
 H   -0.8447675271    1.7534105108    0.5990445329
 H    0.1031273708   -2.6301218470   -0.6104866870
 H    1.9625211197   -4.2010326126   -2.1010526753
 H    1.9277240234   -3.6311925754   -3.6544637180
 H    1.7044850258   -0.3816575703   -4.7650004442
 H    3.1471700540   -0.3429714244   -3.9793183178