18

 O   -0.1129929651    0.1998460992   -0.7898830021
 C    0.0776047325    0.9796838264    0.1207630981
 C    1.2230062227    1.8913837388    0.1731581184
 N    2.0644687847    2.0852155695   -1.0373949770
 C    2.6724030581    1.4223329037    0.1027733770
 C    3.0966150987    2.4927461948    1.1186286037
 C    1.6211426845    2.9580999995    1.1746523590
 C    1.0846831199    4.3500970615    1.2911645469
 C    0.8645126826    3.3524661515    2.4091161499
 H   -0.6082506541    1.0260607334    0.9922940299
 H    1.7601501589    1.3585408690   -1.6901884998
 H    3.0117128103    0.3949790579    0.0450801115
 H    3.4442312869    2.0673438508    2.0632818700
 H    3.8264475753    3.2143183932    0.7424010848
 H    1.7953843218    5.1529693204    1.4566347002
 H    0.2357762642    4.6259654569    0.6746784216
 H   -0.1383195751    2.9651072844    2.5560644656
 H    1.4285861232    3.4747427290    3.3282855925