15

 N    0.1947370939    1.4134033439    0.0613662276
 C    0.1439523853    0.0422623493   -0.1187629613
 N   -0.5890575657   -0.4898258865   -1.0734767256
 O   -0.3250088808   -1.8696956826   -1.0095356941
 C    0.5390039632   -2.1036834105   -0.0112751371
 C    0.9234351889   -3.5390081629    0.1932939735
 C    1.8459067848   -3.7372315947    1.3038070921
 C    2.6061886990   -3.9063121544    2.2176786570
 C    0.8848163298   -0.9451838499    0.6017729145
 H    0.2757576099    1.7028199576    1.0252670755
 H   -0.5528568796    1.9000987858   -0.4152273352
 H    0.0120565677   -4.1310306432    0.3518489837
 H    1.3664267902   -3.9233094464   -0.7354099065
 H    3.2791548031   -4.0618578086    3.0243501785
 H    1.5676024003   -0.8108925768    1.4230529875