21

 C   -0.2857383464    1.5272811656   -0.0494332929
 C    0.0078335097    0.0361450901    0.0227298349
 O    0.6591246007   -0.3952348379   -1.1934431076
 C    1.8100401886   -1.1656525902   -0.8462394710
 C    1.4629878830   -1.7552511176    0.5242182410
 C    0.9334235283   -0.4582792471    1.1589125694
 C    2.1369329019    0.4687138569    1.3963742000
 O    2.7874035597    0.8289442143    0.1860431190
 C    3.0333974528   -0.2457366518   -0.7083991354
 H    0.6365120917    2.0974770249   -0.1737858562
 H   -0.9367677285    1.7348189319   -0.9035039862
 H   -0.8022811486    1.8622674143    0.8569385091
 H   -0.9460565336   -0.5088364262    0.0989442515
 H    1.9817758795   -1.9070695197   -1.6328408358
 H    0.6864596519   -2.5210807644    0.4391387557
 H    2.3224574026   -2.1803798094    1.0497931713
 H    0.3895736796   -0.6087762559    2.0957608332
 H    1.8324745863    1.4138238280    1.8558069629
 H    2.8410177882   -0.0262910460    2.0866803015
 H    3.9035077336   -0.8427810895   -0.3844843714
 H    3.2730338290    0.2192716996   -1.6687952531