16

 C   -0.0406115346    1.3039706285    0.1865096024
 N   -0.0317001153   -0.1284561657   -0.0656481699
 C   -0.1529401841   -1.0334840247    1.0593699004
 C   -1.5638005949   -1.0771889012    1.6246370780
 O   -1.8257187882   -1.1865631641    2.7930956991
 C    0.1805701290   -0.6731245071   -1.3191092721
 N    0.2737759457    0.2464228978   -2.3542509351
 O    0.3211906208   -1.8701339118   -1.5060785115
 H    0.7169182600    1.8062945966   -0.4216548388
 H   -1.0171355031    1.7699009304   -0.0092075959
 H    0.2034833272    1.4828291491    1.2365386549
 H    0.0895943687   -2.0344774747    0.6835839084
 H    0.5469727995   -0.7805993998    1.8639115443
 H   -2.3592027058   -1.0079576391    0.8457237989
 H   -0.2689539065    1.0941695095   -2.3057004679
 H    0.2557406917   -0.2053476236   -3.2558527053