13

 O   -0.0818060945    1.2932132196    0.0383866754
 N    0.0536166956   -0.0892193381   -0.0709000616
 C   -1.0605319530   -0.6744706832    0.0283594868
 C   -1.4415766526   -2.1131061303   -0.0956720122
 O   -2.2584945798   -2.4122743454    1.0582557758
 C   -2.8762382697   -1.7504253707   -0.0274440937
 C   -2.5442038039   -0.2340675255    0.1018588962
 C   -3.0298110103    0.4515378508    1.2880799295
 N   -3.4337963116    0.9912928387    2.2262189358
 H    0.8288204949    1.6028188890   -0.0298663767
 H   -0.9275403751   -2.9319976300   -0.5793433643
 H   -3.7457703896   -2.1972860768   -0.4918629296
 H   -2.8064198005    0.3349032519   -0.7965710013