18

 O   -0.0795377779    1.3664267130   -0.1102569892
 C   -0.0235140101   -0.0217626910    0.0269602708
 C   -0.5030943197   -0.6715305209    1.3070244895
 C   -1.3428493379   -0.7218764835    0.0608788886
 C   -2.6800981979   -0.0424702501   -0.2458710082
 C   -2.8803497959   -1.0575083305   -1.4080255986
 C   -1.7340560326   -1.9396091470   -0.8056049190
 C   -0.7362789437   -2.4910521752   -1.7070672912
 N    0.0748076486   -2.9082049240   -2.4184875958
 H    0.6508938913    1.7470085089    0.3882890896
 H    0.7882002073   -0.5121016927   -0.5109729756
 H   -0.0059923979   -1.5765871296    1.6427844186
 H   -0.8460331830   -0.0123496490    2.0987300072
 H   -3.4153499546   -0.1674378515    0.5545954650
 H   -2.6210198155    1.0121598606   -0.5168993626
 H   -3.8528863632   -1.5432319700   -1.4963258520
 H   -2.5958935175   -0.6425054429   -2.3760274824
 H   -2.1410374498   -2.7484097445   -0.1898415745