18

 O   -0.0785137667    0.0171787087   -0.4585292735
 C   -0.0901203163    1.1875469660   -0.1389739361
 C   -1.3083712629    2.0585927649    0.1647778018
 C   -0.7598219404    3.4940752551    0.1827754177
 C    0.7382572687    3.3182283445    0.5138324707
 N    1.0237188480    1.9747583122    0.0357647796
 C    2.3597082193    1.4121070779    0.0007899097
 C    3.0217752162    1.4120530998    1.3067734982
 C    3.5615564484    1.4344394673    2.3800587711
 H   -2.0979733390    1.8844693519   -0.5679333849
 H   -1.6975288970    1.7515505220    1.1426483406
 H   -0.8647808462    3.9468477551   -0.8074113213
 H   -1.2629225566    4.1447137099    0.9003361079
 H    1.3698259265    4.0551540485    0.0049341024
 H    0.9385453289    3.4009445334    1.5911235297
 H    2.2427361346    0.3880480821   -0.3704337597
 H    2.9793797815    1.9607869366   -0.7218011040
 H    4.0427045029    1.4362315241    3.3268443001