20

 C   -0.2162310375    1.4225623633    0.1247230884
 C    0.0338484675   -0.0821006946   -0.0307819544
 C    0.7770546118   -0.4052166843   -1.3530788223
 C    0.0338419222   -0.0358889583   -2.5514557848
 C   -0.6018335123    0.2666250410   -3.5263967804
 C    0.8071196823   -0.6417104239    1.1488641226
 C    0.0923585276   -1.0258234147    2.4183734198
 C    0.6857935023   -2.0950988956    1.5322510145
 H    0.7318086731    1.9707146692    0.1845600590
 H   -0.7792416236    1.8179426925   -0.7250516525
 H   -0.7781311171    1.6294018225    1.0403112889
 H   -0.9376727998   -0.5927872706   -0.0716634877
 H    1.7483289037    0.1088858313   -1.3518851791
 H    1.0010811412   -1.4786525402   -1.3807743322
 H   -1.1519886637    0.5317177237   -4.3947380299
 H    1.7934051859   -0.1992461910    1.2784054038
 H    0.5715906267   -0.8172944451    3.3684392875
 H   -0.9886527891   -0.9301974053    2.4369345325
 H   -0.0005315895   -2.7138734132    0.9622954458
 H    1.5708869281   -2.6185450765    1.8765624504