19

 C   -0.0033180050    1.2140713888   -0.5165463147
 C   -0.1180852376    0.0810418497    0.5046992252
 N   -1.3968966088   -0.6137207596    0.4384555478
 C   -1.5351193415   -1.8804715281   -0.0190908781
 O   -0.5987056340   -2.5786388206   -0.3860752264
 C   -2.9669450342   -2.4458160145   -0.0655726583
 C   -3.8246032150   -1.7263411887   -1.1173309034
 O   -2.8894073298   -3.8172837679   -0.3482178594
 H    0.9676819595    1.7106267065   -0.4249044205
 H   -0.0983779260    0.8281012947   -1.5354168779
 H   -0.7810881466    1.9703420078   -0.3638917726
 H    0.6468519314   -0.6774642234    0.3278903385
 H    0.0244994396    0.4685370168    1.5205947335
 H   -2.2273790593   -0.1148684114    0.7157016087
 H   -3.4244024471   -2.3024036308    0.9270758731
 H   -3.3530050500   -1.7979125123   -2.1019664486
 H   -4.8043141719   -2.2077688297   -1.1701975194
 H   -3.9735616632   -0.6681755584   -0.8763399966
 H   -1.9483402005   -3.9714618689   -0.5427304407