14

 C    0.0337964362    1.4592690658   -0.0462903684
 C   -0.0534012078   -0.0232807309    0.0072270981
 N   -1.0903426804   -0.7774423277   -0.1780108300
 C   -0.6238577277   -2.0834553998   -0.0153859055
 C   -1.5250303484   -3.2634251056   -0.1511343095
 C    0.6991310328   -2.0283896340    0.2649668800
 O    1.0830716892   -0.7123506495    0.2832820415
 H    0.7426938569    1.7852565821   -0.8144661007
 H   -0.9520847885    1.8634746244   -0.2765260453
 H    0.3742538428    1.8690029446    0.9103135398
 H   -1.9769405259   -3.2971656471   -1.1481386744
 H   -0.9794105539   -4.1966298971    0.0109312341
 H   -2.3453316569   -3.2136786205    0.5727476645
 H    1.4661983418   -2.7567976847    0.4639317059