16

 C    0.0074322160    1.5689186125    0.0359726276
 C    0.0132735059    0.0298415360   -0.0097637252
 C    0.7503515153   -0.5307176979   -1.2216598519
 O    2.1658386754   -0.2815480187   -1.1464567281
 C    2.8128916406   -0.6211086996   -0.0137996191
 O    4.0075069851   -0.7035525154    0.0376900076
 N    1.9958287104   -0.8530072012    1.0969926098
 C    0.6518712526   -0.5274135939    1.2529337204
 O    0.0883605345   -0.6623866162    2.3121709423
 H    1.0241028094    1.9711117773    0.0082050654
 H   -0.5382695685    1.9691029555   -0.8235372221
 H   -0.4795104845    1.9191181070    0.9489013194
 H   -1.0184911913   -0.3339563927   -0.0213142134
 H    0.5889276388   -1.6116452666   -1.3142805672
 H    0.4277460045   -0.0509548048   -2.1475192639
 H    2.4905777859   -1.1384735215    1.9320703384