19

 C    0.0236520168    1.4162586017    0.0132018371
 N    0.1917117547   -0.0288962327   -0.0573087154
 C    0.5120176651   -0.6612542894    0.9737055769
 O    0.7539698076   -0.2243764601    2.2727028296
 C    1.0787380439   -1.5779833873    2.7248796139
 C    0.7883800710   -2.0934984697    1.3174184149
 C    0.1031975662   -3.3048777772    0.7975439730
 N    1.5305737898   -3.0969220075    0.5885040182
 C    1.9727742045   -2.7705052943   -0.7677399904
 H    0.6715487619    1.8884799418   -0.7332035689
 H   -1.0082941458    1.6705487778   -0.2534100046
 H    0.2475681770    1.8443148007    0.9969070923
 H    2.1214203065   -1.6509220967    3.0435562949
 H    0.4030470598   -1.8981498818    3.5220049305
 H   -0.1674960943   -4.1108181711    1.4751747751
 H   -0.5722171665   -3.1505835031   -0.0431723257
 H    1.2767338325   -2.1155514003   -1.3074453607
 H    2.9446380988   -2.2711090467   -0.7126693386
 H    2.0993567806   -3.7049958142   -1.3220362019