14

 N    0.1029004592    1.3017540483    0.4706222626
 C    0.0023823162   -0.0347265284    0.1186461560
 C   -1.1931142040   -0.7092753652    0.1950252662
 N   -1.4894816942   -1.9646204407   -0.2462763126
 C   -0.6650187550   -2.9388831980   -0.3963555070
 C    0.7518090102   -2.9321655597    0.0741371626
 O    1.2053466938   -3.8060085824    0.7770762670
 N    1.5223698787   -1.8961263586   -0.4413675573
 C    1.2003449039   -0.6550248161   -0.4198501609
 H    0.8805721562    1.8129746168    0.0819810248
 H   -0.7526664821    1.8355658113    0.4840119580
 H   -2.0643200932   -0.1480278872    0.5302861882
 H   -1.0402267792   -3.8741935195   -0.8120042289
 H    1.9203461096    0.0349227694   -0.8733122788