13

 O    0.1342496911    0.2183953981    0.5817377168
 C    0.1158008418    1.2670035271    0.0302084740
 O   -0.9704668657    2.1084250631    0.0050657380
 C   -0.6906424559    3.1928335257   -0.8495535387
 C    0.4859067579    4.1561027296   -0.5816028499
 N    1.3440155976    3.9505323483    0.5621201058
 C    1.7386386361    2.7465352686    0.5017123289
 N    1.2427548674    1.9492556564   -0.6241643300
 C    0.6236332437    2.9617297460   -1.5026953912
 H   -1.5694870511    3.5624461980   -1.3598628045
 H    0.3737545571    5.1708967065   -0.9406403061
 H    2.3416569275    2.2459227744    1.2498173762
 H    0.8488856824    2.9373024583   -2.5610546394