18

 C   -0.5545458333    1.0627855183   -0.6954693153
 N   -0.1394540069   -0.3513264106   -0.5693459448
 H   -0.4340710171   -0.7581094914    0.3203845278
 H   -0.5459040372   -0.9785693569   -1.2983340707
 C    1.4449695128   -0.7056200405   -0.6399706235
 C    1.5031174966   -2.1267542370   -0.9487459370
 C    1.0385739629   -2.5664257834   -2.3022765382
 O   -0.4261289523   -2.6079186688   -2.2941996889
 N    1.2296883587   -2.9058506196    0.1104919006
 O    0.7200372790   -4.0447574609   -0.1500850866
 H   -0.0785494846    1.6498454786    0.0922634966
 H   -0.2315329970    1.4356842531   -1.6687683912
 H   -1.6400794535    1.1519879166   -0.6154033766
 H    1.8212268430   -0.0199728620   -1.4031101954
 H    1.8196970669   -0.4494834590    0.3524288128
 H    1.3219585656   -1.8762673297   -3.1031404578
 H    1.4142286130   -3.5658672972   -2.5374475780
 H   -0.5704900865   -3.3157320895   -1.6370840039