13

 O   -0.1992426629    0.1809081756    0.4007676597
 C   -0.0289849792    1.2983905394    0.0349276742
 O   -0.9782922587    2.1763988233   -0.4482788175
 C    0.0231374400    3.2199968725   -0.6734867476
 C    0.1432922596    4.1748314623    0.5310227517
 C    1.2242064879    3.2365104513    1.1545697473
 C    1.1192398930    2.2937203627   -0.0897063094
 H   -0.0252921733    3.5955396189   -1.6940310262
 H    0.5323831944    5.1592064770    0.2610516817
 H   -0.7845687915    4.3011455420    1.0914081069
 H    2.2053188514    3.7067303612    1.2348636768
 H    0.9834456408    2.7719786981    2.1122623858
 H    2.0266846484    1.9663661057   -0.5919596833