15

 C    0.0116437741    1.4386058242    0.0715058167
 N   -0.0117700335   -0.0066816258    0.0419038547
 C   -0.1053954984   -0.8310448347   -1.0728640012
 N   -0.1064170029   -2.1168995579   -0.8298312101
 C   -0.0060844896   -2.1764114375    0.5527384387
 C    0.0625081408   -3.0090128319    1.6568372463
 N    0.1530656063   -2.1636425616    2.7252627487
 N    0.1506136094   -0.8310398559    2.4254772912
 C    0.0532292741   -0.8787252787    1.1045341577
 H    0.9406264968    1.8045798218    0.5203979086
 H   -0.0575713817    1.8159215723   -0.9508604112
 H   -0.8310659470    1.8306330553    0.6499579397
 H   -0.1710957536   -0.3903249101   -2.0591316822
 H    0.0564293769   -4.0785922479    1.7871314063
 H    0.2199700282   -2.4268055015    3.6932716360