21

 C   -0.0684493422    1.5734472956   -0.1093225045
 C   -0.0087674095    0.0501601437   -0.0366528792
 O   -1.2957356844   -0.5125473895   -0.2177483773
 C    1.1573207178   -0.5556101668   -0.8804313965
 C    1.9946660104   -0.6672857891    0.4219357273
 C    0.6775916539   -0.5376630631    1.2302526732
 C    0.6576152517    0.2353664048    2.5532915923
 C    1.4124177385   -0.4406078543    3.6028788128
 C    2.0424715482   -1.0183399916    4.4481870311
 H    0.9113996113    2.0301762259    0.0605520719
 H   -0.4016089862    1.8874412741   -1.1066691535
 H   -0.7726057433    1.9744199915    0.6261021706
 H   -1.7010658282   -0.1027987503   -0.9898550936
 H    0.8686329291   -1.5361492049   -1.2665999743
 H    1.5580496478    0.0515902560   -1.6968485749
 H    2.5824700834   -1.5739954304    0.5704915405
 H    2.6506531790    0.1967113759    0.5673683934
 H    0.2483660020   -1.5310709434    1.3903142410
 H    1.0683130903    1.2425730962    2.4071174188
 H   -0.3821185359    0.3702538696    2.8796178014
 H    2.5952980961   -1.5201699398    5.2028168695