18

 C   -0.0523561259    0.4510242038   -0.8579879474
 O    0.2957969873    0.8152670123    0.4652186218
 C    0.9139106573   -0.1512525547    1.1820247404
 C    1.2495828021   -1.4586852782    0.8905688792
 C    1.8787221152   -1.9654554601    2.0694449248
 O    2.3901984413   -3.2191006184    2.2559557314
 C    1.9031617519   -0.9750232870    3.0142943082
 N    1.3078371717    0.1536066886    2.4497887271
 C    1.0643303423    1.4035859343    3.1344827856
 H   -0.7533744038   -0.3934783413   -0.8632994303
 H   -0.5295092055    1.3240442493   -1.3055089872
 H    0.8372131642    0.1786225763   -1.4402261639
 H    1.0834242030   -1.9817697150   -0.0373067456
 H    2.2482865747   -3.7247271157    1.4513069996
 H    2.2898202540   -0.9600339608    4.0182947247
 H    1.9570955850    1.7026271091    3.6914686465
 H    0.8336512103    2.1738613722    2.3984359380
 H    0.2245570548    1.3258719653    3.8358404070