19

 C   -0.2954336697    1.5018375756    0.0491996832
 C   -0.1139475011   -0.0021293942    0.0081569848
 C   -1.3328270443   -0.7872403547   -0.4122136242
 O   -1.6427047933   -0.5436308006   -1.7950930458
 C   -2.8293384308    0.0109315767   -2.0995954056
 O   -3.1673484735    0.2436252293   -3.2209764529
 C    1.2415958927   -0.5592858646   -0.3940634088
 C    0.7730551233   -0.6622917017    1.0352532929
 O    1.3265088470    0.1601150177    2.0186715829
 H    0.5918640941    1.9872080247    0.4577494525
 H   -0.4802050539    1.8981889100   -0.9541484676
 H   -1.1440514284    1.7773484054    0.6864809241
 H   -1.1617691389   -1.8640407236   -0.3153948831
 H   -2.1988872033   -0.5216068199    0.2096918683
 H   -3.4474281771    0.2210287274   -1.2040069172
 H    1.2835676050   -1.4577228821   -1.0005885311
 H    2.0191246921    0.1676242032   -0.6031708289
 H    0.4698770387   -1.6477381370    1.3922155515
 H    2.2298076414   -0.1327681317    2.1774026149