17

 C   -0.0853673051    1.5842943718   -0.0326059660
 C   -0.0507452613    0.0453530122   -0.0055939751
 C    0.7679646755   -0.4969163835    1.2069151673
 C    2.1667639359   -0.1034670478    1.1752999582
 C    3.3319114159    0.2227624267    1.1322941651
 C    4.6420848583    0.5877474495    1.0876597719
 C    5.8047009585    0.9118850071    1.0476306772
 C   -1.3978275333   -0.5191040993    0.0227148557
 C   -2.5072391038   -0.9794286276    0.0722726308
 H    0.9315190131    1.9837650413   -0.0676715421
 H   -0.6332954407    1.9402595816   -0.9082756750
 H   -0.5830734594    1.9738514022    0.8607483489
 H    0.4520572751   -0.3043415903   -0.9163154895
 H    0.2999264801   -0.1418618325    2.1338862567
 H    0.6935814828   -1.5904868459    1.2229072402
 H    6.8269937138    1.1960262525    1.0135804703
 H   -3.4875033556   -1.3868924381    0.0997639652