15

 O   -0.2708211815    0.0045523120    0.1226913185
 C   -0.1453275773    1.1939379463    0.0343632472
 N   -1.0261087427    2.2424102191   -0.0501856312
 C   -0.0193865551    3.3076230203   -0.1116501391
 C    1.0579518688    2.1886457846    0.0171638743
 C    2.0480751877    2.1634063360    1.2057359599
 N    3.3831090124    2.1421866183    0.5873549344
 C    3.1795400514    2.0724932134   -0.6579533486
 O    1.9032822895    2.0635471225   -1.1332722919
 H   -2.0339790497    2.2701616844   -0.0236489741
 H    0.0172939287    3.8421633308   -1.0648534816
 H   -0.0567077097    4.0162513163    0.7221130116
 H    1.9422305228    3.0336354328    1.8606986061
 H    1.9137204285    1.2639686657    1.8160642251
 H    3.9401909664    2.0175417175   -1.4277795804