16

 C   -0.1881225832    1.5579466781   -0.0482031327
 C    0.1576127787    0.0666904225   -0.0036462639
 N    0.7758716035   -0.4154950858   -1.2165843442
 C    0.2745960859   -0.6004415745   -2.5823635901
 C    1.6733470831   -1.1755370913   -2.9458299514
 C    2.0293989877   -0.9249505858   -1.4612098612
 O    2.9849346337   -1.0890452118   -0.7477684897
 H    0.7108499509    2.1598557578   -0.2091650541
 H   -0.8962112907    1.7786868291   -0.8535262535
 H   -0.6479145666    1.8693756912    0.8947496098
 H    0.8737905238   -0.1377520492    0.7984144366
 H   -0.7460315135   -0.5223390432    0.2066975626
 H   -0.5571192231   -1.3106591982   -2.6562583736
 H    0.0016266361    0.3293081775   -3.0927621948
 H    1.6891894940   -2.2259896511   -3.2411379616
 H    2.2564768596   -0.5863234354   -3.6556491683