16

 C   -0.3677430948    1.4347571267   -0.0079090635
 C   -0.0078592820   -0.0338262261    0.0350051855
 C    1.3559703329   -0.5731065885   -0.2278592854
 O    2.4229030406    0.3672302740   -0.2327219518
 C    2.6599897651    0.8424978120    1.0288999719
 N    3.5313626354    1.6949069582    1.3464287814
 C    1.6868584917    0.1743750178    2.0010661443
 O    1.7038624207    0.2997312393    3.1958154127
 C    0.8046460454   -0.6958902520    1.1717522294
 H    0.4648189744    2.0818174934    0.2744170373
 H   -0.6769178869    1.7145132667   -1.0200920662
 H   -1.2000495860    1.6453632710    0.6700348592
 H   -0.8017049854   -0.6945749527   -0.3054431731
 H    1.5472778431   -1.4111895332   -0.8864046548
 H    4.0599742538    2.0026879064    0.5270422360
 H    0.4391958319   -1.6164244428    1.6067781971