17

 O   -0.1568178279    0.1102603615    0.5992581719
 C   -0.0536052964    1.2407038275    0.1709466312
 N    1.0980255798    1.8218222517   -0.2575241781
 C    2.3898542510    1.1477031622   -0.2587139542
 C    3.0001277780    1.1134763939   -1.6888737534
 C    3.9556217944    2.2835050098   -1.6863698874
 C    4.1896585744    2.7298218137   -0.4523111772
 C    3.4314437804    1.9360226134    0.5854440627
 H   -0.9153881257    1.9328647983    0.0841127939
 H    1.0570554777    2.7721257958   -0.5933254187
 H    2.1941603677    0.1523487355    0.1383819367
 H    3.5372150796    0.1715418296   -1.8654216823
 H    2.2211163526    1.1758011677   -2.4560535231
 H    4.4133687576    2.6682214388   -2.5908051288
 H    4.8679705712    3.5351601191   -0.1937274069
 H    2.9425283799    2.5515737244    1.3479193326
 H    4.1035537058    1.2515884272    1.1208791012