19

 C    0.0209161613    1.4470355463    0.2993236182
 C    1.4141098461    2.0340887527    0.0250884751
 C    1.9268186328    1.9422813642   -1.4158764182
 C    1.0715768192    1.4914045094   -2.6366182719
 O    2.3331061238    1.2923238376   -3.3835871140
 C    2.5530774923    0.6717345203   -2.0593193366
 C    1.1551444278   -0.0098185054   -2.2015778042
 C    0.4088220684   -0.6325921512   -1.0654431992
 C   -0.0953115471   -0.0260821226    0.0086411915
 H   -0.2382034761    1.6337310101    1.3469325019
 H   -0.7247494710    2.0001196408   -0.2909107915
 H    1.3941009692    3.0935646273    0.3051728605
 H    2.1431107183    1.5596427152    0.6943863023
 H    2.5278050358    2.8175487159   -1.6758355909
 H    0.2641267202    2.0090503378   -3.1574574125
 H    3.5239275352    0.2086091106   -1.8728736259
 H    1.1445064755   -0.6583897462   -3.0807224992
 H    0.2622907639   -1.7061755840   -1.1624094010
 H   -0.6375165456   -0.6277972289    0.7341721657