19

 C    0.0937533042    1.3605369335    0.1303931271
 N   -0.0517992127   -0.0674515905   -0.1001518495
 C    0.6176012985   -0.6299457754   -1.1489220890
 N    1.1718018230   -0.0339299641   -2.1584626139
 C    1.6394059216   -1.0906075072   -2.9541928287
 C    2.3481589943   -0.8197995259   -4.2378397933
 C    1.3445163077   -2.2712623458   -2.3627992622
 C    1.5633602083   -3.7050035345   -2.6706624307
 O    0.6726136667   -1.9804817432   -1.1744447129
 H    1.1109811194    1.6476766059    0.4306971081
 H   -0.1456146049    1.8938585500   -0.7915191321
 H   -0.6095859154    1.6652704796    0.9084499050
 H   -0.1011792305   -0.6546320448    0.7182838818
 H    3.2428187400   -0.2105077331   -4.0680743740
 H    2.6536652532   -1.7461290768   -4.7310562188
 H    1.7060780781   -0.2604680551   -4.9272966138
 H    2.1572526283   -4.2040034446   -1.8950205147
 H    0.6175424724   -4.2531923512   -2.7602883060
 H    2.0990027778   -3.8022989367   -3.6179006025