16

 O   -0.2019142422    1.4460397335   -0.3496173101
 C    0.0157154816    0.1032329200    0.0634910724
 C   -1.3337822648   -0.5709030729    0.0502815339
 C   -1.8957018663   -1.3097121809   -1.1162994711
 O   -0.8678478516   -2.0199214769   -1.8321295228
 C   -0.6533466317   -2.8802820380   -0.6887935961
 C    0.7514669083   -3.0190494215   -0.2905608313
 N    1.8496919102   -3.1544201398    0.0428147102
 C   -1.6116911290   -2.0571628934    0.1750663845
 H    0.6552589655    1.8759922682   -0.4221795834
 H    0.7058067565   -0.4158138023   -0.6122830010
 H    0.4414875017    0.0593783693    1.0776869876
 H   -2.0957999462    0.0041235224    0.5736407660
 H   -2.8083866600   -1.0864633745   -1.6540416984
 H   -1.0552228320   -3.8791875313   -0.8965728548
 H   -2.2719444000   -2.4809797418    0.9183514146