21

 C    0.0099671130    1.5715708011    0.0333334458
 C    0.0467781664    0.0331615914    0.0053402986
 C    0.7373723226   -0.4801212856   -1.2710166738
 C    0.7060910904   -0.5211960616    1.2437062881
 N    1.9768521262   -0.2294996821    1.5216338892
 N    2.2333287865   -0.8792950515    2.6712723000
 C    1.1660687819   -1.5736774097    3.1342556117
 C    0.1397941789   -1.3712542225    2.2337131476
 C   -1.2507593115   -1.9270303211    2.2970000589
 H    1.0263729816    1.9749272710    0.0624954239
 H   -0.4930318610    1.9650040281   -0.8565628612
 H   -0.5209970328    1.9398227070    0.9167218045
 H   -0.9882476115   -0.3305698941   -0.0000333726
 H    1.7820246626   -0.1561110035   -1.2934118711
 H    0.7256897045   -1.5736259889   -1.3164000685
 H    0.2366302270   -0.0955728876   -2.1660671585
 H    3.1480908566   -0.8052845461    3.0813209266
 H    1.2116903495   -2.1472075500    4.0472540997
 H   -2.0074763350   -1.1349699242    2.3356721530
 H   -1.4838311984   -2.5494182426    1.4253399912
 H   -1.3837919576   -2.5489905275    3.1868629869