20

 C    0.1552242903    1.5866234431    0.0887627173
 C    0.0144907506    0.0658916614   -0.0241195347
 C   -1.4466777727   -0.4644378758   -0.0048202015
 C   -2.2251687191   -0.0173813586    1.2619424340
 O   -1.5628354655   -0.3436782050    2.4633122747
 C   -2.2385341096   -0.0424882105   -1.2738886957
 O   -1.6313028247   -0.4677421347   -2.4731442769
 C   -1.3963849385   -1.9356082335    0.0062231107
 N   -1.3775889652   -3.0925200328    0.0148044299
 H    1.2117156341    1.8593196321    0.0111320750
 H   -0.3731978901    2.1164568783   -0.7096025131
 H   -0.2065995988    1.9597910787    1.0508779771
 H    0.4723796451   -0.2802274498   -0.9548770246
 H    0.5540499203   -0.4057773269    0.8012918931
 H   -2.3184411387    1.0720020115    1.2490699901
 H   -3.2405973434   -0.4382628538    1.2287843630
 H   -1.5674331746   -1.3030206685    2.5587268482
 H   -3.2733308226   -0.4057465955   -1.1904318642
 H   -2.2739816072    1.0494338077   -1.3185762139
 H   -1.6886828098   -1.4293377974   -2.5153616085