18

 C   -0.0846118697    1.4057618008    0.0334321205
 O    0.2447550251    0.0420069052   -0.1078508930
 C    0.6935868830   -0.5569465986    1.0865194521
 C   -0.3635868593   -0.9126367662    2.1085656088
 C   -0.3091651131   -2.2299816858    2.3219708190
 N    0.6723196610   -2.8626181291    1.5407481642
 C    0.9249087043   -4.2844245481    1.4819555193
 C    1.3078231167   -1.9383955664    0.7304646170
 O    2.1690565112   -2.1761500982   -0.0814834944
 H    0.7690518839    1.9906156386    0.4103849892
 H   -0.3540527604    1.7726576870   -0.9595717872
 H   -0.9380345455    1.5622711307    0.7096892615
 H    1.4914787231    0.0584361404    1.5392662996
 H   -1.0196455800   -0.2157424366    2.6058363769
 H   -0.8937480448   -2.8351001388    3.0023389238
 H    1.2505507620   -4.6713858239    2.4538426611
 H    0.0334363686   -4.8367227432    1.1630167723
 H    1.7200554240   -4.4391349779    0.7505487894