25

 C   -0.0231614457    1.5633057696    0.0132884382
 C    0.0754068017    0.0330929927   -0.0111777644
 C    0.7228586120   -0.5919516594   -1.2764488753
 C    0.7318401137   -2.1255155506   -1.1110126743
 C   -0.0149285862   -0.1874303725   -2.5759151779
 C   -1.5305638991   -0.4204274471   -2.5889515482
 C    2.1876085228   -0.1526556219   -1.3228204326
 C    3.0153105799   -0.0439361152   -2.5319977985
 O    2.5255425661    1.1254299213   -1.8688148994
 H    0.9564374803    2.0348544514   -0.0976675530
 H   -0.6611239796    1.9432122545   -0.7906390557
 H   -0.4555965030    1.8993528891    0.9612075905
 H    0.6549088018   -0.3005385221    0.8602288542
 H   -0.9237096973   -0.3989125995    0.1196089157
 H   -0.2810834984   -2.5170377395   -0.9804889255
 H    1.1748095388   -2.6153921951   -1.9845487809
 H    1.3112616613   -2.4240517653   -0.2300841885
 H    0.1945794665    0.8669549213   -2.7812176595
 H    0.4228279596   -0.7518290516   -3.4083660599
 H   -2.0481318054    0.1860677643   -1.8400124806
 H   -1.9424946849   -0.1513615178   -3.5666781965
 H   -1.7892622645   -1.4681286523   -2.4050538533
 H    2.7229328796   -0.3720295645   -0.3946807308
 H    4.0907147847   -0.2030777980   -2.4605758502
 H    2.5875631553   -0.2316250317   -3.5140547835