23

 C   -0.0126215170    1.6052922884    0.0271214811
 C    0.0311221282    0.0725701743    0.0363529206
 C    0.8516520127   -0.5356295916   -1.1459661791
 C    1.5902095772   -1.7873481561   -0.5861603470
 C    1.5505161826   -1.5352328232    0.8950830371
 C    0.7179189728   -0.5473201431    1.2266699379
 C    0.5801658105   -0.3792265977    2.7150029066
 C    1.7439732052   -1.2667506958    3.2552133024
 C    2.1424875610   -2.2261165435    2.0915105911
 H    0.9981889109    2.0240505329    0.0888913893
 H   -0.4763132060    1.9799696037   -0.8918060687
 H   -0.5897131018    1.9941682515    0.8728068893
 H   -1.0088618824   -0.2894648236   -0.0091795641
 H    0.2273861643   -0.7639251362   -2.0144664843
 H    1.5930173046    0.2029264747   -1.4716327168
 H    1.0657170294   -2.7199320976   -0.8418484045
 H    2.6039182914   -1.8891848169   -0.9922446378
 H    0.6621358218    0.6598747298    3.0552997794
 H   -0.4008010782   -0.7359287566    3.0629851555
 H    2.5975652005   -0.6278690075    3.5021313837
 H    1.4734553955   -1.8033589147    4.1684075557
 H    1.7109523588   -3.2296221211    2.2220582489
 H    3.2278449978   -2.3697942902    2.0268710937