19

 C   -0.6204359294    1.0416270592   -0.3827826480
 O   -0.2724228845   -0.3306871423   -0.4672084941
 C    0.9446022804   -0.5612991417   -1.1243662740
 C    1.2147135258   -2.0604296549   -1.0851972948
 C    0.5833489782   -2.5448828713   -2.3871232490
 O    0.2896490159   -3.6712561673   -2.6859885765
 C    0.3761755560   -1.3043237740   -3.2658767264
 C   -1.0878977499   -1.1238013580   -3.6648633982
 O    0.8934182101   -0.2118608428   -2.5034321328
 H    0.1441509212    1.6102354900    0.1672750441
 H   -0.7420413622    1.4861383541   -1.3767798838
 H   -1.5653508161    1.0977612312    0.1610649053
 H    1.7354923461    0.0642204234   -0.6895948442
 H    2.2911942715   -2.2598550796   -1.1223052020
 H    0.7923037002   -2.5580912055   -0.2125730080
 H    0.9979864481   -1.4004135988   -4.1648000114
 H   -1.7162476439   -1.0260684391   -2.7760733311
 H   -1.2042429756   -0.2279641377   -4.2802526915
 H   -1.4192276719   -1.9948006446   -4.2373690938