21

 C   -0.3355159438    1.4217392043    0.1579609918
 C    0.0846991727   -0.0464051282    0.0060009978
 C    0.7810234329   -0.3177365299   -1.3356293862
 C    0.9358207844   -0.5185644253    1.2029049798
 C    2.3016086517    0.1410789426    1.3506639602
 O    0.1685765419   -0.4254897587    2.4504438782
 C    0.1339670833   -1.8478167461    2.6639912904
 C    0.9423438590   -2.0487986123    1.3798155059
 O    1.3813466468   -2.9775172793    0.7706685527
 H    0.5198775029    2.0986777649    0.0608994798
 H   -1.0554883872    1.6906666311   -0.6215432049
 H   -0.8026896745    1.5933957760    1.1310687056
 H   -0.8312387877   -0.6524396092    0.0369230106
 H    1.6483816686    0.3359220255   -1.4754392506
 H    1.1211920020   -1.3548955696   -1.4077319570
 H    0.0909682010   -0.1268875052   -2.1634104903
 H    2.1966775639    1.2236393174    1.4627586318
 H    2.8131623782   -0.2411980947    2.2380709606
 H    2.9285135964   -0.0625813488    0.4786250977
 H    0.6383268222   -2.1592333565    3.5878530955
 H   -0.8808565848   -2.2658448779    2.6507627307