14

 O    0.0632163468   -0.0200827378   -0.0758280878
 C    0.0146548319    1.1837424283   -0.0080416676
 C   -1.2216444551    2.0199108295    0.0813149032
 C   -0.8947717717    3.3253378264    0.0195699687
 C   -1.8043148470    4.4166044805    0.0616123110
 N   -2.5234619928    5.3241743329    0.0837967705
 C    0.5927974795    3.5321438810   -0.0435854998
 C    1.3295736794    3.0474093039    1.1843092849
 C    1.1811360347    2.1473202246   -0.0340647046
 H   -2.2136366950    1.6035518470    0.1890835511
 H    0.9956980004    4.3437136699   -0.6355888246
 H    2.3211427288    3.4463206484    1.3683806586
 H    0.7504639377    2.8263340052    2.0741916883
 H    2.0656709225    1.8752451901   -0.5943108220