16

 O    0.1102695237   -0.0679166823   -0.0173966295
 C   -0.0266580682    1.1514856911    0.0174075954
 C   -1.1968909488    1.9450888954    0.1248172192
 H   -2.1641429318    1.4644569474    0.2016173648
 C   -1.1223942139    3.3574749649    0.0228182894
 O   -2.0113776018    4.2034796472   -0.0069664215
 C    0.3505036675    3.8791303116   -0.0624376857
 C    1.1670712082    3.1223680208   -1.1327962215
 C    1.2787828818    2.0102739295   -0.0670081110
 N    1.1402912165    3.1038204910    1.0128729145
 H    2.0209053793    3.5405531436    1.2900322212
 H    0.5839247058    2.8254828232    1.8247322932
 H    0.4004627088    4.9605327945    0.0446566947
 H    0.6366055083    2.8611134742   -2.0460038110
 H    2.1241999711    3.5983667399   -1.3721341711
 H    2.1708632135    1.3962782079    0.0359407790