15

 O    0.0584718737    1.5289451581   -0.1838493557
 C    0.0482685822    0.1533799116    0.1658442591
 C   -1.2893007536   -0.4373662168    0.1773977944
 C   -2.3972483405   -0.9090922380    0.1340494975
 C   -3.7290889354   -1.4409408094    0.1266753859
 O   -4.2229296980   -2.0163594958   -1.0905162686
 C   -4.0033022620   -2.9021838448    0.0107092994
 C   -2.9531320801   -3.8750413173   -0.1028553782
 C   -2.1007259657   -4.7188415126   -0.1734788554
 H   -0.4015677874    1.6175449087   -1.0253078806
 H    0.6949378972   -0.4395720089   -0.5003143845
 H    0.4895907852    0.0958964724    1.1670475693
 H   -4.4721570107   -0.8529087461    0.6655349042
 H   -4.9195045773   -3.2628299725    0.4786942989
 H   -1.3408654677   -5.4577462387   -0.2434321358