20

 O    0.1865780852    1.4162922844    0.2152086499
 C    0.0836220125    0.0161846735   -0.0043435674
 C   -1.3422525452   -0.5076711727    0.1854681904
 C   -1.4393924618   -2.0204210999    0.0359278801
 C   -2.8174205205   -2.6873647280    0.0894596010
 N   -3.5634798650   -2.2236187329   -1.1102001227
 C   -2.6132076446   -3.3615633067   -1.2192225650
 C   -1.2547460196   -2.6723659094   -1.4089564720
 O   -1.1568724153   -1.8158167924   -2.5137650868
 H   -0.3194404017    1.8550684368   -0.4758430434
 H    0.4480478758   -0.2626574457   -1.0029876500
 H    0.7529690377   -0.4445312620    0.7318304059
 H   -1.6971177414   -0.2093795618    1.1799851559
 H   -2.0068890118   -0.0274463022   -0.5426765060
 H   -0.7591644772   -2.5194580866    0.7354912544
 H   -3.3538925564   -3.0365381640    0.9634250189
 H   -4.5041247925   -2.6105932783   -1.0625198768
 H   -2.9440413153   -4.3282511225   -1.5784729531
 H   -0.4064832344   -3.3581282532   -1.4494581216
 H   -2.0237946784   -1.3905899164   -2.5787886118