16

 C    0.0054804963    1.6512731616   -0.0875117617
 C    0.0429108815    0.1327095320    0.0198041102
 C    0.6429758677   -0.6881165355   -1.1411456801
 N    2.0181919300   -0.2954587951   -1.2895907154
 C    1.7104486971   -1.3123830605   -0.2241652069
 C    2.2694887376   -2.6675824245   -0.3441075945
 O    2.7319693448   -3.0947898331   -1.3799420753
 C    1.1054398123   -0.5495602668    0.9338332360
 O    1.2581001099   -0.6012206079    2.1188546648
 H    0.9630900675    2.0341209728   -0.4470724174
 H   -0.7811795710    1.9783640633   -0.7746744484
 H   -0.1984632950    2.0903697695    0.8934717051
 H   -0.9340286364   -0.2696634554    0.3142922368
 H    0.1072701946   -1.2314444316   -1.9102058738
 H    2.4380494751   -0.8501949160   -2.0412008138
 H    2.2249037180   -3.2828291630    0.5754867645