20

 C   -0.0396061083    1.5153562452   -0.1208258178
 C    1.3039683122    0.8513996409    0.0201495064
 C    0.0353925594    0.0196054269    0.0399137908
 C    0.5190439344   -0.7503275801   -1.2227193614
 C    0.7937143419    0.1277880961   -2.3968415331
 C    1.7936653386    0.1052542232   -1.2525848982
 N    0.2457695535   -2.1460138131   -1.3180189544
 C    1.2503910082   -2.9992571482   -1.9410099740
 C    1.0358902503   -3.0414205014   -0.4689443796
 H   -0.3739816095    2.0360073148    0.7723560915
 H   -0.3649535207    1.9931113828   -1.0379509547
 H    1.9671464260    1.0689866948    0.8475935567
 H   -0.4183821487   -0.4998470541    0.8739561604
 H    1.1444904276   -0.4181177787   -3.2688428329
 H    0.1972034300    0.9970424392   -2.6547395885
 H    2.8299018638   -0.1628874493   -1.4164297149
 H    0.8641968226   -3.7867525607   -2.5812867893
 H    2.1730706181   -2.5383303337   -2.2882642879
 H    1.8097486885   -2.5968025219    0.1528173055
 H    0.4873650223   -3.8606825127   -0.0140938545