13

 N   -0.0435145480    1.2308859293    0.5387040226
 C   -0.0192960110    0.0703456667    0.0344875865
 O    1.1642856663   -0.5326496152   -0.3766906065
 C    1.1334121048   -1.7723507220   -0.9080333317
 C   -0.0136508139   -2.4714369987   -1.0637345990
 N   -1.2419365258   -1.9206018308   -0.6694072914
 C   -1.2224524502   -0.7416763578   -0.1628486612
 C   -0.0094114600   -3.7758273584   -1.6274745258
 C   -0.0010045112   -4.8801778400   -2.1053864050
 H    0.8921439820    1.6349910605    0.5939869748
 H    2.1159509379   -2.1292943534   -1.1873416046
 H   -2.1549415073   -0.2815789893    0.1546222117
 H   -0.0003424135   -5.8550576608   -2.5264314903