25

 C    0.0815552127    1.5543348411    0.0500513885
 C    0.1817408570    0.0271049967    0.0378295555
 C    0.5726516471   -0.5334828927   -1.3439421019
 C    0.6703942386   -2.0311732482   -1.3823928011
 C   -0.1366145903   -2.8575993414   -2.0522713382
 C    0.1857485667   -4.3129379079   -1.8202779812
 C    1.5790557250   -4.2457684774   -1.1511943905
 C    1.7021612841   -2.8116010749   -0.5725946357
 C    3.1300589200   -2.2558068572   -0.6295839068
 H    1.0370843745    2.0164216154   -0.2226933663
 H   -0.6704536923    1.9076334987   -0.6643681238
 H   -0.1983740206    1.9282622672    1.0399330214
 H    0.9144590801   -0.2971577404    0.7872742498
 H   -0.7770823330   -0.4119442436    0.3399277368
 H   -0.1624845824   -0.1997756980   -2.0864614118
 H    1.5328699065   -0.0868009203   -1.6396457477
 H   -0.9702728218   -2.5339974087   -2.6682672933
 H   -0.5624933404   -4.7775014288   -1.1611672185
 H    0.1894949248   -4.9077097711   -2.7410903381
 H    1.7331860257   -5.0205903215   -0.3949951057
 H    2.3532261067   -4.3829834686   -1.9153184736
 H    1.3886059956   -2.8135452125    0.4833451456
 H    3.4828371624   -2.1909619342   -1.6652224674
 H    3.1986174524   -1.2563324754   -0.1877190167
 H    3.8205886911   -2.9054897763   -0.0812673193