18

 C   -0.5692104615    0.3776225928   -0.8506148476
 O   -1.5598419426    0.1567193332    0.1318592854
 C   -1.1077801884   -0.6131687228    1.2177547472
 C   -0.8402463767   -2.0704741180    0.8765759058
 N    0.2094369704   -2.6523342515    1.2805593035
 O   -1.8706234387   -2.5805282409    0.1487190404
 C   -1.7955632982   -3.9304435946   -0.2692687102
 C   -3.0196229058   -4.2138427621   -1.1274607100
 O   -3.2579778891   -5.2987407717   -1.5830225266
 H   -1.0156923369    1.0176552549   -1.6147659346
 H    0.3129443478    0.8826081607   -0.4290941418
 H   -0.2367797556   -0.5583553890   -1.3230560333
 H   -0.1878998172   -0.2109418017    1.6617606027
 H   -1.9054905532   -0.5752827005    1.9680611557
 H    0.2469943273   -3.6415434125    1.0370292948
 H   -0.8908558312   -4.1183028854   -0.8649377184
 H   -1.7863074626   -4.6219106715    0.5845850877
 H   -3.6679069278   -3.3280890596   -1.2969570908