14

 O   -0.0935762078    1.3371899117    0.0441239504
 N    0.0425945948   -0.0611336633    0.0113982981
 C   -1.1025535159   -0.6320615015   -0.0343040574
 C   -2.4622724555   -0.0905509245   -0.0304589064
 C   -3.3205611420   -1.1233222284    0.0172813587
 N   -2.7008873516   -2.4054356483    0.1117425965
 C   -2.0062155127   -2.7715810471   -1.1453371160
 C   -1.2551387268   -2.1188992392   -0.0283634172
 H    0.8227481473    1.6283051294    0.0943231256
 H   -2.7042618303    0.9597771822   -0.0733313097
 H   -4.4026870905   -1.0918573658   -0.0098104507
 H   -1.8772815229   -3.8372868797   -1.3075715737
 H   -2.2339159934   -2.1797958512   -2.0269128465
 H   -0.5745206227   -2.7182517844    0.5653237684