21

 C    0.2917304157    1.4915470394   -0.3616771000
 C    0.1037058059    0.0428695103    0.0082434015
 O    1.2809521238   -0.7428205084    0.2355560025
 C    0.3787752462   -0.5385976637    1.3336610502
 C    0.9083617801    0.2179851663    2.5269974273
 C    1.9568366443   -0.6005869096    3.2848065265
 C    2.5352770326    0.1210146745    4.4948197512
 C    3.5839467655   -0.6375425752    5.2899175802
 O    2.1802877884    1.2355527647    4.8048832453
 H    1.0512697503    1.9757403025    0.2545351772
 H    0.6037958405    1.5735423732   -1.4081367606
 H   -0.6510211437    2.0382477562   -0.2503564099
 H   -0.6462833636   -0.4744694370   -0.5951972264
 H   -0.1858474064   -1.4386763948    1.5938873657
 H    1.3504354294    1.1695204034    2.2246786760
 H    0.0770223322    0.4624694938    3.1980747918
 H    1.5417835204   -1.5601968895    3.6251331055
 H    2.7822096795   -0.8701971512    2.6123179706
 H    3.1678552048   -1.5768835435    5.6712824335
 H    4.4308598030   -0.9045264003    4.6479727178
 H    3.9321857409   -0.0259977409    6.1230242042