19

 N   -0.0809143990   -1.1596011777   -0.0377922560
 C   -0.0402559145   -0.0055905055   -0.0142092472
 C   -0.0013350560    1.4621772003    0.0029093198
 N    1.3601111976    1.9720447357   -0.0237298074
 C    2.0600360174    1.6567284741   -1.2715123545
 C    3.4884741481    2.1884658493   -1.2012778414
 O    3.5069206801    3.5834762434   -0.9529389907
 C    2.8457957784    3.8883367189    0.2604838876
 C    1.3952159372    3.4107628540    0.2380256860
 H   -0.6207626931    1.8285038279   -0.8394231626
 H   -0.4884323506    1.8026392250    0.9240542627
 H    2.0754042766    0.5706939689   -1.4090857050
 H    1.5474471348    2.1041300885   -2.1449507668
 H    4.0391332486    1.6526062768   -0.4117404470
 H    4.0003741957    2.0312948094   -2.1543150850
 H    3.3688661657    3.4196482444    1.1097189566
 H    2.8875397465    4.9745216264    0.3792863741
 H    0.8375960114    3.9806316577   -0.5302803620
 H    0.9275135049    3.6101171626    1.2092918388