21

 C    0.5889296755    1.3191753939    0.0306101652
 C    0.2120293806   -0.1585073280   -0.1085950647
 C   -1.3134963755   -0.4040709555   -0.0848384645
 C   -1.9936192528    0.0564801750   -1.3869879029
 C   -3.5095256719    0.0353126293   -1.3994457370
 O   -1.3501812815    0.4200078815   -2.3419058744
 C   -1.5858172486   -1.8983830610    0.1465667841
 C   -1.5959194695   -2.3729221716    1.5879762234
 O   -1.7724176408   -2.6542840431   -0.7790141931
 H    1.6763231183    1.4414794771    0.0174758967
 H    0.1751710017    1.9055790834   -0.7927994147
 H    0.2192464994    1.7373166271    0.9739863202
 H    0.5973811642   -0.5546471007   -1.0521942391
 H    0.6832089489   -0.7316392329    0.6984489048
 H   -1.7555239159    0.1535734007    0.7530215436
 H   -3.9129661132    0.6075561257   -0.5564804760
 H   -3.8750749726    0.4527695604   -2.3381441253
 H   -3.8630275819   -0.9956071835   -1.2973958982
 H   -0.7513617966   -1.9673463232    2.1529436942
 H   -2.5084960179   -2.0091598956    2.0763205396
 H   -1.5843538700   -3.4629779091    1.6208424281