19

 C    0.9491304593   -1.0263847207   -1.0493513744
 C    0.1260797055   -0.4749986603    0.1144847673
 O    0.2648954800    0.9526507926    0.2186560768
 C   -1.3150700756   -0.8748536795    0.0387164589
 C   -2.0614457750   -1.5064253566   -0.9292386473
 N   -3.3762983855   -1.6162705190   -0.5496203180
 C   -3.4290559758   -1.0565983154    0.6382811071
 N   -2.2183882352   -0.5880583353    1.0506887199
 C   -1.9284688111    0.0640172098    2.3150399214
 H    1.9801750339   -0.6762070077   -0.9622327091
 H    0.9449672127   -2.1201348539   -1.0528510688
 H    0.5486427463   -0.6807977399   -2.0085680532
 H    0.5629711265   -0.8393648443    1.0534837545
 H   -0.1899713061    1.3335338838   -0.5419290301
 H   -1.7196141503   -1.8926529620   -1.8776563304
 H   -4.3131343759   -0.9525146858    1.2513894806
 H   -1.3841587265   -0.6054914381    2.9902366466
 H   -1.3229910523    0.9545098565    2.1385188736
 H   -2.8691793049    0.3468301360    2.7912012747