19

 C    0.0282998899    1.4631014658   -0.3159465460
 N    0.1264177571    0.0267179192   -0.0987986343
 C    1.4719565676   -0.5409266621    0.0177030502
 C    0.5723554689   -0.4434488482    1.1899268936
 C    0.7931459192    0.3706181678    2.4861277395
 N    0.1296032896   -0.7288944113    3.1951076572
 C   -0.1298102491   -1.5431645196    2.0029439409
 C    0.0104557603   -1.0446505608    4.5023965964
 O   -0.4631821717   -2.0819894320    4.9191716709
 H    0.8177027678    2.0454415555    0.1879025229
 H    0.0917694840    1.6636529165   -1.3894067694
 H   -0.9434757893    1.8203760333    0.0391406022
 H    1.6329321659   -1.4922222961   -0.4831147014
 H    2.3201924497    0.1434468374   -0.0135125597
 H    1.8373489977    0.5335758927    2.7762954659
 H    0.2545900168    1.3247998832    2.5362513277
 H   -1.1924206543   -1.6743859311    1.7742275827
 H    0.3608811861   -2.5216915669    2.0250633654
 H    0.3931314238   -0.2362403634    5.1599246552