20

 C    0.3578264766    1.6189293111    0.1877734773
 C    0.0273745696    0.1407466917    0.1085243789
 C    0.6023588836   -0.7963991460   -1.0443658087
 N    1.8969752889   -1.6084212602   -0.8713416317
 C    2.8948461189   -1.2441557311    0.1737598714
 C    2.0498503335   -0.6183098955    1.2800571016
 C    0.7610324829   -0.8848858213    0.9935134137
 C    0.6971904410   -1.9532136103   -0.1329264665
 C    0.0531070983   -3.3036878480   -0.1153616124
 H    1.4368679382    1.7936263102    0.1450921001
 H   -0.1099595624    2.1558204768   -0.6445919583
 H   -0.0198555178    2.0583078064    1.1173313242
 H   -1.0611420914    0.0006910915    0.0661383799
 H    0.2449956887   -0.7782052401   -2.0702179837
 H    3.4636112211   -2.1547560556    0.4042956847
 H    3.6095340040   -0.4936521636   -0.1853025325
 H    2.3780879551    0.2965410910    1.7643969439
 H   -0.9936969715   -3.2354373024    0.1994466003
 H    0.0888089438   -3.7516694853   -1.1123281757
 H    0.5649318389   -3.9777693492    0.5806092235