15

 N    0.0019246970    1.3083232233    0.0268734592
 C    0.0472539768   -0.0540907180    0.0628550920
 O    1.1030700408   -0.6778564451    0.1102305120
 N   -1.1835039809   -0.7006985675    0.0765895208
 C   -2.4729704152   -0.1404103701    0.1496500755
 C   -3.3667926321   -1.1614924095    0.0585599780
 C   -2.6511242102   -2.3958782970   -0.0868418269
 C   -1.3195312144   -2.0939020458   -0.0636287642
 O   -0.2565242969   -2.8908606446   -0.1740877119
 H    0.8955927271    1.7511299449   -0.1155085904
 H   -0.8020414834    1.7736053124   -0.3598119162
 H   -2.6127455912    0.9049098686    0.3628499661
 H   -4.4399472411   -1.0551731600    0.1072994737
 H   -3.0618559549   -3.3865807256   -0.1890918962
 H    0.5351144587   -2.3208141157   -0.0544882813