21

 C    0.0734768360    1.6326302989    0.0406367417
 C   -0.0975269510    0.1103359802    0.0072589028
 C    0.6558050511   -0.5438289208   -1.1470160837
 C    2.2018211854   -0.5639785162   -1.1455976451
 C    2.7376205530   -1.4693705054   -0.0727620503
 C    2.2083531218   -2.0852197451   -1.3423134299
 C    0.6958560800   -2.0830653714   -1.2921537232
 C   -0.2406728734   -3.1260687299   -0.8678660817
 O   -0.1005715264   -2.7531948687   -2.2507059935
 H    1.1276174321    1.9081231220    0.1521800061
 H   -0.2933192917    2.0924653113   -0.8838821163
 H   -0.4769094750    2.0772643843    0.8753786212
 H    0.2377681413   -0.3176396144    0.9599917661
 H   -1.1632802040   -0.1382188954   -0.0802842885
 H    0.2962696616   -0.1400805206   -2.1010123221
 H    2.8295562510    0.1716905114   -1.6324579846
 H    3.8181350344   -1.4791287941    0.0297392962
 H    2.2060195833   -1.6057080291    0.8655987344
 H    2.8109445342   -2.6958818206   -2.0027023724
 H    0.1319357742   -4.1173761040   -0.6118600720
 H   -1.1922040080   -2.8561050625   -0.4113328952