13

 N    0.0634015199    1.3454784213    0.1767759318
 C   -0.0713930116   -0.0178947148    0.0619475890
 C   -1.1788050228   -0.8365593954    0.0201054969
 C   -0.6100623404   -2.1427323226   -0.0074327540
 C    0.7492794844   -2.0235561445    0.0143493461
 O    1.1142027777   -0.7027994118    0.0585208274
 C    1.2463847691   -3.3326075472   -0.0273967385
 N    0.2439132685   -4.1953979745   -0.0690706523
 O   -0.9591320135   -3.4284605215   -0.0572524649
 H    0.9297596477    1.7048915741   -0.2001152594
 H   -0.7402166835    1.8715469650   -0.1328665192
 H   -2.2089427702   -0.5245174446    0.0129998936
 H    2.2563429547   -3.7140429536   -0.0283771165