15

 O   -0.0613523748   -0.0096221847   -0.3267541855
 C   -0.0366204198    1.1606413019   -0.0282769930
 C   -1.3232397355    1.9146668710    0.2989515354
 O   -1.1544799768    3.2608868412    0.7266332560
 C    0.1395754601    3.7659809059    0.6885938817
 C    1.1260166336    3.4516012853   -0.4782030147
 O    2.2265071251    3.8271406707    0.4227679958
 C    1.3580468810    2.9641477057    1.2382237132
 C    1.2196327278    1.9803189626    0.0339372755
 H   -1.9535251045    1.8978262310   -0.6007216235
 H   -1.8575099058    1.3597075774    1.0787799211
 H    0.1104197153    4.8118760655    0.9910590905
 H    1.1590098465    3.8124456410   -1.5058241279
 H    1.6673126354    2.7411200742    2.2588419945
 H    2.1175118124    1.4278673812   -0.2418677590