19

 C   -0.1713501368    1.4139492383   -0.0198970461
 N    0.0525726953   -0.0237952661    0.0188550493
 C    1.2405568778   -0.4932359337   -0.7801621833
 C    2.1572924112   -0.3072796033    0.4554315794
 C    0.8240760536   -0.5041752885    1.2205737293
 C    0.5215742812   -1.9989851722    1.3314985682
 O    1.0535378345   -2.7027782868    0.2125724292
 C    1.0107045939   -1.9861380365   -1.0182393249
 H    0.7233162994    2.0337486011    0.1697444088
 H   -0.5662304922    1.6891015830   -1.0037042081
 H   -0.9266176480    1.6796335141    0.7274307454
 H    1.4386530454    0.0532655879   -1.7065211439
 H    2.9604433639   -1.0288277358    0.6186735110
 H    2.5434419166    0.7088643795    0.5413697875
 H    0.6348851626    0.0321538030    2.1547069389
 H    0.9959693257   -2.4410883397    2.2149170444
 H   -0.5675356044   -2.1351782921    1.4045269417
 H    0.0414958528   -2.1191808187   -1.5212066526
 H    1.7991655274   -2.4199923936   -1.6435661540