19

 C   -0.1652524564    1.5343818815    0.0155952356
 C    0.0815476481    0.0253065937   -0.0324360965
 C    0.9369771717   -0.4808095238   -1.2134807871
 C    2.0097960771   -1.3351155963   -0.5715175416
 C    3.0010856830   -2.0657943222   -1.4128925472
 O    3.9046581613   -2.7775476028   -0.5945418990
 C    1.9460965316   -1.3234276476    0.7679243725
 C    0.8303774317   -0.4729788643    1.2227485615
 O    0.5325955911   -0.1925531454    2.3624393978
 H    0.7792829987    2.0877803023   -0.0318110945
 H   -0.7931269813    1.8646285767   -0.8175959476
 H   -0.6603637651    1.7969050328    0.9541636193
 H   -0.8879557301   -0.4885473617   -0.0325588136
 H    0.3572131196   -1.0528702429   -1.9482979511
 H    1.3928704302    0.3502863078   -1.7687449686
 H    2.4508806952   -2.7366297456   -2.0973114991
 H    3.5200376530   -1.3344291821   -2.0585190462
 H    4.5300759611   -3.2372913045   -1.1616088255
 H    2.6155189694   -1.8393047356    1.4416118709