16

 O   -0.0446097115    1.4786399735    0.0598442488
 C   -0.0186165198    0.0903856508    0.0336478666
 C    0.8500316857   -0.6769309551    1.0803340077
 C    0.6304206958   -1.9856971190    0.8857679076
 C   -0.3615374741   -1.9304792608   -0.2680151660
 C   -1.3248836798   -2.4337516110   -1.3549076406
 N   -1.4306790135   -0.9105733463   -1.5634354704
 C   -1.3179695251   -0.7286030314   -0.0287440900
 C    0.0789225815   -0.7992327611   -1.2360603972
 H    0.8532840559    1.8072779585   -0.0555462994
 H    1.4827942417   -0.1954431484    1.8142548209
 H    1.0416328583   -2.8382259991    1.4071746171
 H   -0.9021535675   -2.9610712123   -2.2154855742
 H   -2.2649159625   -2.8948644834   -1.0368564333
 H   -2.2015393974   -0.6925050970    0.6120603753
 H    0.8401851323   -0.8510688679   -2.0186245530