20

 C   -0.0005088346    1.5343815497    0.0481310269
 C   -0.0479139962    0.0072211568   -0.0580603463
 C    0.7145838884   -0.5489241488   -1.2619501837
 C    2.2742622573   -0.3921790184   -1.1889057268
 C    2.6322051157   -1.8912805785   -1.2466079810
 C    1.7634569282   -2.4348923560   -2.4020346901
 C    0.6975608867   -2.0958778151   -1.3394210379
 O    1.6683897189   -2.4702685295   -0.3085887236
 H    1.0274698452    1.8998093103    0.1444025194
 H   -0.4355930380    2.0071641742   -0.8398345123
 H   -0.5594540092    1.8877352120    0.9202495092
 H    0.3624643618   -0.4484681468    0.8504925855
 H   -1.0959174185   -0.3158659912   -0.1213554134
 H    0.3115124971   -0.1137352639   -2.1842842791
 H    2.7003773749    0.1828608780   -2.0153214479
 H    2.6030689069    0.0551699374   -0.2475746099
 H    3.6631937291   -2.1986103642   -1.0707751643
 H    1.7529910937   -1.9075486451   -3.3599806796
 H    1.8836063278   -3.5105188710   -2.5340252746
 H   -0.2597397253   -2.6122858501   -1.2567214003