18

 C   -0.0318319729    1.4916772718   -0.0160263923
 C    0.0239884049   -0.0092525788    0.0606582333
 N    0.1104269374   -0.6732152477    1.1470229637
 O    0.1503156097    0.1682572288    2.2669451153
 C    0.0090194992   -0.8206167090   -1.2266155200
 C    0.1627982756   -2.3473210440   -1.0193711384
 O    0.2408944626   -3.0271398829   -2.2545026835
 C   -1.2036229240   -0.5462979558   -2.0029028551
 C   -2.2083108896   -0.3742801485   -2.6418489575
 H    0.9119523983    1.9229761978    0.3352929683
 H   -0.2223544521    1.8288542304   -1.0358236679
 H   -0.8161193869    1.8763618497    0.6419744462
 H    0.1981751255   -0.4623524269    2.9933567218
 H    0.8687647667   -0.4947154410   -1.8319760347
 H    1.0970046708   -2.5431132787   -0.4895760494
 H   -0.6604779930   -2.7133505447   -0.3931349834
 H   -0.5795787087   -2.8522247310   -2.7304003530
 H   -3.0923520137   -0.1991024096   -3.2041443532