18

 O   -0.1415054737    0.0002478056    0.0832970181
 C   -0.0023606562    1.1875271361   -0.0993591613
 C    1.2817197074    1.9030218979   -0.0606371786
 C    1.3028076671    3.3796610484    0.3242491551
 C    1.5840213505    3.0163827910   -1.0913184523
 C    3.0231270485    2.8203028749   -1.5829480410
 C    3.6033873206    1.6598382371   -0.7779721990
 N    3.6828987041    1.9043696863    0.6771976197
 C    2.5578945449    1.1176801911    0.1284074154
 H   -0.8784252351    1.8409636926   -0.3229807478
 H    0.3433341852    3.8408463650    0.5371031525
 H    2.1216795285    3.6724056745    0.9694045519
 H    0.8300933534    3.2681464805   -1.8303564005
 H    3.0095389796    2.5507167076   -2.6441975037
 H    3.6231869026    3.7306653899   -1.4815514363
 H    4.3548913090    1.0252836144   -1.2373654242
 H    4.3655287696    1.2741242810    1.0907677088
 H    2.4618570442    0.0654448761    0.3657863531