23

 C   -0.1555846064    1.5311340934   -0.0046407885
 C    0.0521626012    0.0187576352   -0.0081807286
 C    1.0907090757   -0.5689915962   -1.0059100780
 C    2.4305759709    0.0236471481   -0.4515931421
 C    2.2077152914   -0.0171309609    1.0905290261
 C    0.7654250719   -0.6157007098    1.2173098618
 C    0.8780933442   -2.0637130735    0.7503155628
 C    0.8940572142   -3.2353059636    1.6753817119
 C    1.0673356691   -2.0253760111   -0.5756275518
 H    0.7703019773    2.0932335746    0.1428944072
 H   -0.5928603512    1.8604954167   -0.9538229068
 H   -0.8482587380    1.8222729149    0.7929563736
 H   -0.9155257056   -0.4708107136   -0.1610245087
 H    0.9186716031   -0.3755605795   -2.0664194018
 H    3.2904063077   -0.5692870608   -0.7712223246
 H    2.5886069362    1.0462483805   -0.8079492667
 H    2.9442212811   -0.6363185920    1.6087770314
 H    2.2592869618    0.9828309729    1.5313955990
 H    0.3014684761   -0.4652250369    2.1948915998
 H   -0.0408897051   -3.3092068942    2.2457554290
 H    1.0362388019   -4.1745646065    1.1327623785
 H    1.7004949155   -3.1482563362    2.4158760669
 H    1.2836232168   -2.8664901715   -1.2246171504