23

 C   -0.3546405730    1.2260601394    0.3726452755
 O   -0.3508081237   -0.1571124118    0.1232450604
 C    0.4622363856   -0.5181776133   -0.9764734658
 C    0.3828838329   -2.0253836600   -1.1405422784
 C   -0.9105596081   -2.7152167056   -1.6861170004
 C   -0.0485422821   -3.5004116730   -2.6880657712
 C    0.6818037348   -2.5910503109   -3.6341792068
 C    0.1099163242   -1.3578820954   -4.3045922496
 C    1.2067387766   -2.7351359805   -2.2246702835
 H    0.6538893188    1.6034901920    0.6079168164
 H   -0.7383444550    1.7982796159   -0.4876618698
 H   -1.0060934005    1.4045597543    1.2320610804
 H    0.1304295337    0.0130353001   -1.8817267488
 H    1.5101984806   -0.2175794346   -0.7952025612
 H    0.6241091220   -2.4627325302   -0.1664184092
 H   -1.3933254730   -3.3467226427   -0.9386318146
 H   -1.6719700609   -2.0564746892   -2.1157608849
 H   -0.1526992944   -4.5614599663   -2.8826230158
 H    1.3111467909   -3.1659428748   -4.3132470384
 H   -0.6554762462   -0.8644091575   -3.7025159548
 H    0.8929669121   -0.6214799922   -4.5175619785
 H   -0.3558725697   -1.6301448031   -5.2585801568
 H    2.2048690544   -3.1249136305   -2.0552229442