13

 N   -0.4017407823   -0.7364489530   -1.0350056933
 C   -0.1517212715    0.1765517974   -0.3740638075
 C    0.1402839862    1.3545325308    0.4488989315
 N    1.4534306954    1.9061455697    0.1855293976
 C    2.0262153663    2.2059968086   -1.0100363168
 C    3.2415800625    2.7877994564   -0.7253226110
 C    3.3077428926    2.7993508694    0.6841850160
 N    2.2224019295    2.2665922943    1.2362943974
 H   -0.6447360738    2.1026190106    0.2817335804
 H    0.1235159315    1.0838866191    1.5071778465
 H    1.5385929451    1.9706812982   -1.9427623245
 H    3.9743104279    3.1415396751   -1.4318904064
 H    4.1004062105    3.1684333633    1.3180889102