18

 O   -0.0307854661    1.3763623886    0.0993894192
 C   -0.0287956387   -0.0057023717   -0.0065991440
 C   -0.5079457624   -0.6362217226   -1.3035808416
 C   -1.3340249610   -0.7563018991   -0.0417444217
 C   -1.4025685776   -2.0622259119    0.7236400536
 C   -0.0706069370   -2.8251280296    0.6773448332
 N    1.0496181170   -1.9518508948    1.0045970817
 C    1.1234532744   -0.6230133746    0.7323400300
 O    2.0622014775    0.0809889748    1.0847362631
 H    0.8567957569    1.5839153793    0.4378858415
 H   -0.8465937183    0.0778050075   -2.0453311487
 H    0.0030472219   -1.5034790507   -1.7072421594
 H   -2.2195529202   -0.1302779438    0.0071620007
 H   -1.6592757143   -1.8509444575    1.7686069786
 H   -2.1872116440   -2.7129330318    0.3208234274
 H   -0.0866226275   -3.6451981945    1.4009010662
 H    0.0661043228   -3.2812611236   -0.3126581351
 H    1.8576617565   -2.3353851538    1.4709150954