18

 C    0.2480147951    1.5789425089    0.0444146749
 C    0.0151550732    0.0842790197    0.2412698176
 C   -1.0667004200   -0.4869262664   -0.6590562072
 O   -1.6741712482    0.1850711061   -1.4603180687
 C   -1.3382105499   -1.9629247589   -0.4925283070
 N   -2.7487161778   -2.3643253038   -0.3933937427
 C   -1.9961488574   -2.7832120179   -1.5749637700
 C   -2.4398086000   -2.1992093401   -2.8855579844
 O   -2.0664165569   -2.6482947865   -3.9404325203
 H    1.0351148548    1.9383283974    0.7126217974
 H    0.5412992834    1.7942405773   -0.9860331615
 H   -0.6649743799    2.1443075319    0.2469973303
 H    0.9339929527   -0.4924106744    0.0592941690
 H   -0.2598034142   -0.1472990776    1.2806412350
 H   -0.6210148985   -2.4991389986    0.1261873691
 H   -2.8492189957   -3.1330167222    0.2642614770
 H   -1.6417982584   -3.8091124446   -1.6560419477
 H   -3.1483565824   -1.3572922401   -2.8010738909