18

 C    0.0567365042    1.4945289944   -0.0184362515
 C   -0.1204858917   -0.0021603466   -0.2080054836
 O    0.9300577406   -0.4765555684   -1.0317772227
 C    0.8953028922   -1.8517041400   -1.2522779969
 C   -0.1562088010   -2.4686511061   -2.2631287528
 C    1.0385084108   -3.0333672492   -3.0400730157
 O    1.8070792951   -1.9099105775   -3.4721779537
 C    2.0163787943   -2.3901225573   -2.1418739759
 H    1.0193779907    1.7092552823    0.4539812776
 H    0.0273660898    2.0079343113   -0.9834785721
 H   -0.7401169904    1.8960633204    0.6147290431
 H   -0.1010457784   -0.5227183894    0.7647780189
 H   -1.0964647162   -0.2199539443   -0.6708178304
 H    0.8605889909   -2.4062491752   -0.3004581835
 H   -0.8055806129   -3.2167202638   -1.8034972924
 H   -0.7478845134   -1.7458183110   -2.8286675469
 H    1.1191233886   -3.9492864615   -3.6128840468
 H    3.0282003569   -2.6633778182   -1.8659776148