20

 O   -0.0021360152   -0.0436553451    0.0038768677
 C    0.0065936995    1.1633415429    0.0099543574
 C   -1.2594584295    2.0325576734    0.0317524084
 N   -0.9259366053    3.4596174991    0.0347667926
 C   -0.1188379420    3.7654418893    1.2252405110
 C    1.2038143993    2.9338145979    1.2594699279
 C    1.2524851463    2.0385223311   -0.0024188288
 C    1.1695479153    2.9470227830   -1.2530239993
 C   -0.1514902991    3.7781598364   -1.1739225924
 H   -1.8768179644    1.7919180574   -0.8418302760
 H   -1.8529199369    1.7825948247    0.9191676924
 H    0.0927740539    4.8389921930    1.2223160805
 H   -0.7301179515    3.5611557319    2.1096907745
 H    2.0830700473    3.5871839435    1.2636652590
 H    1.2613931398    2.3188738256    2.1626609261
 H    2.1425323770    1.4066353692   -0.0178744029
 H    2.0485075141    3.6004520642   -1.2744083833
 H    1.2022694091    2.3415955048   -2.1638543714
 H   -0.7866707504    3.5833003470   -2.0435337608
 H    0.0603762327    4.8516295906   -1.1652991025