21

 C   -0.0702428651    1.5460423703   -0.0514068409
 C    0.0306144601    0.0309613064    0.0176468712
 O    0.7009730530   -0.5036263950   -1.1427100524
 C    1.5729290116   -1.5729502736   -0.7261025518
 C    1.0436542719   -1.9881582234    0.6517104997
 C    0.8011798418   -0.5770142944    1.2029304030
 O    2.0425228493    0.0609364125    1.4870987089
 C    2.9564095837    0.1837300512    0.3930784346
 C    2.9992348774   -1.0373786464   -0.5403029053
 H    0.8977326773    2.0331810347    0.0735806227
 H   -0.4926054889    1.8464638660   -1.0143205062
 H   -0.7351988360    1.9079087541    0.7395805942
 H   -0.9918426671   -0.3807534511    0.0452847543
 H    1.5273043798   -2.3580818159   -1.4854325108
 H    0.1082864606   -2.5505046374    0.5773675634
 H    1.7615181807   -2.5561683870    1.2456987460
 H    0.2319682655   -0.5416629251    2.1345527113
 H    2.7024083908    1.0658599654   -0.2063821827
 H    3.9333863447    0.3655942371    0.8500203555
 H    3.6284259833   -1.8346975608   -0.1285937323
 H    3.4323470556   -0.7339463577   -1.4991336025