19

 C    0.0486059039    1.5815735176    0.0695646346
 C   -0.0111439435    0.0432715700    0.0245595639
 C    0.7681684790   -0.5217113889    1.1314359149
 N    1.4143790666   -0.9561665164    1.9853522565
 C   -1.4749128361   -0.5259583306    0.0243867281
 C   -1.4480123296   -2.0652473697    0.0515724349
 N   -2.1591972125   -0.0565728566    1.2395676474
 C   -2.1407984805   -0.0745624625   -1.2117762179
 C   -2.7082853469    0.3001448948   -2.2042296538
 H    1.0819526612    1.9240536389   -0.0204974120
 H   -0.5316223164    1.9985227976   -0.7569375052
 H   -0.3470193472    1.9578957363    1.0159980412
 H    0.4576445233   -0.2967644005   -0.9064410937
 H   -1.0020285977   -2.4106294512    0.9867914719
 H   -2.4658288598   -2.4581606960   -0.0250477983
 H   -0.8720897201   -2.4590368449   -0.7894403467
 H   -2.4235791092    0.9186036916    1.1379616801
 H   -3.0264398789   -0.5724789537    1.3556574040
 H   -3.2147665256    0.6257909444   -3.0794565799