18

 C   -0.0074421783    1.5759497653    0.0920812453
 C    1.4612414297    1.9312791928   -0.0351326805
 C    2.4581180341    1.0993906739    0.6930492828
 C    2.0294044055   -0.1358214151    1.4524362745
 C    0.6085675985   -0.6412240291    1.2655723708
 C    1.7477805544   -1.2373706816    0.4596228483
 C    1.3402697756   -0.3466606210   -0.7431856291
 C    0.0248403230    0.0525756132    0.0316653489
 N    2.2152160676    0.8617254818   -0.7543338750
 H   -0.4546419434    1.9511426499    1.0195755632
 H   -0.5656957920    2.0049677871   -0.7478347038
 H    1.7242821203    2.9499422641   -0.3099859865
 H    3.4244560227    1.5271281001    0.9482499584
 H    2.5200435191   -0.3771257188    2.3873590408
 H    0.0469756628   -1.0756158058    2.0848927893
 H    2.1805955552   -2.2285516219    0.4626886878
 H    1.2514969634   -0.7874082423   -1.7340586562
 H   -0.8840411081   -0.4221573124   -0.3402945791