15

 C    1.1123379887   -0.6802854849   -0.5228238622
 C    0.6644787953    0.3544779867   -0.1048771157
 C    0.1389354363    1.6313475386    0.3858324908
 N    0.7288417500    2.8554132865   -0.1434885960
 C    1.6614814629    2.7857634624   -0.9786854320
 O    2.1860926728    3.9399032560   -1.4759956288
 C    3.2644710310    3.7866936013   -2.3799516560
 C    4.5322534113    3.4626372764   -1.7055118527
 N    5.5268426488    3.2002058596   -1.1805423542
 H    1.4959148465   -1.6068883510   -0.8733766125
 H   -0.9403141306    1.6776314439    0.1910935469
 H    0.2378792781    1.6672002817    1.4784182795
 H    2.1097785426    1.8659631684   -1.3716412153
 H    3.0560404856    3.0158584854   -3.1331921167
 H    3.3682944006    4.7438062990   -2.8966897850