8

 O   -0.0741144673   -0.0231510040    0.0023794708
 C   -0.0235794317    1.1749392893    0.0072122223
 C    1.3248093181    1.9310547610   -0.0004968656
 O    2.3725549230    1.3449790066   -0.0130249502
 C    1.2634412197    3.4757472154    0.0086688480
 O    2.2578994749    4.1458366911    0.0031851498
 H   -0.9389354286    1.8052931630    0.0174010542
 H    0.2472664920    3.9258303976    0.0204489006