21

 C   -0.8189343658    1.0646167455   -0.0910426175
 C    0.2507845639   -0.0041048321    0.0701751811
 C    1.5118354010    0.0588596474   -0.8397694333
 C    2.3990843870   -0.2779048641    0.3915804639
 C    1.1880680594    0.0629746567    1.3112105764
 C    2.8396165879   -1.7520580178    0.4257642854
 O    3.6052681747   -2.0783636185   -0.7022984010
 C    3.6266823040   -2.0368058951    1.6878122597
 O    4.7544010809   -2.4696173802    1.6492672267
 H   -0.3838707929    2.0686668980   -0.0249186465
 H   -1.3188517518    0.9821112279   -1.0626008699
 H   -1.5870275667    0.9822587750    0.6862858581
 H   -0.2118033356   -0.9949945226    0.0034199146
 H    1.5707996498   -0.6290736957   -1.6854012745
 H    1.6993361106    1.0737963618   -1.2030418755
 H    3.2861025867    0.3510596099    0.5120557143
 H    1.2607152592    1.0774101595    1.7143650812
 H    0.9691230726   -0.6168527853    2.1407417081
 H    1.9327905932   -2.3849527986    0.4679224011
 H    4.4528675488   -2.4021219245   -0.3577678803
 H    3.1228143831   -1.8172090973    2.6499489378