18

 C   -0.0938945471    1.5836559605    0.0003224038
 C    0.0363577692    0.0696892789    0.0005108221
 O   -1.2289000975   -0.5639255745   -0.1110790987
 C    1.1069018032   -0.5664811655   -0.9527664744
 C    1.7656806086   -1.2921629537    0.2587476795
 C    0.7409371192   -0.6103408587    1.2201276745
 N    1.8659151206    0.1096001543    1.8089514534
 C    2.8253889004   -0.4121495326    0.9568574876
 O    3.9982421004   -0.1919355128    0.8252353575
 H    0.8698366071    2.0679423695    0.1811337474
 H   -0.4603153671    1.9358777714   -0.9717923341
 H   -0.8038503940    1.9059826199    0.7687210637
 H   -1.6183370021   -0.3090767858   -0.9547936939
 H    0.6458437624   -1.2538469303   -1.6645302918
 H    1.7623819277    0.1227163187   -1.4904650289
 H    1.9395597691   -2.3639582392    0.2057625210
 H    0.0871152618   -1.1390029778    1.9136241837
 H    1.8914901580    0.9495094476    2.3710039975