21

 C   -0.2722780501    1.4663026063    0.2662030201
 C    0.0968908997    0.0310425584   -0.0821904054
 C   -1.0873445943   -0.9833355952    0.0282635542
 C   -0.4701207935   -1.5681131014    1.3279898254
 O   -0.4246278345   -2.9621415403    1.4976497497
 C    0.8526395716   -0.7931645408    1.0271299653
 C    1.8772084538   -1.5664704765    0.2440030676
 C    1.9131663894   -1.2136979245   -1.0433340440
 C    0.9346396304   -0.1125569132   -1.3755488930
 H    0.6225259827    2.0891671971    0.3775459136
 H   -0.8952133026    1.9144315536   -0.5170133293
 H   -0.8350802836    1.5210813751    1.2045926879
 H   -2.0916578166   -0.5589396132    0.1101916953
 H   -1.0880221819   -1.7166693974   -0.7844699887
 H   -0.9625793412   -1.1803461764    2.2240508811
 H    0.0501226750   -3.3261427011    0.7413179254
 H    1.2866808743   -0.2560157730    1.8779867855
 H    2.5176001572   -2.3145450187    0.7002622481
 H    2.5855151094   -1.6360319904   -1.7834241373
 H    0.3056693645   -0.3528627774   -2.2431357775
 H    1.4646803202    0.8164911792   -1.6319970940