16

 C   -0.1044737701    1.4332026627   -0.0034946104
 N   -0.0289535700   -0.0180972729    0.0491522846
 N   -0.0660069607   -0.7312015510   -1.0900287881
 C    0.0217450065   -1.9958784332   -0.6641333761
 C    0.0191137294   -3.1538392430   -1.6041673639
 N    0.1118719009   -2.1201623296    0.6800883047
 C    0.0780148350   -0.8640851580    1.1105398892
 C    0.1426049263   -0.4005026103    2.5061958868
 O    0.2368417085   -1.1291322398    3.4617047707
 H    0.7884945768    1.8859071993    0.4346679672
 H   -0.1702493372    1.7080071352   -1.0551094394
 H   -0.9907375621    1.7970195676    0.5225870400
 H    0.9381276634   -3.7378089120   -1.4971441338
 H   -0.8184795565   -3.8233432053   -1.3867544901
 H   -0.0626565082   -2.8041383318   -2.6344410609
 H    0.0969047178    0.7045381720    2.6231949495