23

 C   -0.0449644348    1.4023201386    0.2046912721
 O   -0.0360285172    0.0175276925   -0.0387838172
 C   -1.3193413753   -0.5628481414    0.0431494118
 C   -1.1883344940   -2.0598589901   -0.2480998839
 C   -2.4894331416   -2.7981396686   -0.1324529050
 C   -3.1831817463   -3.3571732239   -1.1268117415
 C   -4.4242120669   -4.0711426701   -0.6501352116
 C   -4.5656696224   -3.5785443627    0.8133460763
 C   -3.1614893531   -3.0573154099    1.2055035461
 H    0.9851468891    1.7576793401    0.1206000263
 H   -0.6676969373    1.9437299153   -0.5257362585
 H   -0.4206299888    1.6392825736    1.2133632048
 H   -1.7507079909   -0.3960507617    1.0449083094
 H   -2.0043363837   -0.0953945966   -0.6844720781
 H   -0.7697183283   -2.1792752654   -1.2526850744
 H   -0.4534666586   -2.4714770175    0.4565678012
 H   -2.8760332073   -3.3504155560   -2.1680231786
 H   -5.3099423081   -3.8449208893   -1.2550000861
 H   -4.2894783359   -5.1614191735   -0.7044415938
 H   -5.2813087922   -2.7508472502    0.8480940789
 H   -4.9362308466   -4.3528701948    1.4898666881
 H   -2.5878287100   -3.8065085832    1.7715203391
 H   -3.2100218898   -2.1697163352    1.8466367446