18

 C   -0.4098847163    1.4818184553    0.3168390907
 C   -0.0032942983    0.0550366622    0.0523327113
 N    1.3741247057   -0.1735712369   -0.3907766532
 C    0.9524732683   -0.6910429724    0.9370506952
 C    1.5541292752   -0.1047852098    2.1028237320
 C    2.0542504576    0.3556051034    3.0978816474
 C    2.6149364311    0.9532592041    4.3000747909
 C    1.6031206057    1.8276600657    5.0455049656
 O    1.8902911749    2.8522002944    5.6011751252
 H    0.4024694417    2.0289288011    0.7996797548
 H   -0.6565627783    1.9894325526   -0.6213962067
 H   -1.2908437207    1.5194592140    0.9662528734
 H   -0.7765198993   -0.5672735688   -0.3976448699
 H    1.4185226223   -0.9462881190   -1.0502303588
 H    0.7824739641   -1.7633975445    1.0134126712
 H    2.9279610747    0.1660148735    5.0036441034
 H    3.5020360963    1.5598187941    4.0897369939
 H    0.5661908454    1.4265050610    5.0443542937