20

 C   -0.1290547885    1.4721825297    0.1902998999
 C   -0.0802691552    0.0208685488    0.0808747464
 C   -0.0473916175   -1.1804110992   -0.0003886280
 C    0.0074911965   -2.6351150737   -0.1383896888
 C   -1.2987792891   -3.2009342751   -0.7261291451
 C    1.2452341976   -3.0252459835   -0.9879212134
 N    1.4818978950   -4.4575060360   -1.0400356983
 C    1.2598744223   -5.2147507099   -2.1494853389
 O    0.8240468798   -4.8047694975   -3.2036812095
 H    0.6029006886    1.9460581085   -0.4730852565
 H   -1.1180441522    1.8584254524   -0.0800325719
 H    0.0876340854    1.8031995436    1.2120648479
 H    0.1476528245   -3.0703877318    0.8627693400
 H   -1.4735354700   -2.8023430753   -1.7291016308
 H   -1.2473528944   -4.2906371267   -0.7955304627
 H   -2.1499738593   -2.9326595661   -0.0953561416
 H    1.1058227529   -2.6907991656   -2.0180150466
 H    2.1306101655   -2.5243471847   -0.5833558652
 H    1.8540782368   -4.9180954682   -0.2245377163
 H    1.5307760414   -6.2762323798   -1.9791619405