16

 O    0.0432786635    0.0082943764    0.4801897123
 C    0.0690705152    1.2122470801    0.3123407670
 N    1.1730796205    1.9171177096   -0.0268702798
 C    2.4830890179    1.2747262528   -0.1763415244
 C    3.4050581863    2.4299175409   -0.6021910540
 C    2.7243860310    3.6759278678   -0.0069978968
 C    1.2317181752    3.3693520378   -0.1940266149
 H   -0.8252297192    1.8587886028    0.4251657343
 H    2.7893014329    0.8290349530    0.7777696150
 H    2.4348935261    0.4641398232   -0.9088520441
 H    4.4310088555    2.2922132376   -0.2543716197
 H    3.4331635781    2.5060651456   -1.6946321353
 H    2.9549167076    3.7594236448    1.0605759051
 H    3.0247436823    4.6078326352   -0.4910958110
 H    0.8983031422    3.6684138744   -1.1982544162
 H    0.5914649249    3.8749350582    0.5348027326