19

 O    0.1711573637    1.4221371523   -0.0775391616
 C    0.0347661533    0.0285291096    0.1069040419
 C   -1.3861083671   -0.4768734942    0.1349740039
 C   -2.4447966852    0.3390326858    0.1201262293
 C   -3.8276110619   -0.1942559103    0.1225364166
 O   -4.1527456308   -1.2095959694   -0.8632048057
 C   -4.0435423693   -1.6010923795    0.5025436084
 C   -2.8363908840   -2.4250290759    0.8908270718
 C   -1.5648070884   -1.9777889581    0.1432848231
 H   -0.2166966654    1.6386821109   -0.9322803283
 H    0.6002080544   -0.5371329156   -0.6550826870
 H    0.5204241559   -0.1962407885    1.0664893517
 H   -2.3083287513    1.4153113322    0.1257097534
 H   -4.6314392613    0.5221374885    0.2784364473
 H   -4.9876768830   -1.8787947508    0.9734253659
 H   -2.6951316064   -2.3154868807    1.9742106655
 H   -3.0227821471   -3.4881533000    0.7026350349
 H   -1.6189728100   -2.3330491497   -0.8929240210
 H   -0.6869246961   -2.4622570166    0.5876237298