22

 C    0.7153123647    1.6287795598   -0.4921974570
 C    0.0794724536    0.3552581993    0.0854898966
 C    0.0838446541   -0.7881611579   -0.9432195737
 C    0.8729014141   -0.0867099712    1.3176943237
 O    2.0746414623   -0.3073152353    1.2736366971
 N    0.1777472881   -0.2291628342    2.4731905600
 C   -1.2272583984   -0.1339579464    2.8837996212
 C   -0.7924287112   -0.5991870100    4.3044590102
 C    0.6677916181   -0.6902598339    3.7719462824
 H    1.7716907726    1.4484576288   -0.7076556289
 H    0.2117598090    1.9272947804   -1.4170616296
 H    0.6530185901    2.4637329593    0.2131937213
 H   -0.9566562189    0.5710938320    0.3710412217
 H    1.1136814557   -1.0574733053   -1.1935452357
 H   -0.4140514984   -1.6825969833   -0.5543894598
 H   -0.4320126638   -0.4846587143   -1.8595272148
 H   -1.6456519628    0.8774234660    2.8291049718
 H   -1.8982655087   -0.8199145087    2.3542886652
 H   -0.9459305999    0.1430256819    5.0880434074
 H   -1.2239293661   -1.5482854896    4.6228553831
 H    1.1042157984   -1.6938934690    3.7418183306
 H    1.3911308474   -0.0115751482    4.2349444274