18

 N    0.6945094806   -0.2489097590   -0.4708804779
 C   -0.1373582444    0.2105445845    0.4842101433
 O    0.2199136960    0.9055680067    1.4304294701
 C   -1.6093512402   -0.1864850806    0.3019052132
 O   -1.7672038349   -1.1671791165   -0.7164894447
 C   -2.0889671095   -2.4488334166   -0.1262964534
 C   -1.8778537722   -2.2930154759    1.3768993479
 C   -2.2225559775   -0.8062494705    1.5895194702
 O   -1.8114994935   -0.2552051648    2.8044048927
 H    1.6689096631    0.0010829463   -0.4444702834
 H    0.3136514618   -0.7965490719   -1.2249759896
 H   -2.1447590830    0.7231453350    0.0060891929
 H   -3.1327095609   -2.6876907473   -0.3671337883
 H   -1.4512757437   -3.2095302190   -0.5868778344
 H   -2.5072436516   -2.9607920518    1.9681178529
 H   -0.8330077155   -2.4643289535    1.6576504656
 H   -3.3134883035   -0.6925683841    1.5121746849
 H   -1.0165629311    0.2810228691    2.6305631281