15

 O    0.2660200601    1.2924522549    0.0135705723
 C   -0.0008879085   -0.0804578483   -0.0012595003
 C   -1.5235945285   -0.2768690743    0.0159086694
 O   -2.3173176181    0.6200598705    0.0296261346
 N   -1.8591598846   -1.6377672239    0.0125483991
 C   -3.1225564470   -2.2206142521    0.0204514046
 N   -4.2222713782   -1.5869315847    0.0310760351
 C   -3.0612498947   -3.7393878277    0.0148246968
 O   -4.0495453978   -4.4207985163    0.0198889238
 H    1.2198631233    1.4132583708   -0.0046153680
 H    0.3977552722   -0.5817086606   -0.9009515867
 H    0.4220762567   -0.6054384465    0.8735191661
 H   -1.0845215525   -2.2855999641    0.0027402474
 H   -4.9758796353   -2.2812082195    0.0345835206
 H   -2.0433406072   -4.1945448281    0.0057743851