18

 C    0.9498118091    0.7646072210    0.0001819434
 C   -0.3576835563    0.0026952025    0.0143251944
 O   -1.1487105544    0.0694036356    0.9269527439
 C   -0.6159272605   -0.9206676597   -1.1776647623
 C   -0.0800866283   -2.3231847060   -0.8914847509
 C   -0.0582913698   -3.3426606439   -2.0521167706
 C    1.4595545010   -3.3975084949   -1.7874059897
 O    1.3658885184   -2.3591126857   -0.7878191229
 H    1.7720675998    0.0579148786   -0.1568349480
 H    0.9659690704    1.4656546564   -0.8429997022
 H    1.0807410128    1.3114131200    0.9346816628
 H   -1.6982737765   -0.9879350919   -1.3272372971
 H   -0.1450526385   -0.5373385030   -2.0893202359
 H   -0.5415732747   -2.7036099037    0.0292755792
 H   -0.6127298115   -4.2671601087   -1.8868730619
 H   -0.3376842702   -2.9226367509   -3.0204382669
 H    1.8237770655   -4.3394083571   -1.3592482560
 H    2.1143710037   -3.1092069887   -2.6174473391