18

 C   -0.1743223150    1.2898669038   -0.3005107613
 C    0.0374230894   -0.0574891128    0.3126470199
 C   -0.9615061852   -0.9183366214    0.6279735641
 C   -1.7891824349   -1.3673349161   -0.5829958057
 N   -0.8075733918   -2.5441693833   -0.6855414358
 C    0.6489021577   -2.2556843423   -0.2340384257
 C   -0.4427525817   -2.3552016230    0.7408367049
 C    1.3031848640   -0.8832855626   -0.0103925582
 O    1.9635838778   -0.4130915633   -1.1704895184
 H    0.2919815280    2.0771061486    0.3085623017
 H    0.2704385154    1.3510400427   -1.2988610818
 H   -1.2405289417    1.5265627148   -0.3633966627
 H   -2.7684918013   -1.8180486953   -0.3948173737
 H   -1.8381868004   -0.6946569607   -1.4442795082
 H    1.2684208798   -3.1029315254   -0.5112154010
 H   -0.6213029007   -3.1004293150    1.5076787975
 H    2.0287433768   -1.0046365869    0.8118429323
 H    2.5839934537    0.2753223284   -0.9111601377