19

 C    0.1005581045    1.5443937888    0.0692465942
 C    0.0223828459    0.0187801182    0.0488321381
 O    0.6523794387   -0.4397089909    1.2507964560
 C   -1.4499699124   -0.3942198410    0.1613857290
 O   -2.0756656935   -1.0714067580   -0.6122086170
 C    0.7652144470   -0.5306164937   -1.1742055684
 C    0.6048140894   -2.0145626136   -1.5885265037
 C    0.0039759689   -1.4315297986   -2.8836835719
 O    0.1994772767   -0.0744396684   -2.4168672236
 H    1.1424947594    1.8481301529    0.2054491538
 H   -0.2719672331    1.9499137444   -0.8740873131
 H   -0.4846864099    1.9538051152    0.8979423273
 H    0.6715810117   -1.4039879355    1.2316976320
 H   -1.9054634212   -0.0262973878    1.1096056137
 H    1.8124817484   -0.2128144802   -1.0707491307
 H    1.5460273622   -2.5522311983   -1.7108099462
 H   -0.0856397933   -2.6100764348   -0.9921154842
 H    0.5718881932   -1.6251940496   -3.8005926069
 H   -1.0548957628   -1.6493882093   -3.0456007384