17

 C    0.0125833201    1.5262767648    0.0183919709
 C   -0.0198299061    0.0259121471   -0.0071031153
 C    0.0415127993   -0.6598133412   -1.1577672845
 C    0.0475272893   -2.1209708751   -1.3310048254
 O    0.4684787711   -2.6547853179   -2.3398845180
 N   -0.5095128453   -2.9289823278   -0.3254388320
 C   -1.3310827047   -2.5670445939    0.7421895350
 N   -1.2513036497   -1.5525845801    1.4959610386
 C   -0.0933347254   -0.6723094819    1.3357158797
 H    0.8575897324    1.8851843237    0.6195716226
 H    0.0923621783    1.9538662061   -0.9834175054
 H   -0.8946712247    1.9171459822    0.4958110499
 H    0.1602928132   -0.1361060056   -2.1009341585
 H   -0.5941651026   -3.8842579019   -0.6501617237
 H   -2.1250968250   -3.2920147148    0.9291329934
 H    0.8293474375   -1.2556837060    1.4835854785
 H   -0.1331567675    0.0731798824    2.1338921340