17

 C   -0.0309706391    1.6202934146    0.2495116368
 C    0.0274327561    0.0956356759    0.1041919190
 C    0.7794291357   -0.3856302917   -1.1557254535
 O    1.6064182917   -1.4703778340   -0.7166926213
 C    1.7484022470   -1.4224951360    0.6433667260
 N    2.5837720487   -2.0685206666    1.3372389434
 N    0.7951769756   -0.5591880011    1.1477643676
 C   -1.4115405636   -0.4500221092    0.1458834033
 O   -2.0475710102   -0.7873134748   -0.8160203366
 H    0.9807878997    2.0322989946    0.3072001008
 H   -0.5471965207    2.0670209085   -0.6055491249
 H   -0.5738155825    1.9099144239    1.1561351787
 H    0.0902191998   -0.7466820668   -1.9203481908
 H    1.4133624662    0.4065578960   -1.5704140879
 H    3.1945149314   -2.6148883770    0.7347557898
 H    0.9321566693   -0.1665885646    2.0633181027
 H   -1.8248046053   -0.5123034817    1.1779894570