16

 N   -0.0287206717    1.3170943087   -0.0123757515
 C    0.0164762574   -0.0604500624    0.0715569531
 O    1.0866357383   -0.6436791616    0.2170004877
 C   -1.2682347974   -0.7624021585    0.0245138891
 C   -2.5500607751   -0.2337104728    0.1140479928
 N   -3.4286523804   -1.2622032471    0.0718473518
 C   -2.7555722275   -2.4688293202   -0.0454972682
 C   -1.4054607640   -2.1917484761   -0.0740277394
 N   -0.3441514271   -3.0738837419   -0.2458191493
 H    0.8717036886    1.7547111085   -0.1382231366
 H   -0.7949859730    1.7456984420   -0.5057042069
 H   -2.8853340693    0.7817753557    0.2517381942
 H   -4.4263452817   -1.1703224767    0.1429511069
 H   -3.2897034783   -3.4021880937   -0.1061212970
 H   -0.4929767202   -3.9892971244    0.1532371423
 H    0.5286350115   -2.6521611795    0.0522526110