21

 C   -0.0392662017    1.5195821614    0.0247023254
 C    0.0110844796    0.0204799343   -0.0149284630
 C    0.5204302775   -0.9549649541   -1.0889309144
 C    1.3257733555   -1.7342686940   -0.0526045698
 C    0.6397809398   -0.8802626352    1.0711084411
 O   -0.2798164644   -1.5252161476    1.9305996627
 C   -1.1252440371   -2.4490300737    1.2601424177
 C   -1.8134038639   -1.8641149311    0.0122097774
 C   -0.9556263643   -0.8606951170   -0.7468817369
 H    0.9477132502    1.9520669795    0.2280085053
 H   -0.3909595968    1.9276255446   -0.9291096133
 H   -0.7217316181    1.8733945713    0.8070166443
 H    0.8619287841   -0.7180352842   -2.0906918166
 H    1.2227363580   -2.8218294448   -0.0188692618
 H    2.3914182674   -1.4955741854   -0.1060369721
 H    1.3473004610   -0.3679647425    1.7261446222
 H   -0.5554926493   -3.3487742153    0.9899428505
 H   -1.8736461543   -2.7532271328    1.9972227143
 H   -2.1323313404   -2.6886708564   -0.6371703716
 H   -2.7253176321   -1.3375668253    0.3206237852
 H   -1.5071026009   -0.3313956916   -1.5223168866