22

 O    0.2183876247    1.3135913234   -0.2823330138
 C    0.0499901788   -0.0682284769   -0.0334739187
 C    0.8124139589   -0.4641933547    1.2425197591
 C    0.5928518803    0.4586047638    2.4538036301
 C   -0.8305994189    0.5441034496    3.0329882108
 C   -1.8713125667    1.1688191184    2.0839230004
 C   -2.3521898365    0.1843642398    1.0347484345
 N   -2.3757884154    0.5996301619   -0.3841261193
 C   -1.4311977141   -0.4421133491    0.0544908600
 H   -0.6239700604    1.6087507953   -0.6643652503
 H    0.4758254989   -0.6439883003   -0.8737346697
 H    0.5447381759   -1.4997569222    1.4942918944
 H    1.8843862178   -0.4707121869    1.0123340560
 H    1.2673679355    0.1243236401    3.2517674152
 H    0.9180298653    1.4664008613    2.1747931226
 H   -1.1704919816   -0.4537334272    3.3450583761
 H   -0.7852241321    1.1458278726    3.9487779601
 H   -2.7349703991    1.5233838507    2.6590812327
 H   -1.4358734497    2.0409545279    1.5896061662
 H   -3.1797604096   -0.4470468120    1.3563532501
 H   -3.1677426816    0.2050872596   -0.8818271539
 H   -1.6454946602   -1.4702385552   -0.2307847527