16

 C   -0.3332439882    1.3349123951   -0.1376678548
 N   -0.0864529430   -0.1110228783   -0.0445633189
 C    0.1676224116   -0.7120227181    1.2219370549
 C   -0.0119488741    0.1903209631    2.4309299397
 O    0.5251104216   -1.8558587693    1.3286945299
 C   -0.0708953976   -0.8941086362   -1.2021620002
 O   -0.2619925338   -2.0851815812   -1.2509392834
 C    0.3178519670   -0.2337269142   -2.5409430531
 O    0.8907334783    0.8125477109   -2.6820493155
 H    0.5822990982    1.9177159811   -0.0057871179
 H   -0.7482547405    1.5766437495   -1.1120467132
 H   -1.0625920364    1.6314614162    0.6175434265
 H   -1.0532445983    0.5104906417    2.5397057384
 H    0.2756646157   -0.3897968243    3.3066504200
 H    0.6069548956    1.0901670907    2.3720964059
 H    0.0828818440   -0.9229744967   -3.3766552883