18

 C   -0.1172418649    1.5625544736    0.0945997370
 C    0.0398903517    0.0521028912   -0.0052192924
 C    0.9060028455   -0.4647998916   -1.1982749461
 C    1.6155822147   -1.6780188718   -0.5978044184
 C    1.1085656859   -1.9194976933    0.7750869923
 C    2.5501999847   -1.4560924492    0.6326921454
 C    2.1069295030   -0.1763886653    1.2575405062
 O    2.6221378442    0.8120573655    1.6895368021
 N    0.6941069016   -0.5517027392    1.1975032267
 H    0.8510276640    2.0569054145    0.2046825554
 H   -0.6034003344    1.9480291718   -0.8071217197
 H   -0.7322549317    1.8281949266    0.9585268815
 H   -0.9510565403   -0.4120362267   -0.0668769919
 H    0.2863222713   -0.7578482737   -2.0511304103
 H    1.6107378400    0.2974636268   -1.5472313822
 H    1.9094801914   -2.5119888120   -1.2263376578
 H    0.7078092894   -2.8135811798    1.2305072485
 H    3.4828853040   -1.9937044372    0.7451511537