15

 O    0.0521519758    1.5512699055    0.4031795777
 C    0.0798063388    0.1690953080    0.1238939294
 C   -1.3337675369   -0.4460756166   -0.0071787507
 C   -1.4099193839   -1.9776712163    0.0359059220
 O   -2.1104851897   -1.9197075826    1.3246229663
 C   -2.0931183159   -0.5529426424    1.3422185499
 O   -2.5363568854    0.1822046046    2.1596445927
 C   -2.1522403657    0.2253725994   -1.0889580463
 O   -2.6882565211   -0.3593293368   -1.9951440965
 H    0.0593032790    2.0421254704   -0.4230753276
 H    0.6505868221   -0.0595042599   -0.7871538785
 H    0.5928313903   -0.3172740156    0.9605513089
 H   -2.0369903708   -2.4275370458   -0.7333345600
 H   -0.4607400036   -2.5073621575    0.1393322657
 H   -2.2313106830    1.3260869156   -0.9782626030