20

 C    0.1140187926    1.4392369876    0.0899926401
 N    0.0880592773   -0.0115213804    0.0436829459
 C    0.4545361453   -0.6036536381   -1.0192875583
 O    0.9180674095    0.0848985527   -2.1106350621
 C    0.8883255405   -0.6038214656   -3.3635862683
 C    1.5521713598   -1.9732210727   -3.2825712886
 C    0.9948735775   -2.7473640988   -2.1129505969
 C    1.0899489932   -4.2431557602   -2.1474198218
 C    0.4605248326   -2.0665975392   -1.0904599228
 H    1.0857445525    1.7885882448    0.4649767791
 H   -0.0534847515    1.9160718424   -0.8831037174
 H   -0.6460708252    1.7842296756    0.7974809092
 H   -0.1553270277   -0.7173803134   -3.6876899390
 H    1.3972152111    0.0552931565   -4.0709496158
 H    1.3798951915   -2.5116427617   -4.2228046102
 H    2.6417552505   -1.8695546344   -3.1805984204
 H    2.1337249168   -4.5655530126   -2.2575208125
 H    0.6866203683   -4.6956061886   -1.2382295000
 H    0.5474926426   -4.6535162223   -3.0089718742
 H    0.0501161027   -2.5627408516   -0.2185215658