17

 C    0.0870869081    1.5099332214   -0.1361711046
 O    1.4863303223    1.3898135340    0.2675698592
 C    1.2353567968    0.0526814168    0.7545629783
 C    1.8416334623   -1.2219118946    0.1550261966
 O    1.8944530252   -0.9339464233   -1.2601737158
 C    0.4718742265   -0.9743155002   -1.1939540810
 C    0.4295303081   -1.9954771249   -0.0447366529
 C   -0.7817455375   -1.2233656087    0.5796171543
 C   -0.0607475110   -0.0125335977   -0.0403381921
 H   -0.4910870401    2.0922532037    0.5931033722
 H   -0.0112683965    1.9553123229   -1.1314858704
 H    1.1488094191    0.0265465456    1.8473917512
 H    2.7437495348   -1.6894112742    0.5465542668
 H   -0.0548693280   -1.0311879298   -2.1457865627
 H    0.4532406693   -3.0738004484   -0.1897822354
 H   -1.7001995868   -1.5388660247    0.0749592026
 H   -0.9356479225   -1.2154807278    1.6610074438