19

 C   -0.2711142243    1.4914068477    0.0917364850
 N   -0.1044625849    0.0452025807    0.0005257463
 C   -1.1054218638   -0.8849090399    0.6535577476
 C   -0.0190024572   -1.9817635746    0.4828406634
 C    0.6710331416   -0.7152388701    1.0634061843
 C   -0.5038604188   -0.6269556751    2.0820811959
 C   -0.7264705064    0.6018579731    2.9446756470
 N   -2.0398252743    0.9073526734    3.1755694272
 O    0.1893551477    1.2039909039    3.4718985322
 H    0.6827900348    1.9607035559   -0.1697963343
 H   -1.0049507874    1.7947380626   -0.6634336230
 H   -0.5879276653    1.9007554254    1.0576406976
 H   -2.1525728158   -0.9201959101    0.3422044923
 H   -0.0838526643   -2.8594156569    1.1274963136
 H    0.2379970485   -2.2120996875   -0.5498021579
 H    1.7298759667   -0.5360277916    1.2482361949
 H   -0.5781146915   -1.4920654789    2.7534812350
 H   -2.7846324662    0.4743352054    2.6586104495
 H   -2.2497266592    1.7096837065    3.7471367736