18

 C   -0.0052689763    1.5832100478    0.0091839404
 C    1.5246925458    1.5956152996   -0.0781678848
 C    2.1933515141    0.7243810899    0.9633937079
 C    1.6945959339    0.4346827507    2.3677456651
 O    0.2903140444    0.2674365692    2.4717003409
 C   -0.2727685566   -0.5481162191    1.4550866137
 C    0.0350362044    0.0179657323    0.0719974248
 C    1.5513965928    0.0710042002   -0.2228902024
 H   -0.4726125451    2.1032409355    0.8482956162
 H   -0.4545232247    1.9274253313   -0.9258661897
 H    2.1065760372    2.3272231005   -0.6271836212
 H    3.2791277744    0.7714446027    0.9102439037
 H    2.2084993364   -0.4740549809    2.7302491089
 H    1.9451698916    1.2509370242    3.0543432070
 H    0.0962899489   -1.5856088898    1.5338892516
 H   -1.3495273305   -0.5547285345    1.6536810845
 H   -0.5613693481   -0.4764080703   -0.6972556132
 H    2.0854191975   -0.5506620493   -0.9312400934