17

 C   -0.0116851770    1.6038608361    0.0338731419
 C    0.0650816491    0.0895403340   -0.0793869141
 C    0.9146793645   -0.4420595620   -1.2498484009
 C    1.4333443197   -1.7902948111   -0.7580277574
 O    2.0064847606   -2.6392214686   -1.3760178513
 C    1.1074096082   -1.8489529128    0.7801039170
 N    0.6498391036   -0.5093632699    1.1458161106
 C    0.0703942377   -2.8608806794    1.0234462721
 N   -0.7558757928   -3.6526955278    1.1833022920
 H    0.9910549611    2.0420947904    0.1117694430
 H   -0.4963592287    2.0351436639   -0.8462197397
 H   -0.5833605512    1.8935067005    0.9198225350
 H   -0.9517653875   -0.3135227240   -0.1709630697
 H    0.3893855196   -0.5567593208   -2.2010074258
 H    1.7812687017    0.2090726449   -1.4284646540
 H    2.0084661647   -2.1396571705    1.3276422423
 H    1.4515112968    0.0410477371    1.4396086292