22

 C    0.1297994501    1.4804959448   -0.3410137109
 C    0.0718245313    0.0043304869   -0.0297085708
 N    1.3607534667   -0.7049345553    0.0906822821
 C    0.4830343697   -0.5781571775    1.2732103926
 C    1.0413893795    0.2339249608    2.4576275894
 C    0.6888151902   -0.5920019072    3.7151007534
 C    0.4862048950   -2.0269631822    3.1936582017
 O   -0.3083153373   -2.8554435216    4.0234711590
 C   -0.2182825206   -1.8030435013    1.8533410557
 H    0.9700657639    1.9547369503    0.1717636289
 H    0.2595640220    1.6435766815   -1.4163664327
 H   -0.7941914259    1.9834587709   -0.0339828336
 H   -0.7296865206   -0.5286911971   -0.5430955438
 H    1.2849717427   -1.6396145485   -0.3047441624
 H    2.1222562170    0.3421964627    2.3332546424
 H    0.6210435722    1.2425453680    2.5071379241
 H    1.4495370919   -0.5233376909    4.4989965682
 H   -0.2626777653   -0.2613369331    4.1477759537
 H    1.4693557067   -2.4924285509    3.0123453401
 H    0.1583887597   -2.9807797527    4.8555518544
 H   -1.2745243192   -1.5900428061    2.0635790382
 H   -0.1829447998   -2.6732155015    1.1909662300