16

 C   -0.1179233128    1.4484410401   -0.0104341568
 C    0.0166340307   -0.0357684336    0.0215599424
 O   -1.1585522126   -0.8227023487   -0.1721532247
 C   -0.5128620887   -1.9469173282    0.5201496586
 C    0.6517511645   -1.0404514518    0.9688505793
 C    1.2259923843   -0.8593466412   -0.4075155750
 O    1.0060278985   -2.0016545460   -1.2189982920
 C    0.0600734028   -2.7863235286   -0.5964776231
 N   -0.2874887809   -3.9469683739   -0.9397667510
 H    0.8494372937    1.9255356800    0.1715102154
 H   -0.4806841805    1.7726487602   -0.9915928190
 H   -0.8256912880    1.7916784589    0.7500227847
 H   -1.1702696672   -2.4504327080    1.2229342451
 H    1.1546421871   -0.9834142758    1.9243829652
 H    2.1852154207   -0.3907718075   -0.5834739498
 H    0.2355077384   -4.2550838459   -1.7619951592