25

 C   -0.1549623314    1.5900800904    0.2277929480
 C   -0.2704658123    0.0758796550    0.4191440655
 C   -1.2380900673   -0.5761203637   -0.5810455570
 C   -1.3529811138   -2.0875602581   -0.3951753331
 C   -0.2149308207   -2.8515518077   -1.0527006018
 O   -1.6889432337   -2.5232460391    0.9387230037
 C   -2.6539498757   -2.7485461830   -0.1047996338
 C   -3.9401037587   -1.9536909396    0.0350502879
 C   -2.9097563957   -4.2014966281   -0.4626675343
 H    0.5293660093    2.0321309578    0.9587607706
 H    0.2196975482    1.8389585087   -0.7716279300
 H   -1.1280333279    2.0804115605    0.3454864149
 H    0.7238312755   -0.3788430995    0.3292182307
 H   -0.6185667719   -0.1515451714    1.4324018715
 H   -2.2137907186   -0.0918753940   -0.4899208064
 H   -0.8958221903   -0.3817127824   -1.6061292656
 H   -0.1497010454   -3.8770650806   -0.6899575687
 H   -0.3384191532   -2.8686133194   -2.1413625649
 H    0.7423621417   -2.3656237088   -0.8378704621
 H   -3.7694056913   -0.9789206057    0.4916351529
 H   -4.4224377982   -1.8097454097   -0.9382829624
 H   -4.6429291763   -2.4992535590    0.6743264735
 H   -3.5274299415   -4.6687243005    0.3122388120
 H   -3.4595365778   -4.2700427484   -1.4081507020
 H   -1.9934850029   -4.7832152138   -0.5556018293