20

 C   -0.0359080840    1.6470558700    0.1185716207
 C    0.0135577173    0.1358583179   -0.0068876251
 N    0.9887432587   -0.3745946229   -0.9718034534
 C    1.2329964431   -0.6267989277    0.4657665646
 C    2.4255159506    0.0366845735    1.0593773385
 O    2.9440935665   -0.3229724857    2.0876891329
 C   -1.2869198103   -0.6146156657    0.1136702521
 C   -2.4750689191   -0.0908952968    0.8824526321
 C   -2.5383399324   -0.1811902355   -0.6195389071
 H    0.9212336062    2.0844960854   -0.1675795398
 H   -0.7970494691    2.0696352878   -0.5451032236
 H   -0.2680270668    1.9546146828    1.1424406669
 H    0.6484708883   -1.2235955002   -1.4176581662
 H    1.0442820309   -1.6168747879    0.8744985849
 H    2.8165746659    0.8969603167    0.4744182655
 H   -1.1430347152   -1.6911397825    0.1677475802
 H   -3.0471710790   -0.7975027416    1.4728945874
 H   -2.4043698494    0.8971034119    1.3223654660
 H   -2.5135165475    0.7439377761   -1.1841618294
 H   -3.1498607847   -0.9551275458   -1.0696015174