17

 O    0.2395286636    1.3626203999   -0.3031363535
 C    0.1224671653    0.0047361919   -0.1044677845
 C    1.1234294333   -0.8788158705    0.6195702471
 C    0.4190548717   -1.9147707454    1.4783740642
 C   -0.8240613144   -2.1094030999    0.6276420090
 C   -1.2056340601   -0.8107027248   -0.0896290008
 C   -0.5156478346   -1.9114088742   -0.8463451562
 O   -1.0226257121   -2.6604764536   -1.8850607598
 C    0.8112154356   -1.0942579356   -0.8647367544
 H    0.1058982510    1.8051821214    0.5431732435
 H    2.0858982487   -0.4557770873    0.8844833933
 H    0.9970199400   -2.8405701303    1.5854534278
 H    0.1909285249   -1.5355178747    2.4817368647
 H   -1.6171666716   -2.7967937734    0.8996343960
 H   -2.2113446071   -0.4249932111   -0.1809424496
 H   -0.6137578887   -3.5334024533   -1.8567965937
 H    1.5362099443   -1.0409715191   -1.6648030032