14

 C    0.1948884045   -0.3685603743   -1.0925805571
 C    0.0961010422    0.4341461251   -0.2045686500
 C    0.0086612946    1.4035260389    0.8886016178
 N    1.2430004045    2.1529963194    1.1183472885
 C    1.5598536664    3.2505929166    0.3892032055
 N    2.7398298627    3.8081784268    0.2793931794
 C    2.4418020241    4.8924731930   -0.5001159738
 N    1.1981976976    5.0252867074   -0.8677046306
 O    0.5831509010    3.8927892933   -0.2583580582
 H    0.2727969621   -1.0709408891   -1.8857378212
 H   -0.7879660118    2.1259707959    0.6923284317
 H   -0.2509980750    0.8921581555    1.8214734222
 H    2.0505237579    1.6216332429    1.4087855087
 H    3.1839274293    5.6145823387   -0.8111205130