18

 C    0.0583665919    1.6153783543    0.3722228152
 C    0.0326670329    0.1713546610    0.1947294548
 C    0.0051250379   -1.0262899744    0.0666939174
 C    0.0190169581   -2.4469085614   -0.1435370726
 N   -0.4486774439   -3.3418886679    0.9456784458
 C   -1.2657361593   -3.2647870225   -0.2480794905
 C   -2.6182377421   -2.6130184984   -0.1349649623
 C    1.1465264234   -2.9844802211   -0.9739009748
 O    1.4646448150   -4.1500578829   -0.9708736954
 H    1.0770589747    2.0075152337    0.2803704025
 H   -0.5629814356    2.1224964808   -0.3740764171
 H   -0.3159493490    1.8946612130    1.3630876014
 H    0.1406207962   -4.1753190832    0.8972037228
 H   -1.1939648917   -4.0978352136   -0.9460694411
 H   -2.5807626387   -1.7615989004    0.5469567538
 H   -2.9663315898   -2.2674740723   -1.1134509269
 H   -3.3467494490   -3.3342487718    0.2505277633
 H    1.6727726089   -2.2325173131   -1.5947506163