17

 C   -0.0447327286    1.5447345557   -0.0270558028
 C    0.0330603950    0.0222455953   -0.0338606042
 N    0.9451615028   -0.3751647457   -1.1569711615
 C    1.6418796075   -1.3300677337   -0.6905940253
 N    3.0333853405   -1.0127253057   -0.3083041009
 C    2.3438218124   -1.0384415077    1.0897970387
 C    0.7721390945   -0.6190008024    1.1680859642
 C    1.2339218686   -1.9396927648    0.7229025446
 O    0.7647382948   -3.1688776477    1.1122563194
 H    0.9591999546    1.9760349378    0.0024146677
 H   -0.5487543791    1.9084245578   -0.9261106680
 H   -0.6041071655    1.8860097055    0.8513340243
 H   -0.9821016225   -0.3984845165   -0.1009115662
 H    3.6133198892   -1.8592889901   -0.2823417490
 H    2.9685873360   -0.9508544483    1.9736267346
 H    0.4333842194   -0.4675647843    2.1916564825
 H    1.4191612603   -3.8412389752    0.8902242117