16

 O    0.0053672082    1.3138595245   -0.1068042096
 C    0.0918550680   -0.0935601810    0.0195787519
 C   -1.3038835815   -0.6499503301    0.2612100556
 O   -2.1655853230   -0.2954298349   -0.8611977965
 C   -2.3908882875   -1.6737913833   -1.2080337756
 C   -1.6065642519   -2.1520500339    0.0413516367
 C   -0.5038098096   -3.1551706871   -0.1632051623
 O    0.6421200055   -3.0166287096    0.1807911075
 H   -0.6418515253    1.4797658095   -0.8032317562
 H    0.5366340540   -0.5539058130   -0.8740394066
 H    0.7482383949   -0.3108480182    0.8656794940
 H   -1.7049792892   -0.2306648150    1.1908206887
 H   -3.4567904428   -1.9229664970   -1.2363491665
 H   -1.9363386684   -1.9400769929   -2.1716704471
 H   -2.2773027612   -2.5673686636    0.8023029914
 H   -0.8396395604   -4.0911322445   -0.6688126554