22

 C   -1.5652609245   -0.5919650783   -0.1777307753
 C   -0.1369619813   -0.0546777582   -0.0408248957
 C    0.6050644038   -0.4756125941    1.2563711439
 C   -0.1461264010   -0.0796884569    2.5365888762
 C    0.6878584637   -0.3024313970    3.7985588690
 O   -0.4911754046    1.2981277216    2.3866360614
 C    0.8597119778   -1.9833275527    1.2372931708
 N    2.0397781415   -2.3606446215    0.6618074905
 O    0.0690940628   -2.8002707027    1.6772629269
 H   -2.2218918383   -0.1500292754    0.5769422192
 H   -1.9730545915   -0.3352913807   -1.1604427837
 H   -1.6037097968   -1.6787632855   -0.0638766413
 H    0.4642334855   -0.3851520214   -0.8973619785
 H   -0.1532959278    1.0378475600   -0.0679951822
 H    1.5709742388    0.0473224475    1.2616219947
 H   -1.0506038308   -0.6984217635    2.5995293960
 H    0.1275231206    0.0098278384    4.6875746618
 H    0.9358680389   -1.3601172226    3.9214493243
 H    1.6128725760    0.2827024247    3.7593467178
 H   -0.9655123109    1.5679595130    3.1788391691
 H    2.6593045589   -1.6991848607    0.2282301365
 H    2.2037467092   -3.3438313038    0.5174566988