15

 C    0.0242754860    1.3846237405    0.2293562299
 O   -0.0297500157   -0.0442641367    0.1713296249
 C   -1.2279518265   -0.5946505506   -0.0759607481
 N   -2.2561032629    0.1623942186   -0.2471169001
 O   -3.4764793046   -0.4862893430   -0.5019446873
 C   -3.6084131102   -1.8598724992   -0.5730138292
 N   -4.7387368122   -2.3927179780   -0.8067533925
 C   -2.4047601046   -2.6491013117   -0.3694059156
 C   -1.2372160235   -2.0422651122   -0.1260775868
 H    1.0661799860    1.6285993587    0.4365484723
 H   -0.2929540769    1.8218958145   -0.7215605648
 H   -0.6261722153    1.7636616324    1.0226610018
 H   -5.4581924622   -1.6765224164   -0.9202910414
 H   -2.5206107749   -3.7238397099   -0.4274301239
 H   -0.3057017723   -2.5707451169    0.0342408708