19

 C    0.0583458782    1.5192745076   -0.0214371064
 C    0.0730562183    0.0099420033   -0.0015482576
 N   -0.7942372080   -0.7117834816    0.9705408614
 C    0.6635708804   -0.7384406686    1.1456461089
 C    1.3286128694   -2.0730123444    0.8901368585
 C    0.6173691815   -2.8181059922   -0.2443777921
 N    0.4569231320   -1.9518194915   -1.4035835127
 C    0.1221727058   -0.6289993679   -1.3739180473
 O   -0.0846078163    0.0152317672   -2.3885516746
 H    0.9421900491    1.9125839383   -0.5315567722
 H   -0.8166746756    1.8866798117   -0.5637626091
 H    0.0409223439    1.9171046967    0.9985589660
 H   -1.2176268950   -0.0326199053    1.5985640062
 H    1.0922448730   -0.1347689668    1.9434096291
 H    2.3795007043   -1.9022394643    0.6272550476
 H    1.3103388287   -2.6930159307    1.7936195886
 H    1.2066397576   -3.6885851426   -0.5470947171
 H   -0.3546629829   -3.1762078160    0.1137029050
 H    0.4104524858   -2.3673895329   -2.3217772223