17

 O    0.7926873235    0.5284046521    0.6860793756
 C    0.3599840746    1.5501143934    0.2476319205
 C   -0.8815770405    1.7912269995   -0.5984359175
 O   -1.0100097327    3.1940713332   -0.6657432136
 C    0.2317047047    3.7701324977   -0.2799471265
 O    0.9475464525    2.7640381236    0.4382423121
 C    1.0218248713    4.2736330239   -1.4634968684
 C    2.5075935032    4.4949161347   -1.3580156399
 C    1.9709474819    3.3869037048   -2.2295672431
 H   -0.7475836493    1.3299985545   -1.5869508244
 H   -1.7645023660    1.3519559177   -0.1250746020
 H    0.0130215194    4.5848316891    0.4198271318
 H    0.4541608622    4.9985353944   -2.0391842237
 H    2.9263331179    5.3756895674   -1.8310281156
 H    2.9907970182    4.2020770910   -0.4328380989
 H    2.1265130223    2.3700843030   -1.8877466122
 H    2.0083945168    3.5071806801   -3.3061243943