17

 N   -0.1997365933    1.4997553264   -0.0711978311
 C   -0.1113754725    0.0783828903   -0.0826036902
 C   -1.2591619427   -0.8665067649    0.3095689621
 C   -0.6219430044   -1.9000047238   -0.7185463530
 C    0.5521735690   -0.9140261881   -1.0797233856
 O    1.7577190891   -1.0438916574   -0.2007909046
 C    0.9022798440   -0.6364668495    0.8095714077
 N    0.5468299153   -1.2485198442    1.8568782505
 C   -0.9513700185   -1.1132367537    1.8184477579
 H    0.7146906484    1.9327441764   -0.1584527733
 H   -0.7761988492    1.8394741739   -0.8341553572
 H   -2.2886842426   -0.5784311136    0.0874971175
 H   -0.3227087771   -2.8735829382   -0.3279254283
 H   -1.2701684800   -2.0431466128   -1.5862779819
 H    0.8549482735   -0.7549043941   -2.1135245014
 H   -1.3350642448   -0.3057157606    2.4544985318
 H   -1.3631929241   -2.0580563160    2.1857450891