20

 C   -0.1103797818    1.4826985214    0.1935899147
 C    0.0395151859   -0.0178248096    0.0507750618
 C   -1.1899608100   -0.7307151485   -0.4800390024
 C    1.3762037671   -0.5919065621   -0.3491169105
 O    2.4309194935    0.3156580490   -0.5425794701
 C    0.8798738069   -0.7911968456    1.0675347244
 N    1.6046779683   -0.1123293582    2.0942989040
 C    1.3308521828   -0.2587817799    3.4167349927
 O    0.4451716652   -0.9498953514    3.8743703511
 H    0.8051440986    1.9598184923    0.5443147265
 H   -0.3715300409    1.9336641052   -0.7699887520
 H   -0.9111180007    1.7178399571    0.9030633144
 H   -1.4527947968   -0.3691709366   -1.4810448839
 H   -1.0337694487   -1.8123352086   -0.5459476873
 H   -2.0494804463   -0.5608751729    0.1777282105
 H    1.3853610424   -1.4462779295   -1.0245021817
 H    3.2548048370   -0.1834001972   -0.5263331770
 H    0.5212937543   -1.7644085416    1.3838909282
 H    2.3712105039    0.4758528646    1.8040179474
 H    2.0304291293    0.3286744320    4.0449294791