21

 C   -0.1017550230   -1.2340801742    0.0437249768
 C   -0.0741929940   -0.0322311995    0.0198111566
 C   -0.0153790480    1.4247160909   -0.0180274542
 C    1.4211878087    1.9917592893    0.0038829451
 C    1.4134761319    3.5214799381   -0.1284276608
 C    2.8401339593    4.0786668861   -0.2420157675
 C    3.7761478670    3.4418029500    0.7523095584
 C    3.4783775364    2.3365266047    1.4340270561
 C    2.1869248962    1.5775667324    1.2708289798
 H   -0.1372800938   -2.2948683854    0.0657603625
 H   -0.5291350272    1.7817627971   -0.9203037646
 H   -0.5766100403    1.8347574640    0.8333204610
 H    1.9547374123    1.5775278149   -0.8622694210
 H    0.8181632113    3.8283643632   -0.9965148146
 H    0.9250580607    3.9519676150    0.7565578820
 H    3.2253006254    3.9236988125   -1.2611832790
 H    2.8299285150    5.1668683546   -0.0996052106
 H    4.7373694874    3.9274251028    0.9042994889
 H    4.1912460465    1.9381070933    2.1524142741
 H    1.5509020895    1.7376183184    2.1563726864
 H    2.3830511688    0.4993949419    1.2488999648