16

 C    0.1138986126    1.5543032038   -0.1400471841
 C    0.1230085140    0.1030895703   -0.0400503562
 C    0.1224542762   -1.0983879868    0.0398782693
 C    0.0909740676   -2.5373627438    0.1444376937
 C   -0.1360499178   -3.1924415645    1.5350134671
 O   -1.2073480615   -4.0150629685    1.0179395794
 C   -1.2189503589   -3.3188647722   -0.2366267140
 C   -2.4248958436   -2.5066481496   -0.4266069588
 N   -3.3783526882   -1.8743768475   -0.5877819985
 H    0.8055500570    1.9047385439   -0.9135782831
 H   -0.8866656013    1.9206489910   -0.3928775075
 H    0.4092236929    2.0175445798    0.8075617419
 H    0.9416521738   -2.9895482367   -0.3725249469
 H    0.6863751004   -3.7961144693    1.9288954596
 H   -0.4908850360   -2.4937915278    2.2996471965
 H   -1.1187886571   -4.0049872619   -1.0846184785