16

 C   -0.0574452715    1.4056171198   -0.0333614354
 O   -0.0021827029   -0.0146076405    0.0027842570
 C   -1.1927632952   -0.6489414517    0.0201482080
 C   -1.3669440034   -2.0096506039    0.0542490302
 N   -2.7451972174   -2.1702733626    0.0601251198
 C   -3.3175016982   -0.9386796027    0.0298057977
 C   -4.7926185631   -0.7121436707    0.0264461833
 N   -2.3922641961    0.0068681299    0.0054259018
 H    0.9805405727    1.7434241298   -0.0438619441
 H   -0.5762255406    1.7628635036   -0.9292922534
 H   -0.5729616320    1.8081505389    0.8450965909
 H   -0.6794956835   -2.8359284320    0.0737137143
 H   -3.2318603191   -3.0501616116    0.0827460109
 H   -5.2720064043   -1.1169737787    0.9255292660
 H   -4.9797927557    0.3617318301   -0.0072925713
 H   -5.2766245795   -1.1736287276   -0.8423047557