15

 C    0.0419097398   -1.1085986650   -0.0140567368
 C    0.0029102529    0.0948617014   -0.0151890944
 C   -0.0561419020    1.5089010628    0.0240173112
 C    0.1345123857    2.4355608889   -1.1944788675
 C    1.0644901393    2.5442146771   -0.0154682211
 C    0.0629729734    3.5602630958    0.6080350347
 C   -0.7703060098    3.6062730316   -0.7143582633
 O   -1.9344409642    3.0419545013   -0.0736389196
 C   -1.0039229758    2.4462129707    0.8477292367
 H    0.0768116809   -2.1694850322   -0.0196059993
 H    0.3086628564    2.0411399629   -2.1854481972
 H    2.1315430747    2.4034562690    0.0683186467
 H    0.2584232091    4.4014849865    1.2663829831
 H   -0.9727259925    4.4646735908   -1.3521034187
 H   -1.4353887281    2.1093363784    1.7878875056