20

 C   -0.0277998942    1.0083205819   -0.7502339601
 C   -0.0451017592   -0.0641932704    0.3477274309
 O    0.3812243657    0.4747524413    1.5736513742
 C   -1.4264374590   -0.6786185018    0.4972060295
 N   -2.0632016266   -0.5364266428    1.5830183108
 O   -1.8013115636   -1.3304828567   -0.6320344302
 C   -3.0913101729   -1.8943848263   -0.6595202457
 C   -3.2547227594   -3.0807424792   -1.5498237644
 C   -3.3026649850   -3.2522524687   -0.0457340913
 H    0.9762840152    1.4342889692   -0.8175383788
 H   -0.3008226252    0.5849656091   -1.7202958525
 H   -0.7257051480    1.8131583532   -0.5000185487
 H    0.6334951897   -0.8791974519    0.0479659880
 H   -0.3716951015    0.3706246911    2.1776475310
 H   -2.9701490001   -0.9963392912    1.5934514177
 H   -3.8862870183   -1.1550805181   -0.6047674161
 H   -4.1726392084   -3.1698239821   -2.1188066945
 H   -2.3637781584   -3.4270208921   -2.0604177997
 H   -2.4441018576   -3.7138494854    0.4278970412
 H   -4.2542617333   -3.4615352790    0.4302056088