23

 C   -1.0465755638    0.9690700919    0.0617635156
 C   -0.0951996527   -0.2215188235    0.0320399183
 C    1.2086364033   -0.1776009507   -0.8260842114
 C    1.9816545993   -0.8325031200    0.3464669130
 O    2.7318090631    0.1177057727    1.1206137719
 C    1.6362079552    0.2913799193    2.0581853109
 C    1.3042827604    1.7517129864    2.3017309427
 C    0.7316047668   -0.7093719709    1.2699878779
 C    0.1332618869   -1.8331771347    2.0916976192
 H   -0.5338082748    1.9164887206    0.2379551620
 H   -1.5706721555    1.0555599313   -0.8968327812
 H   -1.8087414099    0.8507063958    0.8405839185
 H   -0.6763401305   -1.0959462798   -0.2859036007
 H    1.1702424296   -0.7431784463   -1.7606597921
 H    1.5877114775    0.8262778251   -1.0343021806
 H    2.5326895163   -1.7594161129    0.1621613282
 H    1.9096624148   -0.1652825630    3.0221436482
 H    0.4062295596    1.8515818929    2.9207282605
 H    2.1347068199    2.2277163889    2.8338575979
 H    1.1546943536    2.2959382310    1.3680649945
 H   -0.7047364465   -1.4713992295    2.7013795786
 H   -0.2500514720   -2.6357807958    1.4523235697
 H    0.8706589294   -2.2710694588    2.7732805985