20

 C   -0.1446409505    1.5120586240   -0.0695254053
 C    0.1018977047    0.0390343073    0.0311730603
 C    0.8095934085   -0.8508037730   -0.9187004788
 C    1.7365970691   -1.8245673170   -0.2026099120
 C    1.4830769759   -1.5412751374    1.3061262978
 O    2.4830622424   -0.7165448643    1.8852324863
 C    0.1047472192   -0.8706982276    1.2981888894
 C   -0.9069467833   -1.7457881932    0.5253804899
 N   -0.6733424944   -0.9920502073   -0.7538436846
 H    0.6832357475    2.0879585925    0.3616043682
 H   -0.2549564325    1.8084234191   -1.1168818475
 H   -1.0594697750    1.8002876822    0.4598991456
 H    1.0647951657   -0.4951641763   -1.9115675847
 H    1.5293922596   -2.8654238141   -0.4723179312
 H    2.7861193422   -1.6321609497   -0.4440973924
 H    1.4866993877   -2.4575873627    1.9047050685
 H    2.5141220624    0.1051303284    1.3822590295
 H   -0.1948866104   -0.4566875249    2.2606523817
 H   -0.7166572045   -2.8247192609    0.4755492141
 H   -1.9430750242   -1.5858053752    0.8312120452