14

 O   -0.2446032376    0.1520488332   -0.4839076137
 C   -0.0155883280    1.2192553273    0.0188951841
 C    1.3023745459    1.9541787729   -0.0896138995
 O    2.4066122808    1.1650056794   -0.5831306404
 C    2.6206996006    2.0903809517   -1.6517881180
 C    1.4286301175    2.1421500981   -2.5634496821
 C    1.4068285421    2.9315316694   -1.2766702250
 C    3.9555100983    2.4589044236   -1.9973533243
 N    5.0309857086    2.7681380751   -2.2901159892
 H   -0.7911642216    1.7861399076    0.5837777423
 H    1.5592952333    2.4252912704    0.8673798592
 H    1.5471842127    2.7455552910   -3.4567824173
 H    0.8393679927    1.2368750120   -2.6688074676
 H    1.3045578846    4.0058561883   -1.2284623586