23

 C   -0.7578679891    1.1658483694    0.0704256925
 C    0.0698748747   -0.1132563658   -0.0314577117
 C    1.2864083654   -0.0399276897   -0.9681130404
 C    2.0856353064   -1.2619660221   -0.5193624390
 O    1.8714773535   -1.3757000061    0.8842398426
 C    0.7119916990   -0.6281216976    1.2855651438
 C    1.1253853809    0.4358210340    2.2772639219
 C    0.1922551469    0.8358722080    3.3952654663
 C    1.4313754454    0.0329993439    3.6957275184
 H   -0.1526688733    2.0121084721    0.4087575295
 H   -1.1817196869    1.4261392381   -0.9050711549
 H   -1.5886762413    1.0508460518    0.7736272929
 H   -0.5810320134   -0.9160557671   -0.4024063904
 H    1.0161905082   -0.0692668025   -2.0271047177
 H    1.8534390698    0.8816338391   -0.7895069397
 H    1.7299678611   -2.1693090448   -1.0335697823
 H    3.1626280129   -1.1755873946   -0.6989035662
 H    0.0245115235   -1.3191338865    1.7957768019
 H    1.7494283771    1.2232178589    1.8625864664
 H    0.1624975836    1.8782222096    3.6923433376
 H   -0.7667124613    0.3316352142    3.4620039200
 H    1.3108051275   -1.0131688989    3.9566621365
 H    2.2547169093    0.5238421267    4.2021388021