17

 C    0.0208921706    1.3929532356    0.0754362238
 C    1.4582145640    1.8276282691   -0.3545549934
 N    2.1787222772    0.5712848424   -0.1712126493
 C    3.3624021397    0.1409585958   -0.9054650220
 C    3.2194645781   -1.3796162989   -0.9130984582
 O    3.0267290987   -1.9431352817    0.3793100959
 C    1.8623552038   -1.7278006171   -0.4401548265
 C    1.2055134053   -0.4266932788   -0.1605911297
 N   -0.0149911756   -0.0837323690   -0.0357937894
 H   -0.1757637231    1.6763072341    1.1171767313
 H   -0.7614451603    1.8458783239   -0.5393219323
 H    1.4907293350    2.1470575369   -1.4092858836
 H    1.8638036276    2.6360106007    0.2599041082
 H    3.3651898200    0.5166493075   -1.9420567457
 H    4.2896992700    0.4675243828   -0.4212983607
 H    3.7811862572   -1.9816115727   -1.6213652579
 H    1.2961453517   -2.6028362904   -0.7345575506