14

 O   -0.4329571923    0.5473128207   -0.6489757010
 C    0.2320187114    0.8920367239    0.2916381903
 C    1.3507356533    1.9116271270    0.2102367012
 C    1.4576487522    2.7244747369   -1.1428916380
 N    1.0973840696    3.9024766944   -0.3220861764
 N    0.9822335322    5.2395007065   -0.1755921493
 C    0.8216206171    5.2994032720    1.1527042638
 N    0.8618073873    4.1102605332    1.8477140268
 C    1.0440185487    3.2740198966    0.8453634831
 H    0.0603246086    0.4852899760    1.3109001975
 H    2.2887983564    1.4621620427    0.5529577074
 H    2.4601777808    2.7805085601   -1.5700627141
 H    0.7161684932    2.4567465825   -1.8954038984
 H    0.6638040215    6.2464842175    1.6469669771