18

 N    0.2450623898   -1.1853421925    0.0878534454
 C    0.1665427491   -0.0329841925    0.0527053886
 C    0.0528039096    1.4242009236   -0.0071484183
 N   -0.2277558130    2.0863962648    1.2840312098
 C    0.8208447488    3.1149868282    1.0572708305
 C    1.9340731490    3.0876783079    2.1034481212
 C    2.6837352344    1.7792712433    1.7609229100
 N    2.5951144791    1.6224235604    0.2944564054
 C    1.3738097521    2.2677061816   -0.1403913696
 H   -0.6502898704    1.6783995419   -0.8120062818
 H   -1.1752831671    2.4250587665    1.3973597499
 H    0.4465753986    4.1161947831    0.8224484979
 H    2.5883966849    3.9575613385    1.9681707008
 H    1.5439045455    3.1023644920    3.1244937397
 H    3.7288499253    1.7752264138    2.0785060400
 H    2.1858727183    0.9305623569    2.2398449894
 H    3.3900947163    2.0559378134   -0.1578682230
 H    1.4928355196    2.7368437290   -1.1162260061