16

 C   -0.0530417306    1.5577483272   -0.0504822915
 C    0.0243111471    0.0330559430    0.0102814230
 O    0.7751814313   -0.4657389655   -1.1112975891
 C    1.8320642360   -1.2252631151   -0.6825568918
 N    2.6731683049   -1.8030548119   -1.4266884568
 C    1.8033126888   -1.2420641884    0.8025480134
 C    0.7486609763   -0.5156339323    1.2032855546
 C    2.7551633525   -1.9261278604    1.5909141293
 C    3.5654134324   -2.5081513116    2.2632734917
 H    0.9472754169    1.9943787956    0.0119153633
 H   -0.5180713152    1.8721065844   -0.9883251338
 H   -0.6558482285    1.9384755270    0.7798329453
 H   -0.9910274838   -0.3847830447   -0.0598522697
 H    2.4620354520   -1.6282360891   -2.4101070541
 H    0.4421299014   -0.3285123611    2.2232110280
 H    4.2875105185   -3.0265941571    2.8441333383