17

 C    0.0625771115    1.5069244014    0.0763437842
 C   -0.0142453854    0.0123652256   -0.0661143703
 C    0.7897602625   -0.6707052337   -1.1678512193
 O    0.3536485386   -2.0380459013   -1.1470848792
 C   -0.8517011439   -2.0749852174   -0.4230268839
 C   -0.8336882804   -1.5205571195    1.0119458812
 O    0.3204102060   -0.7049652080    1.1768635052
 C   -1.3980454904   -0.7165365204   -0.1229670554
 O   -2.6347957381   -0.1611340563   -0.3572119793
 H    1.0848977813    1.8145298592    0.3176604349
 H   -0.2371698380    1.9995533786   -0.8538431939
 H   -0.5996432623    1.8462164411    0.8761744284
 H    0.5889824524   -0.2166737263   -2.1521125512
 H    1.8656212501   -0.6453463926   -0.9710802941
 H   -1.4913311999   -2.9191892124   -0.6531460361
 H   -1.2634309630   -2.0049539499    1.8808923923
 H   -2.8669649408   -0.3019613382   -1.2822031234