21

 C    1.2209234315    1.9536526035   -0.3063316884
 C    0.6290203088    0.6121869148    0.0670648071
 C    0.4882365789   -0.5162501743   -0.9486944114
 C    0.9321630351   -0.3781788361   -2.3900951019
 C    1.4874272309   -0.6311523370    0.1676478224
 O    2.8394341231   -0.5813997260   -0.2000117346
 C    3.7422655035   -0.6192716649    0.8908233983
 C    3.7399442760    0.5683559451    1.7485125283
 C    3.7600597649    1.5325656338    2.4658872575
 H    2.1324101514    1.8413651395   -0.8964993279
 H    0.5090391888    2.5526917676   -0.8851881925
 H    1.4870723463    2.5171670894    0.5927729993
 H   -0.1740976704    0.6720541068    0.7980820390
 H   -0.3976864156   -1.1347336449   -0.8254652879
 H    1.8836552126    0.1482416917   -2.4773000683
 H    1.0638945674   -1.3653614449   -2.8460363595
 H    0.1847495874    0.1634656566   -2.9799540017
 H    1.2885249457   -1.3393438284    0.9728099124
 H    3.5480158179   -1.5090607500    1.5116606821
 H    4.7343333644   -0.7464391175    0.4446793591
 H    3.7781146414    2.3857855352    3.0981252487