16

 C   -0.0484635226    1.5538384437    0.0736227039
 C    0.0279495852    0.0335641649   -0.0473909213
 C    0.7247828031   -0.4766214313   -1.2703692366
 N    1.2079545074    0.3583874975   -2.1349539434
 N    1.8169484302   -0.2013193967   -3.2021372271
 N    1.9826540794   -1.4968710939   -3.4693403669
 N    1.5277601750   -2.3535665716   -2.6539162576
 C    0.8539772124   -1.9258024162   -1.4780350610
 N    0.3778556149   -2.7571947097   -0.6331294055
 H    0.9481171273    2.0030068859    0.0991858219
 H   -0.5844550618    1.9953060988   -0.7709857931
 H   -0.5718793967    1.8289815636    0.9930877182
 H    0.5300736026   -0.4140100186    0.8203321403
 H   -0.9712093239   -0.4213399543   -0.0320846094
 H    2.2007694377    0.4316726508   -3.8853995611
 H    0.5700289600   -3.7084369829   -0.9579352815