19

 C    0.3043029467   -1.2382601859    0.6131987019
 C    0.2162755444   -0.0996651103    0.2412783409
 C    0.0481480742    1.2892253773   -0.1801514182
 C   -0.9990505211    1.9971949617    0.7098977435
 O   -1.3642094270    3.2443656772    0.1595339315
 C   -0.6299510562    4.3704662699    0.6124705574
 C    0.9015575420    4.2407685739    0.4805219403
 C    1.3575150081    3.2595918298   -0.6050344186
 O    1.3236258533    1.9099941957   -0.1577171477
 H    0.3963863461   -2.2481002493    0.9289706790
 H   -0.3544978719    1.3130159653   -1.2074586991
 H   -1.9022080702    1.3785086859    0.7375127451
 H   -0.6139632205    2.0895173074    1.7347425867
 H   -0.9940384026    5.1945895325   -0.0087715362
 H   -0.8963683708    4.6037482054    1.6551045652
 H    1.3187949564    5.2341931115    0.2761124231
 H    1.3477610750    3.9023358845    1.4215510891
 H    0.7665272046    3.3796721854   -1.5250263659
 H    2.4072531796    3.4475362622   -0.8494142880