20

 C   -0.0223085276    1.5620569650   -0.0230660228
 C    0.0052331700    0.0363404503   -0.0300479854
 C    0.4189893458   -0.5115400500   -1.4135976296
 O    0.8939057219   -1.8490439560   -1.3712967782
 C    1.8643201676   -2.0468522801   -0.3636353486
 C    2.9310954390   -0.9139241166   -0.1514336399
 C    2.2436400950   -0.5736168077    1.1788980515
 C    1.3500885963   -1.7875874387    1.0675454056
 N    0.7952657116   -0.4568039694    1.1096248364
 H    0.9803832302    1.9711462734   -0.1895472545
 H   -0.6778660594    1.9448925710   -0.8122985831
 H   -0.3848696070    1.9332297691    0.9389618301
 H   -1.0064991569   -0.3357866482    0.1779570533
 H   -0.4513221668   -0.5204812740   -2.0765501183
 H    1.1725694587    0.1431298849   -1.8760064416
 H    2.2928419713   -3.0347100464   -0.5379551014
 H    3.9153055623   -1.3580666570    0.0208856102
 H    3.0328004488   -0.1305798191   -0.9045681289
 H    2.7321828098   -0.1695997734    2.0584553863
 H    1.0474391395   -2.5238437870    1.8049321489