16

 C   -0.0166979299    1.4993498185    0.0096870265
 O    1.2498128591    0.7963659214   -0.0072619458
 C    0.0791454268    0.0486626147    0.0016767744
 C   -0.5046511462   -0.9707761590    0.9949977942
 O   -1.5967149296   -1.1111847585    0.0140386176
 C   -0.5258947301   -0.9612234381   -0.9886863016
 C    0.2842719542   -2.2523334153   -0.7536129359
 N    1.5537375266   -2.0346854088   -0.0241512939
 C    0.3001670512   -2.2594773660    0.7302070989
 H   -0.2414981661    2.0269634410    0.9350088610
 H   -0.2612113845    2.0358222396   -0.9054864121
 H   -0.8396470452   -0.7336787235    2.0031054687
 H   -0.8823804975   -0.7144618084   -1.9870574278
 H    0.1298706986   -3.1361508696   -1.3597741134
 H    2.0901449255   -2.9008667089   -0.0340696969
 H    0.1586942472   -3.1491057390    1.3309993260