19

 C   -0.0259772818    1.5493411280   -0.0730516554
 C    1.5182849567    1.5484665372    0.1034448628
 C    1.4208052778    0.0968720697    0.6271356994
 C    0.0048093240   -0.0022737060    0.0034455170
 C    2.4888341238   -1.0270213501    0.4122474518
 C    2.5347761579   -1.2247141743    1.9303244926
 N    2.9424425490    0.0837168766    2.5031559866
 C    1.5230804816   -0.1561058902    2.1387675633
 H   -0.5359769481    1.9910242566    0.7876325921
 H   -0.4325724756    1.9987417670   -0.9818559293
 H    2.0363354131    1.5942599119   -0.8598700360
 H    1.9679724923    2.2814304092    0.7766992200
 H   -0.7698164795   -0.5063328095    0.5894926025
 H    0.0379669620   -0.4590452628   -0.9910061128
 H    2.0708176641   -1.8842021938   -0.1232118303
 H    3.4333245386   -0.7269801530   -0.0504065734
 H    2.7033422793   -2.1429044750    2.4797124926
 H    3.0135758596   -0.0438238352    3.5129908806
 H    0.7360937753   -0.0652539962    2.8794009059