23

 C    0.0240374833    1.5098750504   -0.0543043923
 C    0.0330148582    0.0030772653   -0.0437698318
 C    0.6697548480   -0.9522071485   -1.0869668098
 C    0.0426344217   -1.8833540421   -0.0245792034
 C    0.5883212057   -0.9338044967    1.0856704657
 C   -0.3735011526   -0.9257840199    2.2707278705
 C   -1.7194405823   -0.9438544799    1.5022203095
 C   -1.2221520579   -0.9564113944    0.0482163408
 C   -2.2943657570   -0.9727812834   -1.0211989360
 H    1.0438204894    1.9104782007   -0.0743227684
 H   -0.5022399007    1.8973834927   -0.9341624009
 H   -0.4742067127    1.9129807590    0.8350108740
 H    0.2404353008   -0.9641759200   -2.0920558695
 H    1.7630936350   -0.9460413915   -1.1412041444
 H    0.0484913403   -2.9758487244   -0.0056532915
 H    1.6635126336   -0.9262190028    1.2799519000
 H   -0.2413631386   -1.7992366099    2.9173636907
 H   -0.2528087902   -0.0359747407    2.8976623760
 H   -2.3270011702   -1.8272122060    1.7282113408
 H   -2.3413171809   -0.0656149158    1.7101642525
 H   -2.9401270430   -0.0905045788   -0.9370613982
 H   -1.8850287177   -0.9876283062   -2.0351184733
 H   -2.9369911624   -1.8542740171   -0.9112399709