23

 C   -0.0167247911    1.4214493900   -0.5204728575
 C   -0.0776087365   -0.1084420909   -0.5224643436
 C   -1.3454178875   -0.6379037830    0.1534645798
 O   -2.5036381205   -0.1034893323   -0.5141090567
 C   -3.2770288436   -1.1449683222   -1.0891245466
 C   -2.3930413212   -2.3937673425   -1.1181415163
 O   -1.5299183451   -2.4371926355   -2.2486726452
 C   -1.5401689812   -2.1774189988    0.1415231040
 C   -0.2812204382   -3.0368555554    0.2349630460
 H    0.8849281880    1.7815532253   -1.0253963820
 H   -0.8879827819    1.8398410534   -1.0307990797
 H   -0.0070477877    1.8174450102    0.5019326812
 H   -0.0422006104   -0.4912681857   -1.5470088506
 H    0.7958357476   -0.5128378634    0.0039249619
 H   -1.3681477116   -0.2683820465    1.1892988580
 H   -4.1814319616   -1.3333922679   -0.4880512862
 H   -3.5997810519   -0.8393643645   -2.0929439489
 H   -2.9904298730   -3.3149521662   -1.0559319131
 H   -2.0729473559   -2.4253454295   -3.0426033056
 H   -2.1924385100   -2.4216474215    0.9896409210
 H    0.3601070292   -2.9006122630   -0.6369878317
 H    0.2948055667   -2.7905477492    1.1328124626
 H   -0.5457753824   -4.0976828107    0.2927590590