21

 C    0.0877954111    1.5255939826    0.0120436696
 C   -0.0070686191   -0.0051035890    0.0018207849
 C   -1.4717618438   -0.4745199502   -0.0004830569
 C    0.7027496724   -0.6293155619   -1.2180033651
 N    2.1304867227   -0.3018186784   -1.3735491357
 C    1.7428328578   -1.5928539246   -0.7676184148
 C    1.7437106478   -1.6030301352    0.7478408710
 N    2.1320769659   -0.3202451724    1.3706042880
 C    0.7041577931   -0.6456345106    1.2123293564
 H    1.1354974662    1.8307791394    0.0134963834
 H   -0.4017795339    1.9545403765   -0.8695766350
 H   -0.4007735156    1.9426609882    0.8998999266
 H   -2.0021798976   -0.0981890300   -0.8817276182
 H   -1.5403743278   -1.5681666737   -0.0077901414
 H   -2.0011548254   -0.1100668815    0.8863524677
 H    0.1103740009   -0.7980427117   -2.1141035273
 H    2.4006492515   -0.4609887680   -2.3417529553
 H    1.9536194893   -2.5150789169   -1.2985095362
 H    1.9551053721   -2.5322996905    1.2660547771
 H    2.4033593110   -0.4924014227    2.3362697619
 H    0.1128196213   -0.8263839595    2.1067688892