22

 C    0.0479038231    1.7153387355   -0.3623663584
 C    0.0524425762    0.2002753694   -0.4131297035
 C    0.5751985258   -0.6665541362   -1.4901792851
 C    1.9093764158   -0.2161543815   -2.0618788211
 O    1.8690500523    1.0196278428   -2.7484534195
 C    2.4848366802   -0.3024484960   -0.6034440446
 C    3.4105188822   -1.5096104738   -0.4529860957
 C    3.1197065796    0.9283416820    0.0329588234
 N    1.1343371524   -0.7442316248   -0.0622771516
 H    0.7695520129    2.1641067886   -1.0403428056
 H   -0.9464430070    2.0644564752   -0.6620536265
 H    0.2261276535    2.0723269893    0.6576414988
 H   -0.8634318497   -0.2103756381    0.0134300613
 H   -0.0123962553   -1.4759993411   -1.9129679279
 H    2.3556803509   -0.9900216596   -2.6997500443
 H    2.7386187494    1.1785871717   -3.1295215325
 H    4.3547588553   -1.3431233426   -0.9838241490
 H    3.6337213896   -1.6899737565    0.6031506657
 H    2.9407780545   -2.4135940114   -0.8515795786
 H    2.6339235588    1.8601344662   -0.2507893444
 H    3.0794700005    0.8368615725    1.1238945188
 H    4.1751736187    1.0008093584   -0.2526319498