17

 C   -0.0540347999    1.3191693391   -0.0640819125
 O    0.0043158136   -0.0907014650   -0.0070682900
 C    0.6458683679   -0.6034879583    1.0829922420
 C    1.2564367253    0.0151936019    2.1555930694
 N    1.7412151499   -0.9878425027    2.9628482200
 C    1.4554989055   -2.2272513502    2.4297260651
 N    1.8700427257   -3.3974106776    3.1040484090
 C    0.7700562742   -2.0078409061    1.2547426364
 O    0.2966697872   -2.9738021997    0.4114492757
 H    0.9534564310    1.7571838917   -0.0936803120
 H   -0.5893826401    1.5803982135   -0.9787024487
 H   -0.5910593708    1.7294588994    0.8025176161
 H    1.3805887890    1.0543702887    2.4042113683
 H    2.2470468570   -0.8701881861    3.8220474315
 H    2.4683495807   -3.9684920211    2.5145842987
 H    1.0760292205   -3.9782018357    3.3572648414
 H   -0.1294776668   -2.5182398020   -0.3230400804