17

 C   -0.0250958931    1.5503363015    0.0098052079
 C    1.4960269354    1.9171018746   -0.0029070647
 C    2.1399244412    0.5054788192    0.0058333154
 O    1.2088515940   -0.2563611694   -0.7676968719
 C    0.0452640052    0.0004260221    0.0233563287
 C    0.4988086336   -0.3997691116    1.4323412744
 N    1.5193501986   -1.4676176160    1.4377463234
 C    1.9409290891   -0.0520604831    1.4202740475
 H   -0.5533301111    1.9549705756    0.8776894192
 H   -0.5300756601    1.9051770368   -0.8911315626
 H    1.7695183295    2.4596598608   -0.9103408448
 H    1.7954663716    2.5212868028    0.8580694966
 H    3.1347244870    0.4200189123   -0.4307778680
 H   -0.8080570213   -0.5306502786   -0.3977867024
 H   -0.1433467843   -0.2368030730    2.2905872459
 H    1.6098713432   -1.8099280822    2.3922427777
 H    2.4517547015    0.3888976784    2.2688734677