16

 C    0.5613168595    1.0289076439    0.1293816245
 N   -0.4818448096    0.2620825503   -0.5516230482
 C    0.0158985058   -0.6345877942   -1.5653674226
 C    0.6786598751   -1.9103919537   -1.0235514023
 O    0.6085883248   -2.2371097362    0.1409409607
 C    1.3627768446   -2.7297590279   -2.0079279385
 C    1.9193714475   -3.3828369692   -2.8622922816
 C    2.6166523144   -4.1617921082   -3.8586079874
 O    2.0722576493   -4.9262593293   -4.6185521740
 H    1.3385362320    0.4147936371    0.6090932069
 H    1.0464934031    1.6964333290   -0.5916029285
 H    0.0980676420    1.6536793072    0.8977053413
 H   -0.9997100081   -0.2780760685    0.1344519868
 H   -0.8024042032   -0.9705127807   -2.2206092175
 H    0.7247269782   -0.1126335337   -2.2198676279
 H    3.7126160546   -3.9985544359   -3.8700648818