21

 O   -0.0644055453    1.4153077519   -0.1392904335
 C   -0.0123471159    0.0114183289    0.0012403713
 C    0.3109002198   -0.5502114610    1.4276918735
 C   -1.1220125550   -1.0864133384    1.5193496481
 C   -1.7145717530   -2.3369099550    2.1700728798
 C   -3.0545186672   -1.5579657531    2.3680213690
 C   -2.3488905886   -0.2219224187    1.9712722864
 C   -2.5868600012    0.2671800539    0.5203715222
 C   -1.4255610029   -0.6447934450    0.0415124179
 H    0.8260827810    1.7595106482   -0.0188411298
 H    0.6257268492   -0.4303217823   -0.7764674794
 H    1.0762118105   -1.3334937440    1.4071525075
 H    0.5949216379    0.1968176903    2.1767507829
 H   -1.7399773758   -3.2527090781    1.5705904580
 H   -1.2351037085   -2.5692715781    3.1273829762
 H   -3.8470402546   -1.8513479416    1.6735110758
 H   -3.4625570216   -1.5876107457    3.3807336888
 H   -2.2778925104    0.5239733028    2.7663095381
 H   -3.5697885376    0.0208461442    0.1073655794
 H   -2.3925194147    1.3284947397    0.3578860440
 H   -1.6266223963   -1.3540099989   -0.7638976961