15

 C    0.0293607555    1.5238167132    0.0105789249
 C   -0.0113004349    0.0057612792    0.0025956128
 C   -1.4092639294   -0.5874487230    0.0066352782
 O    0.6996836537   -0.4765996437   -1.1538832342
 C    1.7738273421   -1.2091215649   -0.7802013991
 O    2.5421415587   -1.7316463538   -1.5235094736
 C    1.7817381194   -1.2173679248    0.7538499391
 O    2.5576977835   -1.7477558015    1.4835248595
 O    0.7115927640   -0.4889109397    1.1464460795
 H    1.0650404563    1.8712723206    0.0064381161
 H   -0.4794018829    1.9130131302   -0.8743321264
 H   -0.4690199501    1.9032649211    0.9055758824
 H   -1.9556744453   -0.2548181439   -0.8789003903
 H   -1.3537366658   -1.6784380920    0.0007510726
 H   -1.9466862649   -0.2639669369    0.9010181385