19

 O   -0.1141936718    1.3991885712    0.0531433995
 C   -0.0014455340   -0.0131615144    0.0202998516
 C    0.5181100080   -0.6111057327    1.3436698424
 C   -0.6140299936   -0.2749472511    2.3407325132
 C   -1.9077772612   -0.2777613982    1.4722498305
 C   -1.4138949953   -0.6153793780    0.0477709731
 O   -1.2720528893   -2.0230804973   -0.1792376543
 C   -0.5297740845   -2.6663018322    0.8283936638
 O    0.6838963951   -2.0185062338    1.1313436027
 H    0.7732136944    1.7710794569    0.0729254715
 H    0.5727104144   -0.3686248885   -0.8426954600
 H    1.4988383832   -0.2404546420    1.6534975518
 H   -0.6382229147   -0.9957868022    3.1617452050
 H   -0.4342620918    0.7120360530    2.7713933356
 H   -2.6554719446   -1.0000894251    1.8092267301
 H   -2.3764622258    0.7078435345    1.4633449980
 H   -2.0665119918   -0.2442560378   -0.7436530215
 H   -1.1395740405   -2.7721826181    1.7404727178
 H   -0.2722042560   -3.6571840241    0.4478552793