14

 N   -0.1080542841    1.3047348162    0.0341167588
 C    0.0394983005   -0.0325915804   -0.1568924411
 O    0.9986817168   -0.5724064662   -0.6551608465
 O   -1.0621852052   -0.6798161728    0.3305609645
 C   -1.0252424532   -2.1219374349    0.2323420660
 C   -1.0882307279   -2.6992915907    1.5748663555
 C   -1.1208605583   -3.1875111595    2.6706749998
 C   -2.1251083796   -2.5756664353   -0.6189713256
 C   -3.0115234701   -2.9620459850   -1.3298163567
 H    0.5499435732    1.9078753680   -0.4270450018
 H   -1.0054992065    1.6717832865    0.2992618046
 H   -0.0671316527   -2.3818398661   -0.2357129014
 H   -1.1522019198   -3.6199769178    3.6403629789
 H   -3.7975548132   -3.3056285421   -1.9562454250