19

 C   -0.0674410103    1.5883921107    0.0479068505
 C   -0.0461994574    0.0558724431    0.0443219184
 C   -1.4647639895   -0.5365080598    0.0383762817
 O   -2.1604648360   -0.1894461420   -1.1399995668
 O    0.6118012490   -0.4556791700   -1.1229776159
 C    1.9760102114   -0.7515339790   -0.8101748902
 C    1.9663523873   -1.2367158127    0.6401513037
 C    0.7688959325   -0.4882158903    1.2253338190
 O    0.4927258201   -0.3409842878    2.3868713394
 H    0.9342599013    1.9987937201   -0.1094245415
 H   -0.7243201420    1.9406453880   -0.7502758594
 H   -0.4418255167    1.9518370307    1.0090087355
 H   -1.3962271702   -1.6289546906    0.1561468700
 H   -2.0304997826   -0.1386458670    0.8851215862
 H   -1.6089069232   -0.4847247263   -1.8745704439
 H    2.3230723481   -1.4973807977   -1.5283548970
 H    2.6010092947    0.1473410163   -0.9195028740
 H    1.7562306404   -2.3113014064    0.7009111627
 H    2.8774216830   -1.0370164595    1.2069398315