18

 O    0.0622477142    1.3966816588    0.0437819034
 C   -0.0150623458    0.0093892812   -0.0094269970
 C   -1.3334826425   -0.7075090131    0.0520133079
 C   -2.5962748705    0.1455694871    0.0801596814
 C   -3.0279865355    0.5413723054   -1.3276737895
 O   -1.9147571539    1.0305575945   -2.1088902798
 C   -0.9575149641    0.0709717403   -2.3988496707
 N   -0.4449115147   -0.0367562683   -3.5491075163
 C   -0.5108899954   -0.7362458564   -1.2440463841
 H   -0.5050113686    1.7706083116   -0.6429090261
 H    0.8311038967   -0.4313279064    0.5063913446
 H   -1.3646903712   -1.6362912689    0.6115320117
 H   -3.4140718018   -0.4005935359    0.5595303997
 H   -2.4148460463    1.0469400312    0.6773192345
 H   -3.4719278426   -0.3118003448   -1.8559542564
 H   -3.7544047631    1.3569379376   -1.3204162313
 H   -0.8866256396    0.6263233252   -4.1892524440
 H    0.0113195247   -1.6430515791   -1.5203256382