18

 C   -0.0050685560    1.4854131906   -0.2075681984
 C    1.3024199053    2.1498190173    0.1630494123
 C    2.1316102302    1.7380730890    1.1223028381
 C    1.8167633688    0.5598672419    1.9938958322
 N    0.3874475253    0.6207218000    2.5022745890
 C    0.0326359058   -0.4754197447    1.5808413958
 C   -0.0409690941   -0.0194617741    0.0828138905
 O    1.2547228589   -0.6380239499   -0.1899384722
 C    1.4809417669   -0.7911457240    1.2069474955
 H   -0.8463392553    1.9682664888    0.3086457218
 H   -0.1763155965    1.6318283892   -1.2806805808
 H    1.5699447163    3.0233601013   -0.4263827590
 H    3.0668013023    2.2632302053    1.2926349608
 H    2.5520667378    0.4361094013    2.7924621552
 H    0.3481884613    0.2877862485    3.4617189553
 H   -0.7228102297   -1.1905771419    1.9087032436
 H   -0.8263685419   -0.5097954175   -0.5014702393
 H    2.0641202347   -1.6784717410    1.4632940694