22

 C    0.2070281065    1.4280329731    0.2644371034
 C   -0.1137973333   -0.0081506806   -0.1731699170
 C    0.6428457543   -0.4377583151   -1.3981242201
 C    0.4591346941   -0.0145768870   -2.8470175347
 N    1.2824311841   -1.2094345668   -3.2837792722
 C    2.6496859885   -0.8366321590   -2.7433103388
 C    2.1000950394   -0.9721622689   -1.3370897521
 C    0.9828051713   -1.8213521501   -1.8833059865
 C    0.4733212602   -3.1970456329   -1.6327179656
 H    1.2698202550    1.5374076458    0.5029521770
 H   -0.0292899173    2.1445989420   -0.5292881384
 H   -0.3706163136    1.7094025269    1.1502225478
 H    0.1070159572   -0.6995032252    0.6506876122
 H   -1.1919614582   -0.0992338000   -0.3627119780
 H   -0.5727697611   -0.1389631908   -3.1903174823
 H    0.8436359781    0.9523209696   -3.1940213267
 H    3.3672689012   -1.6215560346   -2.9985308895
 H    3.0281640510    0.1310814830   -3.0935013979
 H    2.6163876948   -1.0750960472   -0.3893651874
 H    0.3371673562   -3.3637387103   -0.5588274391
 H   -0.4916681374   -3.3599981105   -2.1254888137
 H    1.1715983689   -3.9549963716   -2.0048868807