16

 O   -0.0333958977    0.8691513023   -1.3956675572
 C   -0.0020566838    1.4081651551   -0.3126059018
 N    1.0728121635    1.4333699711    0.5319912527
 C    2.3535036286    0.9110519984    0.2183665607
 C    2.7275800742   -0.2913281488   -0.6621508309
 C    4.0943528472    0.1984995387   -0.1282318468
 C    3.6680146363    1.6965573988   -0.1636946214
 O    4.0381696576    1.9656096087    1.2239360581
 C    3.4920128737    0.6148737547    1.2488152216
 H   -0.8712863991    1.9364274448    0.1277808373
 H    1.0080850912    2.0147077107    1.3550574971
 H    2.3889450704   -1.2689200806   -0.3097918362
 H    2.5382968629   -0.1793101192   -1.7292443201
 H    5.0961618609   -0.1875046166   -0.2995868634
 H    3.8399095892    2.4646041979   -0.9165642027
 H    3.4574757049    0.0732957741    2.1944635430