16

 C   -0.0125962292    1.5262329865   -0.0170446693
 C    1.4278345857    2.0516953152    0.0546727960
 O    2.1081532368    1.6662859969    1.2579784040
 C    1.9205779760    0.3597930882    1.5362691870
 C    0.9638448646   -0.4568484370    0.9785440848
 C   -0.0563377300   -0.0205449175   -0.0170987293
 N    1.1949829876   -1.6424230794    1.5992690904
 N    2.2140156914   -1.5550099560    2.4761183902
 N    2.6616545619   -0.3247510490    2.4368370672
 H   -0.5684309691    1.9084182387    0.8458686914
 H   -0.4890605113    1.9249833118   -0.9176697842
 H    2.0052119525    1.6888252287   -0.8083621259
 H    1.4456723370    3.1432883186    0.0474765436
 H   -1.0619895757   -0.3721960187    0.2403802407
 H    0.1666673777   -0.4117982083   -1.0185676142
 H    0.7214767740   -2.5247220787    1.4897146276