16

 O   -0.0029925886    0.0540858186    0.0661360681
 C   -0.0479771877    1.2505580673    0.0404304844
 C   -1.2398600315    2.2021591265    0.0078761882
 N   -0.8372468820    3.0410891479    1.2081431027
 C    0.2482039170    3.5350786154    0.2937953388
 C   -0.6485221182    3.3325607271   -0.9421598478
 O    0.1124475458    2.9473839909   -2.0583274366
 C    1.3645915960    2.4471364501   -1.5404304882
 C    1.1043056125    2.2789623309   -0.0308899247
 H   -2.2437326398    1.7862480539   -0.0394684608
 H   -1.5233076522    3.7914514703    1.2990949088
 H    0.7641263724    4.4616416823    0.5416361059
 H   -1.3624486673    4.1149141754   -1.2039603420
 H    1.6060481895    1.5037277459   -2.0379449770
 H    2.1649561262    3.1714628981   -1.7421886642
 H    1.9791354878    2.0608605393    0.5781155044