16

 C   -0.1799440657    1.5669255560    0.0181269029
 C    0.0423281621    0.0886301840    0.2814596850
 O    0.8513943048   -0.3031035712    1.0878788047
 C   -0.8264406794   -0.8541167166   -0.5486751950
 C   -0.7361266427   -2.2970543371   -0.1966295460
 C    0.0035995996   -3.0777192446    0.6296092100
 N   -0.3994877124   -4.4044330448    0.4962244681
 C   -1.3404978284   -4.3608565239   -0.3847936519
 O   -1.6130776846   -3.1234189980   -0.8612980453
 H    0.5755476236    2.1504692445    0.5447246598
 H   -0.1449374648    1.7873801297   -1.0539798526
 H   -1.1749499731    1.8610355176    0.3722548780
 H   -1.8690178236   -0.5127787089   -0.4838382118
 H   -0.5532447084   -0.6985573268   -1.6038701041
 H    0.7867464570   -2.7773697132    1.3020767955
 H   -1.9291139440   -5.1723753668   -0.7830616173