21

 C   -0.0734394154    1.5772065340   -0.0397495901
 C   -0.1471955331    0.0509080394   -0.1182918899
 C    0.8051170564   -0.5167088558   -1.1896669321
 O    2.1244767128   -0.1030543905   -0.9538728450
 C    0.7527304882   -2.0460644051   -1.2542772201
 O    1.7777107838   -2.6743866674   -1.0722099112
 C   -0.5647477023   -2.7233822136   -1.5528270592
 C   -0.4186473915   -4.2025542450   -1.8857596075
 O   -1.7254154808   -4.7024384872   -2.1221293471
 H    0.9497582755    1.8977922442    0.1684089533
 H   -0.3862181211    2.0360493968   -0.9843523217
 H   -0.7255401010    1.9590252223    0.7513757362
 H    0.1247486277   -0.3867975806    0.8503513783
 H   -1.1730190381   -0.2644921606   -0.3417760750
 H    0.4689942399   -0.1463359710   -2.1758198980
 H    2.6365104334   -0.9250009702   -0.8758863958
 H   -1.2214354382   -2.6120985095   -0.6797032823
 H   -1.0739931680   -2.1974935627   -2.3694002817
 H    0.2285845458   -4.3213541871   -2.7673582580
 H    0.0745854073   -4.7192046382   -1.0515519883
 H   -1.6555216711   -5.6410363722   -2.3188384547