16

 O   -0.6076070963    0.7076690279    0.6789807214
 C    0.1584385303    0.9085804230   -0.2219896604
 C    1.4071123181    1.7818676953   -0.0964081668
 O    2.5023004107    0.9535810736   -0.3854265955
 C    3.7290851440    1.6814658355   -0.3613990650
 C    3.6658419086    2.8571826131   -1.3389432491
 C    2.4049705449    3.6730448453   -1.0448802725
 O    1.2600303839    2.8220615093   -1.0266496527
 H    0.0295133222    0.4755903499   -1.2359752182
 H    1.4858981663    2.1861627101    0.9290967217
 H    3.9224863014    2.0445616614    0.6614438782
 H    4.5142022467    0.9689538213   -0.6245518441
 H    4.5596632678    3.4835662195   -1.2453433919
 H    3.6202616341    2.4751363480   -2.3638721482
 H    2.4990503776    4.1855482263   -0.0733152353
 H    2.2146699797    4.4276123905   -1.8115252917