18

 C   -0.4873137869    1.3537147947    0.0785164588
 C    0.2415787092    0.0265059274    0.1111083632
 O    0.8618148544   -0.3575730372    1.0759533599
 C    0.1667733269   -0.8065446106   -1.1585745547
 C    0.5306303505   -2.2832708373   -1.0735019710
 N   -0.5424373493   -2.9324666907   -0.2803230743
 C   -0.7408386159   -2.6934815363   -1.7294735102
 C   -1.2485964591   -1.2436998730   -1.7694529094
 O   -2.4039091360   -0.9866712239   -1.0248285417
 H   -0.1453970477    1.9602398845   -0.7684656287
 H   -1.5555630291    1.1656958085   -0.0745861215
 H   -0.3235424652    1.8949083799    1.0112289522
 H    0.7349517239   -0.2927403417   -1.9430741122
 H    1.5129857578   -2.7312309368   -1.1388508338
 H   -0.2900248028   -3.9098352973   -0.1495641393
 H   -0.9619113583   -3.5049766088   -2.4111266291
 H   -1.4055999230   -0.8435669240   -2.7722570361
 H   -2.3161663894   -1.5351010075   -0.2299533922