17

 N   -0.3690469926    1.2531521393    0.4188552677
 C   -0.3824688936   -0.1035181925    0.5817951793
 O   -0.0846681401   -0.6456941298    1.6216421664
 C   -0.7677351701   -0.8658640333   -0.7049221031
 C   -0.9900252505   -2.2833068179   -0.4835826591
 C   -1.1672865262   -3.4579700397   -0.2871962102
 C   -1.3912600325   -4.8452118471    0.0053559602
 C   -0.3226707366   -5.6395705999    0.6841812841
 N   -1.5393195673   -5.2792988704    1.4175213113
 H   -0.1735880152    1.8216426384    1.2264682896
 H   -0.7324648811    1.7004829534   -0.4043429156
 H   -1.6601337670   -0.3985020286   -1.1427113539
 H    0.0405899580   -0.7083137623   -1.4328855182
 H   -2.0611337275   -5.3674136168   -0.6731652113
 H   -0.2222484587   -6.6961279039    0.4516775037
 H    0.6048594702   -5.1257126198    0.9175093079
 H   -1.3481156792   -4.4809795192    2.0193579811