19

 C   -0.0797326146    1.5841154821   -0.1713692406
 C    0.0108358264    0.0930241713   -0.1162855476
 C    0.0900321270   -0.7737438403   -1.1272254234
 C    0.1303176106   -2.2127976617   -0.6782499931
 C    0.3494449337   -2.0955320130    0.8502513651
 C   -0.0294614725   -0.6438625240    1.2050500580
 O    0.9162301660   -0.0733492508    2.1370767261
 C    0.4979252325    0.2247059209    3.3788118861
 O    1.2187737823    0.6796024414    4.2159079933
 H    0.7376613247    2.0451839649    0.3938593598
 H   -0.0383363931    1.9495304633   -1.2003750945
 H   -1.0147635668    1.9425943384    0.2791770126
 H    0.0907044822   -0.4916881484   -2.1751284550
 H   -0.8141377586   -2.7222874670   -0.9125985780
 H    0.9188053177   -2.7908468752   -1.1729324068
 H   -0.2140827549   -2.8321915083    1.4277417056
 H    1.4079734255   -2.2237678317    1.0923544179
 H   -1.0282806380   -0.5701034201    1.6619873028
 H   -0.5776394301    0.0058500882    3.5340674117