18

 C   -0.6502588350    1.2665067265    0.1631333685
 C    0.3178612887    0.1210111308   -0.0433351386
 O    1.2384893697    0.5496822657   -1.0587202152
 C    2.2810063913   -0.2347890094   -1.4280355964
 N    2.7755842389   -1.2995833824   -0.9643697301
 C    2.3430461630   -2.0118840278    0.1917768976
 C    2.8977460700   -1.6428015827    1.5547438224
 C    1.4349178170   -1.4652806663    1.2701165295
 O    0.9727296173   -0.1475357326    1.1586841101
 H   -0.1115600665    2.1310551635    0.5587189976
 H   -1.1188003801    1.5409537469   -0.7842349250
 H   -1.4228173668    0.9719495582    0.8768332202
 H   -0.1878398728   -0.7833250724   -0.4112279596
 H    2.7486734294    0.2189625671   -2.3015223892
 H    2.2647577297   -3.0789758243    0.0003238077
 H    3.2158527418   -2.4330703199    2.2248274477
 H    3.4790440104   -0.7289127997    1.6030869026
 H    0.7172742640   -2.1398258212    1.7356070801