17

 C    0.0151216765    1.4856037078   -0.0562934936
 C    0.0060343172   -0.0124119480   -0.0098482331
 N    0.6414534227   -0.8801541141   -1.0700670211
 C    0.0478940393   -1.8517157904   -0.0828880108
 C    0.6047671773   -0.9856194324    1.0713364792
 N   -0.3095685488   -1.1217966167    2.1907351399
 C   -1.5793935842   -1.0152559991    1.6269553482
 O   -2.6389489886   -0.9230235438    2.1960504266
 C   -1.2396137290   -0.9885002920    0.1402088973
 H    1.0391886769    1.8546383469   -0.1699299480
 H   -0.5792016046    1.8603192380   -0.8963298958
 H   -0.4065834026    1.9005506747    0.8651809998
 H    0.0591831592   -0.8620894519   -1.9122343927
 H    0.1124845540   -2.9338104611   -0.2027218118
 H    1.6676115564   -0.9829568178    1.3003707233
 H   -0.1225600292   -0.7429109940    3.1061931492
 H   -2.0502214626   -0.9778188562   -0.5862985967