18

 C    0.0178121631    1.4772175076   -0.0043572695
 N    0.0802215643    0.0204952492    0.0019319318
 C    0.0525738388   -0.6486758238   -1.2283676336
 C    0.0030381255   -1.9773087824   -1.3612149924
 C    0.0651439454   -2.8574071518   -0.1781900175
 C    1.3127065663   -2.8269051886    0.6720948217
 C    0.0613600528   -2.1351146617    1.1674385578
 C   -0.0288048827   -0.6454395405    1.2162900242
 O   -0.2035964830   -0.0519213264    2.2663133796
 H    0.8560966526    1.8903400364   -0.5743061032
 H   -0.9197400030    1.8292971730   -0.4500837608
 H    0.0692593949    1.8182081444    1.0278117460
 H    0.0615026299    0.0145674039   -2.0855034294
 H   -0.0478711164   -2.4125492891   -2.3515804869
 H   -0.4654499067   -3.8024751773   -0.2359890257
 H    1.5984793031   -3.7312846547    1.1965713734
 H    2.1392900439   -2.2159239132    0.3276744918
 H   -0.4428815290   -2.5911755849    2.0106287127