16

 C   -0.0378331160    1.4301419260    0.0488085087
 C   -0.0191439891   -0.0611791160    0.0258076077
 C    0.4864464030   -1.0602156357   -0.9718958249
 C    1.2009287505   -0.9628741690    0.3647947378
 C    0.4533167753   -2.1616300305    0.9979518852
 C   -0.4760823636   -2.0421137068   -0.2649050437
 N   -1.1920219870   -0.8932418351    0.4790129984
 C   -0.6870498723   -1.4759100580    1.7540163823
 O   -1.1249692085   -1.4259458369    2.8560589558
 H    0.9060350365    1.8284631057   -0.3380547525
 H   -0.8554454956    1.8212162712   -0.5642207614
 H   -0.1689535302    1.8040281290    1.0700792311
 H    0.8315183083   -0.9526294124   -1.9904032691
 H    2.1786534043   -0.5699408819    0.6057205624
 H    0.9914127889   -3.0428034805    1.3381865731
 H   -1.0867960046   -2.8385269391   -0.6805102208