10

 N   -0.0127249667    1.3471675636    0.0099166601
 N    1.3185924204    1.7720014546   -0.0008719655
 N    2.0919989955    0.7412567950   -0.0140330903
 C    1.3026781968   -0.3723938683   -0.0122501724
 C   -0.0297061242    0.0049340256    0.0029220873
 N   -0.7191038085   -1.1468726771    0.0036072422
 N    0.1917228130   -2.2066760272   -0.0111497827
 N    1.3907884576   -1.7345306635   -0.0204504386
 H   -0.7438207334    2.0374621512    0.0209319055
 H   -1.7036148006   -1.3513114639    0.0120895343