12

 C   -0.0401898605    1.3880506021    0.0550062127
 O    0.0149819967   -0.0466784840   -0.0221977455
 C    0.6167119179   -0.5733244253   -1.0755421536
 N    1.1296593493    0.1840174729   -1.9906953802
 O    1.7368097476   -0.4414915085   -3.0521974839
 N    1.8099226275   -1.8479546439   -3.1612706264
 N    1.3189113513   -2.5652827313   -2.2853898740
 C    0.6575974012   -2.0426837553   -1.1266446844
 O    0.1962640746   -2.7842146926   -0.3025098912
 H    0.9685478462    1.8086802109    0.0752282549
 H   -0.5806947821    1.7963527218   -0.8029217963
 H   -0.5677826996    1.6031728434    0.9827413979