16

 C   -0.1741933296    1.5373133637    0.0040647041
 C    0.0192469298    0.0284541410    0.0298141563
 C    1.1586566385   -0.6090105683   -0.8122684025
 C    2.1558110549   -0.2286183936    0.3020059909
 C    0.9095405395   -0.5845462499    1.1860616573
 C    0.7735759251   -2.0525377429    0.8092603922
 O    0.5627027412   -3.0395841783    1.4452752676
 O    0.9502402148   -2.0325964867   -0.5583491422
 H    0.7507936649    2.0971119676    0.1619792608
 H   -0.5927415340    1.8496192401   -0.9587571460
 H   -0.8813603144    1.8392164167    0.7831421848
 H   -0.9440434061   -0.4714065067   -0.1125644352
 H    1.3147606764   -0.4505264227   -1.8773802006
 H    3.0468140094   -0.8520046859    0.3994806190
 H    2.4215039450    0.8270250844    0.3303825739
 H    0.8074073545   -0.3331693586    2.2384518396