19

 C    0.0375192119    1.4011971538    0.1364785080
 O    0.0165213182   -0.0093871962    0.0557731384
 C    0.6182956058   -0.5363581353   -1.0400636245
 C    1.2673666865    0.0758827905   -2.0955082322
 N    1.6981994030   -0.9361867128   -2.9025803820
 C    2.3399951011   -0.8192509439   -4.1910864508
 N    1.3519257603   -2.1483160281   -2.4339493353
 C    0.6975613168   -1.9267611230   -1.2939467138
 C    0.1667137467   -3.0421092985   -0.4544724258
 H    1.0673473647    1.7836470700    0.1730235972
 H   -0.4780620702    1.8576357145   -0.7202421708
 H   -0.4812496322    1.6743415428    1.0569378583
 H    1.4584200869    1.1095342250   -2.3297897130
 H    3.0703265937   -0.0056843427   -4.1723325407
 H    2.8518737853   -1.7597637674   -4.3965866725
 H    1.6150944909   -0.6269555133   -4.9912631067
 H    0.6153374371   -3.0405396385    0.5452491696
 H   -0.9171097924   -2.9587145497   -0.3175653642
 H    0.3849914161   -3.9996834173   -0.9318890591