13

 N    0.0303620457    1.4298663077   -0.1471036321
 C    0.0149162185    0.0227033047   -0.0500564970
 C   -1.0830967269   -0.7962102442    0.0472038849
 N   -0.6213548269   -2.1132486672    0.0164563190
 C    0.7313438344   -2.1094662490   -0.0823653150
 O    1.3676102467   -3.3093236174   -0.1135648568
 C    1.1797491499   -0.8097454252   -0.1304835040
 H    0.7883124491    1.8362880954    0.3884763240
 H   -0.8385448252    1.8396621493    0.1731662856
 H   -2.1343561581   -0.5754361695    0.1213596138
 H   -1.1819258604   -2.9436506442    0.0783582250
 H    2.3097644027   -3.1460886513   -0.2146949789
 H    2.2039254605   -0.4840229391   -0.2301646385