13

 N    0.0005286884   -1.1270966848    0.1131045632
 C    0.0356557188    0.0255957927    0.0336798300
 C    0.0489559555    1.4610862125   -0.0978123841
 C   -0.9485805666    2.1612904924   -1.0223153250
 C   -0.2015132162    3.4126874624   -1.4339456016
 C    1.0366580039    3.4595587854   -0.9362338113
 C    1.2878165451    2.2804052438   -0.0578595534
 O    0.3951108212    2.2022380034    1.0734791109
 H   -1.1982184411    1.5283308278   -1.8818769237
 H   -1.8855290916    2.3819868453   -0.4988884333
 H   -0.6622881745    4.1777868829   -2.0474743484
 H    1.7661437464    4.2419004257   -1.0986202910
 H    2.2733559906    1.8573583006    0.1069486475