17

 C    0.0222326296    1.4966195324   -0.0750074698
 C    0.0638471442    0.0092399104    0.0030905691
 C    0.2546564360   -1.0632264930   -1.0177607135
 C    0.4089404341   -2.0489974731    0.1587703349
 C    0.6473022091   -0.8976286758    1.1752600761
 C   -0.3039080262   -1.3380302610    2.3498778596
 N   -1.5704828659   -1.5846327795    1.5835050105
 C   -1.0946718920   -1.7773432077    0.4176978643
 N   -1.1525973512   -0.7767273219   -0.6412231326
 H    1.0184239287    1.9173526789    0.1047293611
 H   -0.3233555566    1.8234942506   -1.0588311854
 H   -0.6607330149    1.9026616994    0.6789736260
 H    0.6179070398   -1.0456304834   -2.0363869415
 H    0.9065117790   -3.0127423275    0.2029069619
 H    1.6752011311   -0.6167703418    1.4248064144
 H    0.1272707577   -2.2031945503    2.8772250317
 H   -0.5248652426   -0.5687076867    3.0959705833