19

 C   -0.0761867185   -0.9268670748   -0.7545038476
 C   -0.0462484553    0.1736323639   -0.2719247430
 C    0.0151066067    1.5076902137    0.3188796456
 C    1.4318004278    2.0710808638    0.3268887614
 C    1.9631221220    2.8211836820   -0.8676317231
 C    1.6983697815    3.5583545725    0.4216995298
 C    0.5960136488    4.5675603181    0.5178425625
 C    0.4665735116    5.6761700031   -0.4396178243
 O   -0.4152125458    4.5517282255   -0.4937962309
 H   -0.1138449363   -1.8962685703   -1.1854232157
 H   -0.6485766962    2.1844059577   -0.2290504514
 H   -0.3713434934    1.4628688042    1.3461755170
 H    2.1445881184    1.4371427588    0.8465554653
 H    2.9893570803    2.6609146298   -1.1776003740
 H    1.2632210750    3.0012414226   -1.6767990054
 H    2.5659238365    3.8368936871    1.0157480065
 H    0.2004359236    4.7308067823    1.5223193145
 H    0.0048343402    6.6125055324   -0.1307777610
 H    1.1755391430    5.7482941177   -1.2624962161