17

 O    0.0290391643    1.0924749883   -1.1012823080
 C    0.0975860126   -0.1627070053   -0.4816937519
 C    1.0248441719   -1.1124728654   -1.2639637352
 O    0.5385774361   -1.4156208696   -2.5509566298
 C    0.7735707308   -0.4528851485   -3.5609313314
 C   -0.4327436896    0.4405611805   -3.8341597659
 O   -0.4087226393    1.3453343815   -4.6244058700
 C    0.5599787665   -0.0194438140    0.9532579622
 O    0.8309287200    1.0599672295    1.4212458521
 H    0.2978142579    1.7406113993   -0.4302375762
 H   -0.9005563919   -0.6354247605   -0.4541345256
 H    2.0278293262   -0.6633468704   -1.3186119680
 H    1.0992632739   -2.0689562810   -0.7333601132
 H    1.6406466343    0.1813127348   -3.3398773899
 H    0.9896686366   -1.0019041508   -4.4869926280
 H   -1.3483918759    0.1550730702   -3.2727983113
 H    0.6359002058   -0.9509601985    1.5492773100