22

 C    0.0374508186    1.4610785469   -0.0870286866
 C    0.0917223982   -0.0493750429    0.0708656400
 O    1.1200161261   -0.6254593734    0.3415119050
 C   -1.2244369867   -0.7929890523   -0.1293756375
 C   -1.0817818840   -2.3138021126   -0.1195716100
 C   -2.4284169970   -3.0290873871   -0.2206605119
 N   -2.2459761312   -4.4749231506   -0.2751133605
 C   -2.1900144341   -5.1671412296    1.0081286458
 C   -3.3858142192   -5.2883389864    0.1290095657
 H    0.9955788030    1.8987210424    0.1956321489
 H   -0.1838811177    1.7179931280   -1.1296458562
 H   -0.7650906434    1.8907338614    0.5222067879
 H   -1.9096163531   -0.4573751411    0.6641344810
 H   -1.6835399624   -0.4398714654   -1.0635029431
 H   -0.4422950388   -2.6336344901   -0.9483131952
 H   -0.5645810632   -2.6209030383    0.7952483595
 H   -3.0764724546   -2.7282619410    0.6258471428
 H   -2.9486671590   -2.7258940302   -1.1386929690
 H   -1.4700710813   -5.9770322389    1.0811833215
 H   -2.3002170684   -4.5725834319    1.9144312973
 H   -4.2911325274   -4.7753080746    0.4513904542
 H   -3.5566771044   -6.1887035522   -0.4543352197