18

 C   -0.0212350615    1.4733277971   -0.0494449734
 N   -0.0167202841    0.0191341577   -0.0367086847
 C   -1.2147624701   -0.6528462817    0.0521586375
 O   -2.2860849364   -0.1041147711    0.2314421399
 N   -1.1237624535   -2.0382516967   -0.0604065033
 C   -2.3248572018   -2.8870725464   -0.0280814100
 C   -1.6895025601   -4.3042616887   -0.0665404901
 N   -0.2383593495   -4.1242566730    0.1478481328
 C   -0.0237302275   -2.8707535540    0.1263881115
 H    0.9661780663    1.8387017771    0.2433825269
 H   -0.2789037598    1.8889413945   -1.0321996550
 H   -0.7625272897    1.8231347357    0.6689676037
 H    0.7317484268   -0.4312734360   -0.5379238715
 H   -2.8948632804   -2.6933867853    0.8854869127
 H   -2.9726459652   -2.6703880448   -0.8797377617
 H   -2.0979811127   -4.9659986555    0.7020034386
 H   -1.8456320288   -4.7981588688   -1.0325431989
 H    0.9594549479   -2.4332125400    0.2628106651