19

 C   -0.2778690605    1.4088846098   -0.1117533857
 C    0.0001794454   -0.0648988894    0.0567796616
 O    0.2548618805   -0.6214950855    1.0942429714
 O   -0.0766021624   -0.7035701192   -1.1319723916
 C    0.1547533285   -2.1227184410   -1.0921351136
 C    0.1383151949   -2.6374103735   -2.5102786566
 C    1.0961538922   -1.9843781702   -3.4803629430
 C   -0.3199802736   -4.0178271020   -2.7268720268
 O   -1.1712992398   -2.9124283882   -3.0291834002
 H    0.4214780420    1.8452740767   -0.8302677485
 H   -1.2859719916    1.5541395479   -0.5104299184
 H   -0.1840394220    1.9078764475    0.8518450957
 H    1.1189217409   -2.3169460873   -0.6101556850
 H   -0.6280123274   -2.6023629145   -0.4985063745
 H    2.1322704865   -2.1122659343   -3.1485606012
 H    0.9894733591   -2.4251651851   -4.4739471978
 H    0.8930717479   -0.9126029507   -3.5495129648
 H    0.0569008295   -4.5721646295   -3.5854544790
 H   -0.6309499399   -4.6323092214   -1.8823504219