15

 C   -0.0469446264    1.5872452744    0.1291050891
 C    1.4910473445    1.5143508189   -0.0400128648
 C    2.0300090285    0.5882808568    1.0763969627
 C    0.9435065258   -0.4911426847    1.0825362581
 C    2.1496165802   -0.6237529476    0.1793310617
 C    1.3390471107    0.1859760191   -0.8777981478
 C    0.0145739090    0.0478200069   -0.0314950543
 H   -0.4552210851    2.0036778938    1.0555390559
 H   -0.5238865658    2.0624532437   -0.7348515541
 H    2.0949573023    2.3649043016   -0.3537680017
 H    2.6034425207    0.8446894727    1.9573654335
 H    0.6883906846   -1.0579342544    1.9681648518
 H    2.9103308809   -1.3898159576    0.1122518308
 H    1.3918885384    0.1264712106   -1.9619037926
 H   -0.8418505582   -0.5520862943   -0.3368443181