16

 C   -0.0811595664    1.4959770210    0.0381275301
 C    0.0309998229    0.0037736341   -0.0273816320
 C    0.9439820523   -0.8360147344   -0.9254699169
 C    0.0993137470   -2.0460842634   -0.4343227841
 O    0.4444855804   -2.1550807401    0.9751972484
 C   -0.2830496558   -0.9363927426    1.1538524438
 C   -1.0804521027   -1.0454786595   -0.1003134010
 C    0.0282611469   -3.2970032493   -1.1463773299
 N   -0.0449132870   -4.2794601767   -1.7504091596
 H    0.8502325685    1.9433155996    0.4025308020
 H   -0.2981452034    1.9247505453   -0.9461954313
 H   -0.8840596020    1.8022984875    0.7172238891
 H    0.7687717417   -0.6250702413   -1.9828670640
 H    2.0143399713   -0.8917052935   -0.7066823602
 H   -0.5354094432   -0.6202392939    2.1566889106
 H   -2.1333369103   -1.0246744829   -0.3438244150