20

 C    0.0541465802    0.8973242726    0.2085596804
 O   -0.3517781464    0.2473013255   -0.9922400616
 C    0.4492642696   -0.7410109813   -1.4206156557
 N    0.1521808535   -1.3987270124   -2.4546240596
 C    1.0517462702   -2.4342429125   -2.8931248113
 C    1.7235841772   -3.4299149042   -1.9710818083
 C    0.5747913489   -3.8605855043   -2.8649736772
 C   -0.7911171521   -4.1301872275   -2.2639037085
 O   -1.8332624720   -3.6125429480   -3.0696792450
 H    0.0537956441    0.2040314519    1.0578066820
 H    1.0494630120    1.3452005630    0.1046420997
 H   -0.6759561185    1.6863121217    0.3905152227
 H    1.3486206323   -0.9082798268   -0.8115756471
 H    1.6066236157   -2.1402575651   -3.7807215098
 H    2.7293619716   -3.7596322756   -2.2079523701
 H    1.5177010484   -3.3679233440   -0.9070330379
 H    0.8160027094   -4.4622425659   -3.7360807241
 H   -0.9662687233   -5.2081207536   -2.1803499845
 H   -0.8339676390   -3.7172195312   -1.2436071085
 H   -1.6701867119   -2.6606531220   -3.1221600055