15

 O    0.0318504885    1.3548280167    0.0188110446
 C   -0.0902926279   -0.0257051288    0.0379109865
 C   -1.3938397779   -0.7601093340    0.0827432914
 O   -1.7189993942   -1.7666620191    0.9537300386
 C   -2.4104050424   -0.0603538771   -0.8080539739
 O   -1.4564484749    0.0288631012   -1.9073558986
 C   -0.5111022770   -0.7793688897   -1.2140218133
 C    0.2560427153   -1.8279951499   -1.8911217860
 O    0.1935819959   -2.0820366001   -3.0687649067
 H   -0.3249640049    1.6486751195   -0.8316072389
 H    0.7039818091   -0.5098615440    0.6039954108
 H   -1.3966316169   -1.5377684759    1.8323625258
 H   -3.2473631891   -0.7092506205   -1.0813640032
 H   -2.7703477514    0.9225121777   -0.4865373415
 H    0.9239657680   -2.3870848559   -1.1970559558