16

 C   -0.1258408861   -1.1874328000    0.3054645799
 C   -0.0315428909    0.0052048851    0.1896744288
 C    0.0426946268    1.4322492949    0.0311847444
 O    0.7815685333    2.1762526491    1.0171584055
 C    1.3031383330    2.1309442918   -0.3099203591
 C    2.6154961096    1.4113548568   -0.4960992684
 C    3.7561105637    2.1713722886    0.2151216800
 C    5.0510827120    1.5187620855    0.0435285283
 N    6.0684103653    0.9916876501   -0.1061383755
 H   -0.2055204300   -2.2413352900    0.4147428243
 H   -0.8900396009    1.9095699974   -0.2677692725
 H    1.2030045719    3.0738905707   -0.8524300253
 H    2.5437975087    0.3976856456   -0.0948613216
 H    2.8344301564    1.3282506853   -1.5660709789
 H    3.8309907816    3.1972539036   -0.1645177234
 H    3.5307286655    2.2434098654    1.2843480837