19

 C    0.0652858311    1.5204898558    0.0345205158
 C   -0.0416949442    0.0255755215   -0.0218178244
 C   -0.0511826678   -0.6717274333   -1.1644353781
 C   -0.0911773281   -2.1518910369   -1.1716168191
 O    0.8910064851   -2.8452256823   -0.3436886461
 C   -0.4845258077   -2.8589997131    0.0598482561
 C   -0.8380842787   -2.0238976603    1.2662032744
 C   -0.0405662690   -0.7065339798    1.3128128591
 O    1.2974417268   -0.9272879732    1.7546011995
 H    0.9509488539    1.8108004088    0.6125902991
 H    0.1392595222    1.9650875312   -0.9613972564
 H   -0.8011741020    1.9602156684    0.5449411990
 H   -0.0088380853   -0.1666829019   -2.1255708730
 H   -0.2451313252   -2.6386909174   -2.1315858647
 H   -0.9618721256   -3.8356767466   -0.0208406717
 H   -1.9150449393   -1.8135672867    1.2357770636
 H   -0.6367975166   -2.5759957665    2.1905795369
 H   -0.4843763148   -0.0582884900    2.0764954337
 H    1.6788431252   -1.5377505077    1.1072229164