17

 C   -0.0578746331    1.5132714700   -0.0249943909
 C    0.0408117320    0.0064067331    0.0278437259
 O    1.0836580551   -0.5893824733    0.0759194227
 C   -1.3237109850   -0.7984863924    0.0185579641
 C   -1.0263443297   -2.3162917148   -0.0116750580
 C   -2.0502104565   -0.4458052532    1.2447933289
 C   -2.6038192845   -0.1709363278    2.2753617476
 C   -2.0899343851   -0.4047943995   -1.1697806997
 C   -2.6830214708   -0.1027607775   -2.1702720885
 H    0.9341048300    1.9457384382    0.1066281320
 H   -0.4710554504    1.8185605739   -0.9910661236
 H   -0.7404882999    1.8788645258    0.7467661074
 H   -0.4300250296   -2.5919855514    0.8589543553
 H   -1.9642533291   -2.8742642818   -0.0040659518
 H   -0.4636405697   -2.5639698453   -0.9131410170
 H   -3.1093221354    0.0702486650    3.1779370876
 H   -3.2216813282    0.1650535411   -3.0457432321