21

 C   -0.0110239630    1.5273891611   -0.0373564420
 C   -0.0208023494    0.0187790482   -0.0848536990
 C    0.6903736306   -0.7396082997   -1.1519801080
 N    1.2525271011   -0.6493974547    0.2141347164
 C    1.1028339266   -1.9920291059    0.8197870380
 C    0.1279232879   -2.8174949798   -0.0572677588
 C    0.2591328783   -2.1543641346   -1.4245635341
 C   -0.4961768399   -2.5436853438   -2.6368883509
 N    0.9224244892   -2.9263800261   -2.4909378783
 H    0.9268958963    1.9175502688   -0.4415999429
 H   -0.8415097679    1.9434441151   -0.6181256865
 H   -0.1059613619    1.8845333823    0.9937598431
 H   -0.9264584138   -0.4420190105    0.3091749194
 H    1.2137115554   -0.2024409511   -1.9418367977
 H    2.0952316779   -2.4541699219    0.8236876563
 H    0.7744460047   -1.8984889575    1.8593710696
 H    0.3958559993   -3.8741877720   -0.1071943366
 H   -0.9009801111   -2.7503708683    0.3104303504
 H   -1.1988628650   -3.3723025290   -2.6003942483
 H   -0.7579783469   -1.7646099734   -3.3492685072
 H    1.5057987114   -2.3137408875   -3.0576377332