23

 C   -0.4295475868    1.0712889303   -1.7774604876
 C   -0.1368375109   -0.1371262754   -0.9116495312
 C    1.2621378309   -0.5054408221   -0.4446131484
 C    2.4933523667    0.3148439236   -0.7984727441
 C    3.0286132537   -0.0699720860   -2.1622644186
 O    3.2407452599    0.6991062662   -3.0638481263
 C    0.2152244964   -0.0600825839    0.5635860553
 C    0.3377605614    1.2827751004    1.2613656934
 C   -0.3574093498   -1.1404529111    1.4657603859
 H    0.2031964083    1.9301333860   -1.5437746611
 H   -0.2730603231    0.8355852493   -2.8355711786
 H   -1.4711938612    1.3898695992   -1.6594763399
 H   -0.7547333854   -0.9937363786   -1.1742342005
 H    1.4722374693   -1.5737449134   -0.4304955700
 H    2.3149642511    1.3912004353   -0.7980296890
 H    3.2862337777    0.1091119918   -0.0633563366
 H    3.2157136749   -1.1631404785   -2.2877237212
 H    0.7232035023    2.0740938512    0.6163957018
 H   -0.6406335433    1.6107090016    1.6316114560
 H    1.0053852704    1.2083555640    2.1279600560
 H    0.2707645975   -1.2912372658    2.3521636374
 H   -1.3611498648   -0.8696956583    1.8150530896
 H   -0.4343578750   -2.0998172256    0.9445112179