17

 C    0.0203768735    1.4586220824    0.0013582514
 O    1.1990430579    0.6440303937   -0.0569713235
 C   -0.0815410530   -0.0005534325    0.0123203556
 C   -0.4014510313   -0.8399847043    1.2477806724
 C   -0.2745169200   -2.3111363106    0.7714360697
 C   -0.5599241304   -2.2477367492   -0.7211771415
 N   -1.7748698966   -1.4684914466   -1.0414996515
 C   -0.4378889406   -0.8405708976   -1.1800769294
 H   -0.1157794450    2.0154755892    0.9280969965
 H   -0.2096854431    2.0148915949   -0.9068724303
 H    0.2731314540   -0.5941818759    2.0703955994
 H   -1.4261713273   -0.6361967132    1.5678743516
 H    0.7452766474   -2.6824591854    0.9222761616
 H   -0.9569483747   -2.9805383001    1.3032670982
 H   -0.2862656477   -3.0787120366   -1.3631163851
 H   -2.1051599789   -1.7326447136   -1.9665307142
 H   -0.0610387241   -0.5623225849   -2.1580638409