17

 C   -0.2621406681    1.5766289008    0.4515807117
 C   -0.1542690901    0.0901669835    0.0408568269
 C    0.8202557376   -0.6144778740    0.8684409655
 C    1.6340985140   -1.1702181670    1.5568728935
 C   -1.5368723178   -0.5613577357    0.0581721507
 C   -1.8228042631   -1.8689625985    0.6904201672
 O   -2.2168421169   -0.6576363712    1.3175731131
 C   -2.4606901716   -0.1795766799   -1.0615285104
 O   -2.1131394310    0.3687327549   -2.0759567872
 H    0.7218539495    2.0490014203    0.4177886779
 H   -0.9273148651    2.1086818270   -0.2327892946
 H   -0.6535100073    1.6582045291    1.4683961558
 H    0.1754831533    0.0507173661   -1.0051225547
 H    2.3598488514   -1.6596883845    2.1582819294
 H   -2.6366589010   -2.4885959207    0.3148380374
 H   -0.9901081513   -2.3918359407    1.1536327248
 H   -3.5195603826   -0.4556745896   -0.8628426968