15

 O    0.2154105578    1.2754810991    0.1061482680
 C   -0.0226829333   -0.1079348048    0.1349261291
 C   -1.5423626203   -0.4509517321    0.0538073641
 C   -1.7478592437   -1.9934909803    0.1357343083
 O   -0.8455775254   -2.7770842053    0.2124946855
 C   -2.2454496784    0.1451339054    1.1941734545
 C   -2.7793605847    0.6083752451    2.1665530096
 C   -2.1327289776   -0.0246234572   -1.2166938038
 C   -2.6172103048    0.2455330103   -2.2821495572
 H   -0.2116561817    1.6641372611    0.8784880088
 H    0.4757977853   -0.5392774222   -0.7350322539
 H    0.3793134129   -0.5897254988    1.0354114066
 H   -2.8130886826   -2.2979820774    0.1067398297
 H   -3.2702189044    1.0230620186    3.0129379582
 H   -3.0385356493    0.5166531784   -3.2189659775