18

 C   -0.0311350325    1.5484782687   -0.0102045931
 C    0.0380791774    0.0408756494   -0.0018023663
 C   -0.8257881246   -0.7877704163    0.9288917755
 C    0.6731842867   -0.7960263685    1.1014271491
 C    1.4660568598   -1.9295971460    0.4537637063
 C    1.1620240439   -1.7814383702   -1.0165069462
 C    0.4094464684   -0.6968490968   -1.2625064778
 C   -0.0305882928   -0.2747881453   -2.5475714780
 N   -0.4009736520    0.1032958672   -3.5783524599
 H    0.9156532293    1.9909096225   -0.3383873253
 H   -0.8169206955    1.9041909052   -0.6853178033
 H   -0.2531069026    1.9293882490    0.9908312323
 H   -1.4005563753   -0.2493610736    1.6756868304
 H   -1.3172796126   -1.6700824109    0.5312718754
 H    1.0840361140   -0.3108082667    1.9791333308
 H    2.5445091799   -1.8349905374    0.6396274352
 H    1.1775420894   -2.9199176530    0.8294135575
 H    1.4982930191   -2.4835351972   -1.7698565627