16

 O    0.0824277612    1.2541104335    0.6316140774
 C   -0.0057621833    0.0909482568   -0.1869016736
 C   -1.3904815047   -0.4602668468   -0.0855262740
 C   -1.7313141398   -1.8027463547    0.0382252639
 N   -3.1118209662   -1.8723721622    0.0666393850
 C   -3.6413207504   -0.6176324835   -0.0255699170
 C   -2.6000205336    0.2786614130   -0.1244082738
 C   -0.9246022584   -2.9527445859    0.1261270800
 C   -0.2410852985   -3.9437739622    0.2032071224
 H    0.9381512439    1.6617221498    0.4669571964
 H    0.2216888149    0.3455910984   -1.2358073636
 H    0.7174047042   -0.6790872491    0.1208346685
 H   -3.6297766404   -2.7290595018    0.1560417942
 H   -4.7083302366   -0.4631177980   -0.0091574304
 H   -2.6835031651    1.3511841570   -0.1969432024
 H    0.3678405828   -4.8104247943    0.2732898468