18

 C   -0.1270390164    1.5178377367    0.1311194056
 C    0.0339601024    0.0201642509    0.0476771691
 O   -1.1073620541   -0.6834010662   -0.3650198418
 C    1.3540650581   -0.6060634112   -0.3432217262
 O    2.4380095223    0.2582770411   -0.5585667824
 C    0.8338329980   -0.7509301973    1.0780293632
 N    1.5586963119   -0.0696135622    2.1018243841
 C    1.3421796137   -0.2739342711    3.4292472048
 O    0.4966651550   -1.0062369036    3.8953158680
 H    0.7959845258    2.0096208612    0.4414424931
 H   -0.4033073681    1.9251790373   -0.8486068718
 H   -0.9190062404    1.7686593537    0.8428374740
 H   -1.2851562011   -0.4485650463   -1.2835512278
 H    1.3078948302   -1.4793656318   -0.9913143917
 H    3.2482411871   -0.2564336872   -0.4718910912
 H    0.4227791025   -1.7009940276    1.3974947736
 H    2.3193709501    0.5247522501    1.8090951134
 H    2.0478491230    0.3146382634    4.0493976342