22

 C   -1.7739684537   -0.2793818174    0.5810117031
 C   -0.3408364710   -0.4593820360    0.0658178400
 C    0.6049573042   -0.8464375643    1.1843844768
 C    0.9092785713   -2.2886165211    1.5100593830
 C    0.3553651399   -3.3530910927    0.7181236574
 C   -0.0917840335   -4.2756817383    0.0826473889
 C   -0.6359828098   -5.3902369444   -0.6796590181
 N    1.9455898367   -1.3770736998    0.9799014792
 C    2.4564080149   -1.5848397503   -0.3686372959
 H   -1.8195355500    0.4748189441    1.3744002410
 H   -2.4434678484    0.0418624813   -0.2225064049
 H   -2.1609015209   -1.2183644270    0.9890458133
 H   -0.3321751331   -1.2172593913   -0.7216584186
 H    0.0095219279    0.4773002515   -0.3871171719
 H    0.5526198751   -0.1716148138    2.0408687062
 H    1.0700108192   -2.5507525554    2.5544856007
 H   -0.1919043227   -6.3418799355   -0.3669512713
 H   -1.7210340074   -5.4718840933   -0.5499168049
 H   -0.4397795755   -5.2707420111   -1.7509329154
 H    1.7461262417   -2.0388212413   -1.0716280493
 H    2.7813892891   -0.6200132850   -0.7705576856
 H    3.3323131062   -2.2383290187   -0.3089661836