9

 O    0.0978310279    0.0056127324    0.0027308458
 C   -0.0010992801    1.1838397537    0.0095688343
 O   -1.1498067604    1.9185548932    0.0294877292
 N   -0.8337198894    3.2905463861    0.0314538467
 C    0.4556721055    3.3183542090    0.0128305382
 O    1.0420369008    2.0920561044   -0.0010851804
 C    1.2555653924    4.4764637998    0.0069345031
 C    1.9495646150    5.4568235804    0.0017111944
 H    2.5603068481    6.3272357310   -0.0028532612