22

 C   -0.4521135570    1.0976720555   -0.1936442260
 N    0.0708062621   -0.2535159316   -0.0008254049
 C    1.4485751703   -0.5122138431   -0.4116060318
 C    1.0703019063   -0.5291836905    1.0279757286
 C    1.6268175183    0.4856846773    2.0153144116
 C    0.6229139280    0.8296090163    3.1087162817
 C    3.0548031348    0.1226293332    2.5128240304
 C    3.4898159925    1.4096787622    1.7896447943
 O    2.1373567677    1.6944841029    1.3770835855
 H    0.2733406538    1.8977909213   -0.0043652248
 H   -0.8057094984    1.1796010926   -1.2267978589
 H   -1.3172376042    1.2429437612    0.4622187071
 H    1.6206895523   -1.4373338750   -0.9568950643
 H    2.0407859010    0.3400496430   -0.7395113187
 H    0.9233756633   -1.4979370893    1.5098670454
 H    0.3059097977   -0.0770489405    3.6353234647
 H    1.0670362571    1.5161700286    3.8352169053
 H   -0.2656046748    1.3050917198    2.6849455972
 H    3.1778930208    0.1276850278    3.5973402110
 H    3.4615614303   -0.8041904531    2.1054161331
 H    3.8945201132    2.2057570160    2.4253219072
 H    4.1576019249    1.2674159256    0.9317159063