13

 N   -0.0154404498    1.5721933694   -0.1845852723
 C    0.0278689199    0.3162257400   -0.1669290136
 C   -1.1560565312   -0.5836158172    0.1059729284
 C   -2.4225484288    0.1024404944    0.2976367264
 C   -3.4861738358    0.6326145448    0.4621978448
 O    1.1435609919   -0.4803732325   -0.4280364375
 C    2.3575022753   -0.1121274521    0.0805122322
 O    3.3611078385   -0.6750295538   -0.2192558449
 H    0.8733719466    2.0022790086   -0.4384455375
 H   -1.2210457959   -1.2948558328   -0.7283786378
 H   -0.9109129173   -1.1985291078    0.9827431041
 H   -4.4206096058    1.1167801052    0.6037692220
 H    2.2781925627    0.7222333437    0.7975568760