17

 C   -0.1484861774    1.5398930364   -0.1628270252
 C    0.1090885681    0.0390105636   -0.0764081042
 C    1.2689779181   -0.6030597262   -0.9100230414
 C    1.8040747049   -1.2738984410    0.3621964314
 C    2.1731284869   -0.2539855816    1.3768784585
 O    2.7910734019    0.9393448777    0.9749754986
 C    0.7113614487   -0.5604816617    1.2062430656
 H    0.7746393542    2.1059702909   -0.0207045546
 H   -0.5616115657    1.8084579740   -1.1418103459
 H   -0.8706621163    1.8595370588    0.5976208291
 H   -0.8184530847   -0.4970088391   -0.3035652269
 H    0.9115757456   -1.3125460702   -1.6587291675
 H    1.9616059788    0.0977177424   -1.3829498235
 H    2.1610735557   -2.2952602680    0.4238688881
 H    2.5929861696   -0.6804643903    2.2897014507
 H    2.5412280711    1.6263658296    1.6016875740
 H    0.1259962806   -0.9460492954    2.0349595633