16

 C   -0.0484136023    1.4573415449    0.0439253246
 C   -0.0054612974    0.0041399370    0.0065793575
 C    0.0245609753   -1.2014158327   -0.0254319874
 C    0.0574319723   -2.6155937093   -0.0609889891
 C    1.1628514345   -3.4190438054   -0.1913488860
 N    0.6815502641   -4.7158706560   -0.1677131958
 C   -0.6758895098   -4.6365225124   -0.0270348219
 N   -1.4823252430   -5.7723491630   -0.0481150253
 N   -1.0923534789   -3.3984813513    0.0493066469
 H    0.5333612693    1.8558595282    0.8833313865
 H    0.3557127223    1.8960248023   -0.8759104966
 H   -1.0774215304    1.8166523770    0.1561089765
 H    2.2118077644   -3.1954928127   -0.2804552502
 H    1.2138849462   -5.5522197370   -0.3368195688
 H   -1.2143707230   -6.4724783310    0.6341303933
 H   -2.4458572135   -5.5006495087    0.1046925759