19

 C   -0.1653501341    1.5907776518    0.6210789207
 C    0.0912007986    0.1395246036    0.1758555696
 C    0.9452747081   -0.6298069180    1.1327314237
 N    2.2386106282   -0.8506403386    1.0087488667
 C    2.6091589725   -1.5398450271    2.1403495364
 C    1.5324033397   -1.7521381386    2.9624502558
 C    1.3590291765   -2.4364080599    4.2740776783
 O    0.6770100376   -1.6251193613    5.2311209077
 N    0.4714560628   -1.1639107219    2.2987427541
 H    0.7791216838    2.1308724986    0.7318302980
 H   -0.7795396923    2.1189018338   -0.1145088082
 H   -0.6876016063    1.6278578161    1.5829507766
 H   -0.8665546945   -0.3763689985    0.0320658653
 H    0.6065662849    0.1338402955   -0.7879621658
 H    3.6293485861   -1.8584685692    2.2975576535
 H    0.7351182724   -3.3336363456    4.1798763657
 H    2.3433994375   -2.7647875017    4.6365381992
 H    1.1916575358   -0.8171054255    5.3352754136
 H   -0.4655157273   -1.0970523134    2.6617042490