19

 C    0.0399453487    1.5736285800    0.1026947284
 C    0.0012225142    0.0423444435   -0.0039102740
 C    0.6114183653   -0.5999044691    1.2489947765
 O   -1.3623057164   -0.4085911429   -0.0158489684
 C    0.6990404179   -0.4510291865   -1.2511581332
 C    1.5466161345    0.2148940276   -2.0828050161
 O    1.9614894883   -0.5867141605   -3.1008082952
 C    1.3602683530   -1.7926417521   -2.9187805415
 C    0.5798042935   -1.7734390747   -1.8104719250
 H    1.0657050800    1.9446841159    0.1952047331
 H   -0.4103979741    2.0378725138   -0.7810641366
 H   -0.5227384231    1.8921253343    0.9840028739
 H    0.0534897262   -0.2852434736    2.1358911973
 H    0.5627774762   -1.6893253548    1.1793805527
 H    1.6577804418   -0.3050826242    1.3628604485
 H   -1.7609522305   -0.0989606095   -0.8366179599
 H    1.9430946787    1.2162848297   -2.0912193901
 H    1.5859845330   -2.5429893167   -3.6584985550
 H   -0.0255210971   -2.5790309902   -1.4265825256