21

 C   -0.0015969547    1.4899651371    0.0469525689
 C   -0.0203619625   -0.0055544894   -0.0130506799
 C    0.0119389521   -0.7702403322   -1.1107017872
 C   -0.0296723040   -2.2481786297   -0.7961551781
 C    0.0164396383   -2.2801883415    0.7315858356
 O   -0.7215401448   -3.2648072767    1.3940987513
 C    1.2200585651   -1.6881905798    1.4205811325
 C   -0.0471421836   -0.8513229135    1.2320007177
 C   -0.8612295842   -0.4370618547    2.4338509409
 H    0.8705003430    1.8548881397    0.6048375237
 H    0.0257042019    1.9291539266   -0.9539584819
 H   -0.8863250537    1.8811231982    0.5642763741
 H    0.0734333013   -0.3911245523   -2.1252777031
 H   -0.9587074616   -2.7184023424   -1.1466690184
 H    0.7991077561   -2.8015374624   -1.2575837482
 H   -0.1772464761   -4.0570165152    1.4535497561
 H    1.4074720572   -2.0522458143    2.4267642553
 H    2.1051556505   -1.4373358253    0.8440639406
 H   -0.4225566007    0.4290585470    2.9418787453
 H   -1.8854351841   -0.1746466220    2.1460244473
 H   -0.9220913955   -1.2596532870    3.1510064676