19

 C   -0.2107424167    1.5944622838   -0.0190433211
 C   -0.0378460345    0.0828490374   -0.0118379675
 C    1.2056068311   -0.5586113268   -0.6759266025
 C    2.1292070502   -0.2852362938    0.5493180435
 O    2.8819042889    0.8659073589    0.6828613288
 C    2.6067192317   -1.7513847693    0.6615756368
 C    1.1150647694   -1.8186616125    0.2729762280
 O    0.3030765705   -2.9235481161    0.1225189286
 C    0.7059515912   -0.6057052403    1.1596264043
 H    0.7193893354    2.1036746870    0.2450958701
 H   -0.5217086495    1.9461812002   -1.0094588761
 H   -0.9853461615    1.9010651905    0.6934912485
 H   -0.9734741984   -0.4220854039   -0.2782727362
 H    1.5230680432   -0.5585249172   -1.7211170994
 H    3.2496705722    0.8864484504    1.5731527593
 H    3.3348678278   -2.0857352011   -0.0857372713
 H    2.8694071745   -2.1158450024    1.6609808540
 H    0.6355778689   -3.4485439728   -0.6134992317
 H    0.4512378156   -0.6563048220    2.2205374737