16

 C   -0.0306107645    1.5458436183    0.0509917204
 C   -0.0068314012    0.0435468749    0.0080901259
 C   -0.0317559221   -0.6644159280   -1.1528207492
 N   -0.0091996736   -2.0249660956   -1.1717376530
 C    0.0413849348   -2.8534300416   -0.0305107539
 O    0.0570139913   -4.0680473685   -0.1582771504
 C    0.0671981815   -2.1008788985    1.1998019668
 C    0.0445098580   -0.7332543970    1.2145983224
 O    0.0684153939   -0.0073529552    2.3593851979
 H    0.8601175202    1.9478716063    0.5457596626
 H   -0.0750543476    1.9602165249   -0.9597328044
 H   -0.8953174453    1.9179374519    0.6108852487
 H   -0.0709653880   -0.1770449491   -2.1203188433
 H   -0.0288449446   -2.5254396878   -2.0485634680
 H    0.1057550311   -2.6773154903    2.1177625732
 H    0.1021783761   -0.6072505146    3.1133836444