15

 O   -0.2189851303    1.3758228046   -0.5782258153
 C   -0.0240607386    0.0607922896   -0.0962040433
 C   -1.3518830661   -0.6390149769    0.0770849593
 O   -1.9252921039   -1.2484151129   -1.0635676499
 C   -1.5400691091   -2.1238015593    0.0032754617
 C   -0.3827893188   -3.0302699674   -0.2825652294
 O   -0.0868329717   -3.9536883432    0.4332201230
 C   -2.6725995388   -2.7032524484    0.8247443786
 O   -3.7234556241   -2.1373288301    0.9674481831
 H   -0.6114532073    1.3128311617   -1.4561471986
 H    0.6365046103   -0.5236275133   -0.7513815467
 H    0.4659345292    0.1597708058    0.8778865313
 H   -2.0775491178   -0.1184573900    0.7040769727
 H    0.1635351040   -2.7983083756   -1.2204932208
 H   -2.4454720771   -3.6824825944    1.2864942644