20

 C    0.1814818040    1.2961518886   -0.1700760558
 C   -0.0538717008   -0.1478772936    0.2842357157
 C   -1.4926470433   -0.6133324907    0.0857593778
 C   -1.9404765127   -1.0261828600   -1.3215925416
 C   -1.7819638353   -2.0808781038   -0.2877547152
 O   -0.7260619261   -2.9594683042   -0.4369772112
 C   -0.4179017850   -3.6701742333    0.7529327731
 C   -2.4751549327    0.0284002391    0.9184728644
 N   -3.2616926529    0.5361016525    1.5999950768
 H    1.2230437602    1.5876501502   -0.0060414123
 H   -0.0389474282    1.4162675386   -1.2357035180
 H   -0.4549387676    1.9929490230    0.3841485435
 H    0.5950586125   -0.8341878953   -0.2675871806
 H    0.2088323090   -0.2478861001    1.3438494870
 H   -2.9381368150   -0.7617616960   -1.6499461828
 H   -1.1708182020   -0.9739675023   -2.0838695755
 H   -2.6824321569   -2.5147193280    0.1478384759
 H    0.3945769526   -4.3574332302    0.5097413978
 H   -0.0946538239   -2.9950963236    1.5560618920
 H   -1.2840801758   -4.2473459811    1.1057963090