21

 O    0.1529938154   -0.1191132913   -0.2185835831
 C    0.0741699959    1.0800275562   -0.1227020338
 C    1.2502615078    2.0227242188   -0.0894751324
 C    1.1959333419    3.1226182780   -1.1750139001
 C    2.2388746174    4.1520835848   -0.6947872860
 C    2.1201455156    4.1645640443    0.8388673222
 C    0.9305946385    4.9731794800    1.4322568175
 C    0.1644216746    3.6536927269    1.7239678115
 C    1.3927174822    2.8251441712    1.2263418091
 H   -0.9219067837    1.5764580887   -0.0549876487
 H    2.1502390896    1.4134744421   -0.2282341033
 H    1.4034340580    2.7346804976   -2.1758169714
 H    0.1946500827    3.5711245698   -1.2046933605
 H    3.2402413833    3.8149266904   -0.9859320007
 H    2.0900371840    5.1419468857   -1.1382849174
 H    3.0811080197    4.3543930708    1.3212212459
 H    1.1898856689    5.5415764245    2.3285403507
 H    0.4412938119    5.6561450238    0.7310292818
 H   -0.0914100447    3.4874121547    2.7726278683
 H   -0.7492649652    3.5294777192    1.1379590225
 H    1.8593474462    2.2273952037    2.0110086381