20

 C    0.0343465346    1.5194493254   -0.0305996704
 C   -0.0061032398    0.0256612429   -0.0216270950
 C   -1.0333578293   -0.7883061926    0.2013620335
 C   -0.6157868213   -2.2365686037    0.1109305005
 C   -0.7855896380   -2.9847158813    1.4415060999
 C   -1.3217114558   -2.9849915506   -1.0294751036
 O    0.7942992612   -2.1635536981   -0.1950152693
 C    1.2191960419   -0.8128514084   -0.2873838331
 H    0.7428758036    1.9014533922    0.7152412618
 H    0.3697808820    1.9012320358   -1.0031979135
 H   -0.9476935749    1.9489549691    0.1825551727
 H   -2.0515748026   -0.4899264383    0.4222566809
 H   -1.8436051129   -3.0691440675    1.7116557361
 H   -0.3701146839   -3.9939683322    1.3615860932
 H   -0.2638795986   -2.4576402915    2.2446560968
 H   -1.1797518025   -2.4581275480   -1.9767353251
 H   -0.9104563133   -3.9942600159   -1.1286908261
 H   -2.3965523448   -3.0693935920   -0.8368637727
 H    1.6456223880   -0.6144383532   -1.2850540134
 H    2.0207425464   -0.6142155122    0.4437928869