23

 C    0.2050328200    1.5826218210    0.2772842608
 C    0.1308224114    0.0558863073    0.1179870189
 C    0.7584482359   -0.6160806793    1.3530742565
 C   -1.3620167753   -0.3803764860   -0.0197415240
 C   -2.2128853979   -0.0327615554    1.1120075859
 C   -2.9104919889    0.2580896260    2.0476986304
 C    0.8518535535   -0.4602601429   -1.1304346052
 C    0.8260599964    0.2299049843   -2.4717694518
 C    2.1142408500    0.1454489191   -1.6878199027
 H    1.2359044846    1.9198730357    0.4186497073
 H   -0.2117388996    2.1084818133   -0.5876433420
 H   -0.3691121507    1.8927325166    1.1544933897
 H    0.2378977838   -0.3218308698    2.2689650370
 H    0.7098053321   -1.7081160563    1.2753544145
 H    1.8118562134   -0.3346037738    1.4478561877
 H   -1.7732991752    0.0670894169   -0.9332244354
 H   -1.3971079153   -1.4672764942   -0.1714838679
 H   -3.5336994160    0.5095119736    2.8696613419
 H    0.8178575761   -1.5468576954   -1.1906534222
 H    0.7173380770   -0.3820694312   -3.3605802956
 H    0.3528859441    1.2024489101   -2.5487192581
 H    2.4895730598    1.0623826258   -1.2478450395
 H    2.8921551607   -0.5247172154   -2.0370009560