18

 C    0.0392375976    1.5354756443   -0.0183302982
 C    0.0645752275    0.0233087392    0.1357142715
 O    0.6769241686   -0.5355352893   -1.0384346460
 C    1.2102404184   -1.8098235368   -0.7193077271
 C    1.6179804875   -1.7318889639    0.7456843619
 O    1.8533629886   -2.9128968504    1.4400308927
 C    2.3844419138   -0.5147468198    1.1467436738
 C    0.8723766403   -0.5356052813    1.2959090573
 H    1.0553523631    1.9384418443   -0.0493018837
 H   -0.4719644197    1.8134858076   -0.9444636630
 H   -0.4926692921    1.9944481479    0.8207908703
 H   -0.9712756100   -0.3499597238    0.2219653563
 H    0.4588481745   -2.6116364920   -0.8430599716
 H    2.0386154583   -2.0102023868   -1.4067684707
 H    1.0313118752   -3.4163545829    1.4653397294
 H    2.9531129159   -0.5995725015    2.0654446157
 H    2.8346271077    0.1015128198    0.3750011100
 H    0.4417236049   -0.5499939847    2.2901679815