17

 C    0.0029868220    1.4127693612    0.0062389744
 C    1.4447300409    1.9522027644    0.0058082982
 C    2.1934677780    1.2243138904   -1.0637509278
 C    1.7103140705    0.0677505277   -1.6097370605
 C    0.4269516545   -0.5884248744   -1.2123770122
 O   -0.0398516250   -0.0123920171   -0.0042266084
 N    2.6345134199   -0.3041187043   -2.5608233240
 C    3.6268654650    0.6397345454   -2.5341373396
 N    3.3928229579    1.5760918714   -1.6441973418
 H   -0.5343501316    1.7148709237    0.9089229905
 H   -0.5411909324    1.8110749542   -0.8654146441
 H    1.4367364387    3.0328468994   -0.1768074755
 H    1.9066394165    1.7971586631    0.9891253103
 H   -0.3359314878   -0.4912825853   -2.0068475005
 H    0.5496610917   -1.6596064835   -1.0099628414
 H    2.6014444666   -1.1165844986   -3.1535088262
 H    4.4853797746    0.5837201523   -3.1867072116