16

 N   -0.0831713439    1.2964380399    0.2174417398
 C    0.0049987139    0.0396399611    0.0377666257
 N    1.1783293645   -0.6997250265   -0.0700896372
 C    1.2201145215   -2.0056580954   -0.5455401298
 N    0.2382028500   -2.7344337384   -0.8854641837
 C   -1.0978091021   -2.2036793998   -0.7229359424
 C   -1.7731912335   -2.6986754924    0.5770839619
 O   -1.6097019132   -1.4022544266    1.1961873864
 C   -1.2438713000   -0.7995999185   -0.0667905895
 H    0.8370501551    1.7399402783    0.2844902718
 H    2.0547524021   -0.2136176343    0.0462301038
 H    2.2329552766   -2.3989761427   -0.6279988755
 H   -1.6622833981   -2.3656007056   -1.6438009244
 H   -2.8317045708   -2.9688451686    0.4717812432
 H   -1.2366162415   -3.4883514229    1.1109129295
 H   -2.0511075506   -0.1740069375   -0.4609698895