20

 C   -0.0353856575    1.5658452302    0.0000838628
 C    1.4873850630    1.9271821475    0.0529237119
 N    2.2031894318    0.6668642519   -0.2508511605
 C    1.7839045522    0.2803913489   -1.6409343215
 C    0.4828494667   -0.5340122828   -1.4015637830
 O    0.8782420885   -1.8734177157   -1.0913226418
 C    1.6517734204   -1.7471677527    0.1177450224
 C    1.4130401453   -0.3061156330    0.5675055038
 C    0.0226223958    0.0310872007   -0.0397084658
 H   -0.5734165392    1.9262972908    0.8811522802
 H   -0.5375458748    1.9847605577   -0.8779718420
 H    1.7824160065    2.7064931119   -0.6535084181
 H    1.7742700155    2.2594981847    1.0557513648
 H    1.6476692070    1.1702192046   -2.2607021956
 H    2.5360559016   -0.3559237132   -2.1133699643
 H   -0.2356602807   -0.5613994253   -2.2211980773
 H    1.2872052624   -2.4725601041    0.8532629331
 H    2.7130489328   -1.9468184263   -0.0764978783
 H    1.5555481234   -0.1279921314    1.6344633125
 H   -0.8403466209   -0.4957589943    0.3684559867