19

 C    0.0158255850    1.4975945770    0.1553394341
 C   -0.0263417940   -0.0305272449   -0.0228023004
 C    0.6827457645   -0.5122767177   -1.2541521543
 C    0.1014889464   -0.9518354179   -2.4177390555
 N    1.1092415816   -1.2871774370   -3.3141458280
 C    2.3124213115   -1.0672467530   -2.7206298016
 O    3.4682668458   -1.3223685121   -3.3698660694
 C    2.1077497407   -0.5856531923   -1.4502157834
 N    3.2160843841   -0.2820964676   -0.6009334838
 H    1.0466572575    1.8593394863    0.2323901102
 H   -0.4458972473    2.0003759292   -0.6999409264
 H   -0.5145779517    1.8055043033    1.0627739339
 H    0.4129373047   -0.5015693383    0.8673713513
 H   -1.0711291165   -0.3603679653   -0.0544931502
 H   -0.9354042123   -1.0611356086   -2.6904847385
 H    0.9865659430   -1.6505319637   -4.2422669111
 H    4.1593096770   -1.0952476484   -2.7292302361
 H    3.1911196408   -0.8151213295    0.2634316486
 H    3.2414216689    0.6988978105   -0.3385620893