25

 C    0.2221428287    1.6630580336   -0.0490288239
 C    0.0778252078    0.1498873890    0.0220615224
 C    0.9263204537   -0.7507354544   -0.9266492910
 C    1.1828173130   -1.7521938571    0.2499495744
 C    0.5678762667   -3.1266750336    0.0929342851
 C    2.5780060869   -1.6378326875    0.9273169294
 C    3.8562469963   -1.5990766742    0.1013221248
 C    2.0943570924   -0.3510580387    1.6618944049
 C    0.6268434960   -0.6498504455    1.2295938637
 H    1.2654836577    1.9785181048    0.0566219660
 H   -0.1383297907    2.0450428627   -1.0110081385
 H   -0.3560359967    2.1557273507    0.7410732147
 H   -0.9806769376   -0.1098600546   -0.0991155369
 H    0.3975860152   -1.1672710449   -1.7883629713
 H    1.8309200122   -0.2587732807   -1.2959385170
 H    1.0967082923   -3.7122434224   -0.6701168299
 H    0.6078833108   -3.6915214853    1.0314842632
 H   -0.4825745480   -3.0651007286   -0.2149270464
 H    2.6558203747   -2.4532175447    1.6578853023
 H    3.8463847331   -0.7833179395   -0.6291794752
 H    4.7307526327   -1.4493525365    0.7446649796
 H    4.0076042999   -2.5357943797   -0.4473852244
 H    2.2742330139   -0.3257889286    2.7391723116
 H    2.5016917198    0.5710287645    1.2358572291
 H   -0.0623653206   -0.8798974990    2.0455392333