17

 C    0.2464041445    1.3026231411   -0.1295863914
 N   -0.2202627153   -0.0085853487    0.2720131608
 C    0.5642035466   -0.7164382408    0.9494181729
 O    0.1783323482   -1.9610465204    1.3420595981
 C    1.0884094166   -2.6493353301    2.1674025990
 C    0.7518812331   -4.1555879957    2.3107971396
 N    2.0840457905   -4.4334338702    1.7576034864
 C    2.4164777465   -3.1299622113    1.4968149233
 O    3.3474666693   -2.5966030303    0.9571380176
 H    1.2628843439    1.5445929005    0.2198919401
 H    0.2324585496    1.3764854466   -1.2228014382
 H   -0.4413483667    2.0671082895    0.2493692475
 H    1.5782995889   -0.4346118650    1.2619486939
 H    1.2448511312   -2.1283059216    3.1187083318
 H    0.6002174467   -4.5177137268    3.3309629694
 H   -0.0776347846   -4.4617572462    1.6681888727
 H    2.5401457511   -5.2987895103    1.5089918265