18

 C   -0.0153843800    1.5239330031    0.0527881544
 C   -0.1944624386    0.0175888418   -0.1071606034
 N    0.9256902562   -0.5469474810   -0.8538805634
 C    0.9004788752   -1.9694535563   -1.0783088784
 C   -0.3918161695   -2.5121190102   -1.5784235309
 N   -1.4080107242   -2.9129181358   -1.9584705437
 C    1.9972678865   -2.3235402732   -2.1235508633
 N    2.3999922968   -3.6197582869   -2.1005135822
 O    2.4379477862   -1.4849923001   -2.8769904597
 H    0.9273059565    1.7519142282    0.5579305007
 H   -0.0068180725    2.0229326754   -0.9227217915
 H   -0.8379130558    1.9480282645    0.6354366722
 H   -0.2161558211   -0.4603189565    0.8813855861
 H   -1.1689905018   -0.1962071968   -0.5779713772
 H    1.0787807719   -0.0823365208   -1.7441185979
 H    1.1180934689   -2.4973763030   -0.1391188647
 H    1.9040302870   -4.3148231428   -1.5681692916
 H    3.0033813183   -3.9356828597   -2.8434421656