25

 C   -0.1281325353    1.5331536631    0.4083555548
 C   -0.2356742459    0.0077746933    0.4787421484
 C   -1.2358979668   -0.5612123533   -0.5399006123
 C   -1.4093549336   -2.0679441447   -0.4327936008
 C   -0.2264723811   -2.8968712194   -0.8973679262
 O   -1.9976368548   -2.5299619653    0.8006850633
 C   -2.7386188452   -2.7142151755   -0.4143632383
 C   -4.0840161996   -2.0357939769   -0.5162706464
 C   -5.1372268840   -2.7457534846    0.3448143263
 H    0.5840507843    1.9165187055    1.1457162605
 H    0.2074905321    1.8639154245   -0.5812202852
 H   -1.0962261206    2.0083281346    0.6030780294
 H    0.7558846234   -0.4322433334    0.3188881159
 H   -0.5525899037   -0.2998506334    1.4817856614
 H   -2.1984962004   -0.0623552505   -0.3955593821
 H   -0.9076590593   -0.3166057507   -1.5592211446
 H    0.6769675629   -2.6473197815   -0.3322751306
 H   -0.4257658507   -3.9620840898   -0.7575130132
 H   -0.0189234333   -2.7167517688   -1.9579619999
 H   -2.7604521121   -3.7574552215   -0.7460283400
 H   -4.0058889958   -0.9901024634   -0.2069957224
 H   -4.3975495546   -2.0376531140   -1.5686097476
 H   -6.1093678742   -2.2502087026    0.2670515923
 H   -5.2663943608   -3.7883700784    0.0344514588
 H   -4.8351994310   -2.7446787835    1.3963101187