19

 O    0.2709437450    0.1498027000   -0.4550504317
 C    0.3341687108    1.3422136148   -0.4521391793
 O    0.8307779025    2.0437466170    0.5828966527
 C    0.8937716518    3.4709845388    0.4637029058
 C    2.3439140598    3.9331660321    0.3630444649
 C    2.4376087448    5.4467221963    0.2730658344
 C    3.7818371917    6.0745160953   -0.1571190108
 C    2.9644429714    6.6773345769   -1.3175795060
 O    1.7766289821    5.9639809807   -0.9093448971
 H   -0.0080114722    1.9902375497   -1.2834110086
 H    0.3296401260    3.8068798363   -0.4140857694
 H    0.4112186816    3.8811606869    1.3565871617
 H    2.9030019508    3.5822917809    1.2388040094
 H    2.8052994369    3.4852951167   -0.5250268126
 H    2.0107653023    5.9051273503    1.1779792821
 H    4.2262765334    6.7843219450    0.5413121376
 H    4.5370415599    5.3464575464   -0.4601188869
 H    2.8214279640    7.7639528135   -1.2697224856
 H    3.2766517174    6.4056797824   -2.3321345206