17

 C   -0.0162813358    1.3876535639   -0.0759810300
 C    0.0422245094   -0.0990892998   -0.0007185681
 O   -0.4490269517   -0.8708389555   -1.1062655980
 C   -0.3902366895   -2.0297229240   -0.2300700616
 C   -0.3403303925   -1.0978287184    1.0366547544
 C    1.1517293190   -0.9271476011    0.6812903290
 C    1.1156117397   -2.2479615681   -0.0406506380
 C    1.8400795521   -3.4825084789    0.2326004001
 O    2.0154932866   -2.7492362914   -0.9983464328
 H    0.6125988752    1.7544570203   -0.8936062823
 H   -1.0419013500    1.7270192933   -0.2496399878
 H    0.3431164188    1.8301886109    0.8576440457
 H   -1.0939225069   -2.8185914136   -0.4841664471
 H   -0.8616817086   -1.0691480472    1.9822780784
 H    1.9394867585   -0.4909361546    1.2807913599
 H    2.6959715699   -3.4735201717    0.9062004059
 H    1.3426269056   -4.4466383142    0.1309384322