17

 C    0.0164253769    1.5942896840    0.0225965546
 C   -0.0375256084    0.0972410993    0.0927956378
 C    1.1812086377   -0.7788984231   -0.3637425346
 O    2.3913267600   -0.1067194926   -0.4402874105
 C    0.6293892226   -0.9825869093    0.9976964658
 O    1.4132777428   -0.7038995069    2.1078914854
 C   -0.6262100296   -1.8564731318    0.9712682480
 C   -1.2561865797   -0.7656030126    0.0580461239
 O   -2.3590903392   -0.6220797213   -0.3918578648
 H    1.0386859247    1.9369286430   -0.1558840355
 H   -0.6107597391    1.9402975613   -0.8053303910
 H   -0.3561981964    2.0595395281    0.9403131510
 H    1.0709934567   -1.5070641588   -1.1641422893
 H    2.6797466772    0.0549002009    0.4696140793
 H    1.8731428522   -1.5123445520    2.3672984094
 H   -0.5405199614   -2.8750816776    0.5797244529
 H   -1.1434733970   -1.8711929005    1.9358325074