15

 O   -0.0553348555    1.3951555138    0.1931346127
 N    0.0735047263    0.0102734179    0.0142617769
 C   -1.0693346575   -0.5641751880   -0.1148624668
 C   -1.0458210699   -2.0720948284   -0.2528359826
 C   -2.2228576964   -2.6806277068   -1.0048051077
 O   -2.1948032854   -3.7720510461   -1.5271776097
 N   -3.3790711653   -1.9176325354   -0.9857533402
 C   -3.4457467301   -0.6072162632   -0.5342685230
 C   -2.3697189615    0.0782675451   -0.1102031318
 H    0.8623188632    1.6728402774    0.2798195058
 H   -0.1190653461   -2.4198410903   -0.7099452333
 H   -1.0868310619   -2.5210529775    0.7512276860
 H   -4.1820920563   -2.3423108478   -1.4253617418
 H   -4.4352800810   -0.1673831335   -0.5740099392
 H   -2.4583072128    1.1109516031    0.1907575747