25

 C    0.0132783103    1.5506746191    0.0055802744
 C    0.0262022006    0.0150027120    0.0337700208
 C    0.8073641075   -0.4866020485    1.2570495278
 C   -1.4001731666   -0.5676114465   -0.0100907633
 C   -2.2234182169   -0.1407628774   -1.2550546943
 C   -3.2796928636   -1.2483185460   -1.4653681710
 C   -2.6347515744   -2.5102649471   -0.9112939503
 C   -1.2146437969   -2.8101623005   -1.3246613206
 C   -1.4865575878   -2.0940687366   -0.0205563054
 H    1.0321029762    1.9509285595    0.0384208185
 H   -0.4673716895    1.9410151735   -0.8961104775
 H   -0.5265944626    1.9525135593    0.8720036856
 H    0.5501309782   -0.3369878477   -0.8670144744
 H    0.8991440087   -1.5764368961    1.2610246520
 H    1.8189465823   -0.0672233309    1.2751199680
 H    0.3107045670   -0.1879068022    2.1886740126
 H   -1.9284340405   -0.2199314700    0.8914318195
 H   -2.6785542853    0.8454767247   -1.1363570907
 H   -1.5639211354   -0.0745001324   -2.1282024607
 H   -4.1850128132   -1.0255570471   -0.8874537787
 H   -3.5838623436   -1.3374563644   -2.5144021995
 H   -3.2749187720   -3.3438082510   -0.6428368033
 H   -0.8889588753   -3.8428120834   -1.2612713751
 H   -0.7745688991   -2.2654477248   -2.1541861302
 H   -1.2847822982   -2.6284158752    0.9009317659