16

 C    0.0627804477    1.2881452484    0.3312344115
 N   -0.0377158241   -0.0357975473   -0.2602142814
 C   -1.1970689679   -0.7693558581   -0.1129509032
 N   -1.2610542241   -2.0787244409   -0.0952369692
 C   -2.6189537501   -2.3762780040   -0.0078222824
 C   -3.3588635868   -1.2221268540    0.0366041628
 N   -2.4357733162   -0.1922833944   -0.0255428639
 C   -3.1077761539   -3.7036052119    0.0349292439
 C   -3.5300196606   -4.8307336246    0.0725871035
 H    1.0805698862    1.6575715762    0.1920079692
 H   -0.6014887217    1.9913158736   -0.1854560931
 H   -0.1749932714    1.3143344287    1.4056840064
 H    0.7681859813   -0.6276022574   -0.1180943561
 H   -4.4166126507   -1.0425163720    0.1188568303
 H   -2.6477158015    0.7897769275   -0.0526526055
 H   -3.8977702962   -5.8257958300    0.1037439271