19

 C   -0.4512014260    1.3974844063    0.0158119894
 C    0.1076129956   -0.0128611662    0.0321950354
 O    0.5496028524   -0.5309550569    1.0377895660
 C    0.0802453567   -0.7069552141   -1.2363281579
 C    0.0632364755   -1.2990391986   -2.2916004156
 C    0.0395846204   -1.9932347888   -3.5447381652
 C   -0.5429371015   -1.2218079922   -4.7199322554
 C    1.1842803648   -2.9692409689   -3.8119261743
 C   -0.1753181527   -3.5048879555   -3.4896020003
 H    0.1049289466    2.0154235417   -0.6973865373
 H   -1.4947424300    1.3858489499   -0.3169026752
 H   -0.3828728169    1.8280955056    1.0159452323
 H    0.0265448956   -0.3066376864   -4.9087944420
 H   -0.5178134228   -1.8320018733   -5.6277301117
 H   -1.5827861613   -0.9405780379   -4.5272197268
 H    1.5348809744   -3.0257465231   -4.8367676931
 H    1.9592460719   -3.0483776119   -3.0595447194
 H   -0.3338285501   -3.9517626693   -2.5159056285
 H   -0.7679021227   -3.9330163304   -4.2908295905