15

 C   -0.0767663385    1.4429799145    0.0120107270
 C   -0.0156608634   -0.0099195449    0.0065473816
 C    0.0314562587   -1.2153053558    0.0024078286
 C    0.0823296447   -2.6286619034   -0.0019322546
 C    1.1985699763   -3.4227273936   -0.0908068260
 N    0.7310357416   -4.7269317454   -0.0538999506
 C   -0.6208892446   -4.6471823356    0.0536104557
 O   -1.3482286894   -5.7744468960    0.1111939904
 N   -1.0651949624   -3.4243182368    0.0891808590
 H    0.9268608394    1.8814732317    0.0462823722
 H   -0.5746502136    1.8270746720   -0.8858988773
 H   -0.6299699580    1.8159467007    0.8816165369
 H    2.2455066904   -3.1888488615   -0.1740116436
 H    1.2730225692   -5.5727793540   -0.0972461738
 H   -2.2700713903   -5.4963738618    0.1845996944