18

 O   -0.0757069402    1.2865305705    0.0246573417
 N    0.0217554383   -0.1127444545    0.1098496861
 C   -1.1196613373   -0.6571573323    0.0552688853
 C   -2.5442624590   -0.2040429203   -0.2164233397
 C   -2.8336012290   -1.6643184842   -0.6156775808
 C   -4.1246014614   -2.4156887586   -0.6600704219
 C   -3.3631911326   -2.1337400288   -1.9376004890
 C   -1.4739701943   -2.1364097195   -0.0323741021
 O   -0.6579419614   -3.0067743285   -0.7651803822
 H    0.8480093081    1.5575459858    0.0657092510
 H   -3.0715461723    0.1338620907    0.6823662242
 H   -2.6488146252    0.5621003785   -0.9896642498
 H   -4.1331166817   -3.4352458800   -0.2869833774
 H   -5.0431016326   -1.8654490927   -0.4815949074
 H   -3.7662146113   -1.3960394976   -2.6240810260
 H   -2.8459602664   -2.9629759535   -2.4098972058
 H   -1.5965930620   -2.5942987778    0.9567775814
 H   -0.3249714094   -2.5220329273   -1.5288855977