23

 C   -0.7025959008    1.0983733178   -0.0869603354
 O   -0.9081436154   -0.2249655717   -0.5268646316
 C    0.0756338931   -0.6708698665   -1.4221038933
 C    1.4170968756   -1.2595105071   -0.8773122965
 C    0.5702675710   -2.4425510586   -0.3262320843
 C    0.0144157644   -2.1830900155   -1.7668782285
 C   -1.1063098779   -2.9058068625   -2.4657160368
 C    1.5162599304   -2.0629704517   -2.2132452293
 C    1.9327521428   -1.4254547968   -3.5335652839
 H    0.2280450336    1.2014962686    0.4906897803
 H   -0.6623774654    1.8052872030   -0.9309236756
 H   -1.5467341512    1.3644475886    0.5539816013
 H    0.1532813158    0.0329048069   -2.2597250024
 H    2.2254909924   -0.7302415882   -0.3704736768
 H    1.0992766112   -3.3888424560   -0.1796645486
 H   -0.1042912665   -2.2176403770    0.4984981472
 H   -2.0523528757   -2.7584052930   -1.9345039906
 H   -1.2364464476   -2.5389339428   -3.4902532700
 H   -0.9107456317   -3.9824671995   -2.5171924954
 H    2.0550189112   -3.0085335045   -2.0829302547
 H    1.4518814476   -0.4658344058   -3.7363012393
 H    3.0156899421   -1.2589807341   -3.5484669769
 H    1.6968601010   -2.0937133136   -4.3696466088