19

 C   -0.0353440464    1.3012768432   -0.3804638657
 O   -0.0804763376   -0.1115155320   -0.2998443353
 C   -1.3005059107   -0.6058725856    0.1844154387
 O   -2.3779275806   -0.3865588489   -0.7228533028
 C   -2.7669685459   -1.6187139681   -1.2954483301
 C   -4.1920789637   -1.7359552673   -1.7637491848
 C   -3.0656282521   -1.6677733761   -2.7736677848
 C   -2.0299347986   -2.6688444976   -0.5651595909
 C   -1.2055871035   -2.1035058382    0.3112562390
 H    0.9715886764    1.5715112819   -0.7060441098
 H   -0.7657026138    1.6859410967   -1.1024330019
 H   -0.2307429701    1.7659275159    0.5984840782
 H   -1.5554024201   -0.0756579641    1.1174278289
 H   -4.7102350881   -2.6775766853   -1.6169523848
 H   -4.8069738365   -0.8516733411   -1.6398455313
 H   -2.9349504266   -0.7372223349   -3.3139903078
 H   -2.8011771357   -2.5614439348   -3.3287163440
 H   -2.1659919774   -3.7254167687   -0.7558170114
 H   -0.5121477492   -2.5883647249    0.9835111507