19

 C    0.0059452204    1.4511875942   -0.2701329128
 C    0.0333098573   -0.0439596722    0.0616875810
 C   -1.3593324366   -0.6495163852    0.1176688089
 N   -2.1048312717   -0.6686631856   -1.1698845166
 C   -2.6691590295   -2.0007925331   -0.8711348252
 C   -2.7072721670   -2.9242488726   -2.0030559359
 N   -2.7113826444   -3.6598342662   -2.8945094193
 C   -1.5216812525   -2.2019867017    0.1878577430
 O   -0.4369279156   -2.9791636137   -0.2188778970
 H    1.0179033243    1.8638688976   -0.3126349152
 H   -0.4650608175    1.6245553120   -1.2431909078
 H   -0.5538019314    2.0177490541    0.4827200637
 H    0.6283508140   -0.5775363879   -0.6870298838
 H    0.5231698456   -0.2103689552    1.0289863025
 H   -1.9347016240   -0.1835848633    0.9338062331
 H   -2.7849777050    0.0676626158   -1.3216628367
 H   -3.6548903619   -1.9912674167   -0.3857211910
 H   -1.8471866633   -2.6062829156    1.1465964668
 H   -0.1911556712   -2.7340686147   -1.1188327977