21

 C   -0.0963853628    1.3645567006    0.0187473838
 O    0.1487406357   -0.0293925855    0.0301932286
 C    0.7015109213   -0.5364683336   -1.1332529103
 C   -0.0028823702   -0.5296031325   -2.5376159001
 C    1.0378017293   -1.6497620615   -2.7630139749
 O    2.2997350534   -0.9501108185   -2.7127190761
 C    2.1242159782   -0.1048712174   -1.5589266333
 C    0.8026364226   -2.0864553666   -1.2915770750
 C    1.8450215893   -2.9027754304   -0.5475892776
 H    0.8322834355    1.9493402005   -0.0365674864
 H   -0.7429211739    1.6542790365   -0.8214908609
 H   -0.6050036280    1.6044853573    0.9549495487
 H   -1.0314931510   -0.8898220166   -2.4898345255
 H    0.0844774206    0.3571767583   -3.1689548344
 H    1.0289004947   -2.3299976962   -3.6117253142
 H    2.1966950119    0.9492495435   -1.8500108906
 H    2.8831532175   -0.3187717932   -0.7982708848
 H   -0.1971059684   -2.5130367303   -1.1728385973
 H    2.8591413765   -2.6144020100   -0.8350248747
 H    1.7401913794   -2.7769581601    0.5352420701
 H    1.7294172385   -3.9686765342   -0.7699371551