18

 C   -0.0287858831    1.5202995235    0.0852538689
 C    0.0138113416    0.0327308960   -0.0433172722
 C    0.0404500988   -0.8031068873   -1.1337564719
 C    0.0354567689   -0.7970350945   -2.6293064364
 O    0.1604712636   -2.1796524727   -2.9990229719
 C    0.0956488240   -3.0564457497   -1.8622417622
 C    0.0756761398   -2.1424043938   -0.6801279597
 C    0.0704268504   -2.1264989726    0.6896312161
 N    0.0319831676   -0.7970386122    1.0626324380
 H    0.8245553106    1.9123840044    0.6529617599
 H   -0.0019130268    1.9808125996   -0.9048887750
 H   -0.9413731720    1.8694590402    0.5850641823
 H   -0.8933274940   -0.3875085803   -3.0567528945
 H    0.8734649921   -0.2423601970   -3.0749079481
 H   -0.8054367151   -3.6848300383   -1.9359916922
 H    0.9663865601   -3.7262040177   -1.8906325189
 H    0.0916274173   -2.9090240891    1.4305831122
 H    0.0319812462   -0.4723394986    2.0145114955