19

 C   -0.0901239325    1.5506678645    0.0854438767
 C    0.1344648551    0.0761806550    0.0088205027
 O   -0.7531531500   -0.7858725034    0.7311466763
 C    0.6553723853   -0.9154600692    0.9681822588
 C    1.2385384224   -1.8032850971   -0.1483187516
 C    0.5307807312   -3.1403258371   -0.4629559050
 C   -0.3553754346   -2.8003981383   -1.6435921191
 C   -0.2540144045   -1.5321970942   -2.0449842408
 C    0.7008673416   -0.7547802422   -1.1910130141
 H    0.7940817076    2.0967709442   -0.2593215467
 H   -0.9357575435    1.8490375699   -0.5449315448
 H   -0.3111740591    1.8519008930    1.1131326869
 H    0.9912501603   -0.8027797663    1.9942158748
 H    2.3264749550   -1.8754022707   -0.1030307596
 H    1.2409683579   -3.9397034758   -0.7090555427
 H   -0.0623562232   -3.4990638618    0.3875538628
 H   -1.0067995834   -3.5407897942   -2.0973702927
 H   -0.8104239496   -1.0956978880   -2.8672604298
 H    1.4692818639   -0.1998487583   -1.7383339020