19

 C   -0.0413994244    1.5731249452    0.1545693164
 C    1.5177472254    1.4820905242   -0.1448077790
 C    1.1725693452    0.1241357826   -0.7942757654
 C   -0.1046895294    0.0037762538    0.0163217702
 C   -0.3220107881   -0.9397645051   -1.2002600506
 C    0.3456726951    0.0826211225   -2.1638614071
 C    1.1591474953   -0.7043751308   -3.1693579219
 C    1.7095499547   -1.6920451611   -2.4568410812
 C    1.2112741018   -1.4437971988   -1.0499362163
 H   -0.3160175588    1.9633262639    1.1368493840
 H   -0.5836513755    2.1350669725   -0.6074025071
 H    1.9794215742    2.2523972824   -0.7690482452
 H    2.0853551045    1.3803872680    0.7851626534
 H   -0.0096778117   -0.4916122993    0.9868218084
 H   -1.1673536462   -1.5921982919   -1.4534821043
 H   -0.2114229948    0.9584936254   -2.4931785097
 H    1.2617415005   -0.4776684471   -4.2216670199
 H    2.3754453492   -2.4829278053   -2.7726039736
 H    1.4754149329   -2.1138044114   -0.2310562510