16

 N   -0.1223747259    1.1923174694    0.6739729076
 C   -0.0552840817    0.0961936296    0.0281730042
 C   -1.3309034928   -0.7156401145   -0.1272443719
 O   -1.4233505741   -1.2957357081   -1.4207715691
 C   -0.8386228505   -2.5518533853   -1.4999081259
 O    0.4298929354   -2.6086027121   -0.8523370361
 C    1.3478849525   -1.6358015314   -1.1531571158
 N    2.4294224645   -1.8293478439   -1.7828333921
 N    1.0889347434   -0.3923792575   -0.5938797144
 H    0.7882086323    1.6501925781    0.7504296871
 H   -1.3942729543   -1.4817070697    0.6569813354
 H   -2.1645916453   -0.0240619478   -0.0090869939
 H   -1.4255486402   -3.3231700688   -0.9833075182
 H   -0.7441614556   -2.7844778363   -2.5664645762
 H    2.4882872520   -2.8006206147   -2.0803965231
 H    1.8664914404    0.2458743331   -0.6857671475