21

 C   -0.6037611112    1.3600018993   -0.0465428614
 C    0.0777716653   -0.0006924474   -0.0176213582
 C    1.3771228983   -0.2020889750   -0.8698351383
 C    2.1129236910   -0.7031503891    0.3946879086
 C    2.9745740782   -1.9406781628    0.3623116223
 O    4.1840150881   -1.6770156803   -0.3274854350
 O    2.8192652756    0.3836934605    1.0590090356
 C    1.7123653752    0.5995405882    1.9696298963
 C    0.8450852855   -0.4548152430    1.2645175278
 H    0.1012496335    2.1734446072    0.1538342188
 H   -1.0440756406    1.5481117086   -1.0317363571
 H   -1.4085293120    1.4211391107    0.6948490709
 H   -0.6569157876   -0.7711900628   -0.2724383959
 H    1.2855165437   -0.9388726297   -1.6717974532
 H    1.8154508565    0.7123366664   -1.2760487632
 H    3.1637220741   -2.2823474061    1.3931079571
 H    2.4697146328   -2.7514607523   -0.1739953204
 H    4.5601719886   -0.8926889591    0.0909389539
 H    1.9872105541    0.3348384202    2.9985656579
 H    1.3641350025    1.6385753526    1.9558444787
 H    0.3717284484   -1.2097241058    1.8926996746