25

 C   -1.2749342943    0.8155049576    1.0676480586
 C   -0.7048202040   -0.5411208102    1.4470581286
 O    0.7026830555   -0.4923913107    1.2583595948
 C    1.4023169234   -1.7120364208    1.4487491667
 C    2.6550068792   -1.6628151955    0.5665779774
 C    2.3317805740   -1.5164580546   -0.9215697387
 C    1.7769184996   -1.9231872623    2.9156188722
 O    0.6196469011   -2.2246611639    3.6680667593
 C    0.8852209106   -2.3784055204    5.0414701282
 H   -1.0435036988    1.0558030844    0.0256628624
 H   -2.3621652768    0.8195484599    1.1926872823
 H   -0.8515051860    1.6010372990    1.7005004016
 H   -0.9447897152   -0.7918541322    2.4867530831
 H   -1.1383099274   -1.3313976459    0.8117728538
 H    0.7667311965   -2.5570099125    1.1352490901
 H    3.2758792202   -0.8198628575    0.8956144952
 H    3.2410030233   -2.5736547522    0.7374816321
 H    3.2463779393   -1.4490414477   -1.5183225553
 H    1.7570670771   -2.3748243083   -1.2877545902
 H    1.7389709992   -0.6154558421   -1.0947359291
 H    2.5069711504   -2.7468106149    3.0007753725
 H    2.2591874758   -1.0075444438    3.2963371954
 H    1.2976797820   -1.4579967933    5.4841717726
 H   -0.0604860070   -2.6153287483    5.5350337132
 H    1.5987968924   -3.1967941238    5.2288793632