19

 C   -0.1249455759    1.3898259176   -0.0494012113
 C    1.2875688694    0.8718575922    0.0363895619
 C    1.9472080010    0.6785369649    1.3968162643
 C    1.1869302766    1.0053535026    2.6561883375
 C    1.1992383584   -0.4128335771    2.1338621735
 C    0.0635445853   -0.8603785878    1.2376041647
 C   -0.4971680296   -2.2149600997    1.3169927484
 O   -1.2255174764   -1.0994385441    1.8286713422
 C    0.1305767333   -0.0996406274   -0.0701255900
 H   -0.5988063426    1.8374139965    0.8154069650
 H   -0.4277690284    1.8370671243   -0.9903829475
 H    1.9477820980    1.0459263838   -0.8051271987
 H    3.0293222175    0.7289602423    1.4254190026
 H    1.7735702117    1.1919192372    3.5496201259
 H    0.2716154752    1.5823181447    2.6105502042
 H    1.7098839849   -1.1696772610    2.7187057658
 H   -0.9145972668   -2.6807024960    0.4238873615
 H   -0.1194124478   -2.9137450179    2.0638533190
 H   -0.0849472635   -0.6436646451   -0.9829238691