21

 C    0.1101945628    1.5366624673   -0.0502548999
 C   -0.0668638396    0.0654994565    0.1467043375
 O    1.0193948828   -0.7969135558   -0.2367458815
 C    0.5197080719   -0.9025756792    1.1086000307
 C    1.4995648540   -0.7562744413    2.2279513861
 C   -0.7141437843   -1.8051266403    1.0304839669
 C   -1.8273589821   -1.4414976484    2.0515087629
 C   -2.4417658723   -0.4276881665    1.0436394800
 C   -1.3404122265   -0.7714409888    0.0030688874
 H    1.0807495352    1.8660261963    0.3307476107
 H    0.0633081220    1.7907335566   -1.1155394409
 H   -0.6757935196    2.1000001532    0.4629364652
 H    2.1419816999    0.1145481940    2.0711451299
 H    0.9862590289   -0.6430770140    3.1882603256
 H    2.1430045618   -1.6412390904    2.2943279535
 H   -0.5439412116   -2.8595431844    0.8069217895
 H   -2.4911030562   -2.2791492509    2.2764176231
 H   -1.4782137550   -1.0281091214    3.0021646244
 H   -3.4445383216   -0.7058871059    0.7121941953
 H   -2.4751921742    0.6167625045    1.3669668634
 H   -1.6513796464   -1.0314790610   -1.0100616998