21

 C   -0.0787536657    1.4339419751   -0.3339164842
 O    1.1205939841    2.0402143033    0.1433449435
 C    2.0992117451    1.0345477239    0.4478404910
 C    1.5499056589   -0.2625236168   -0.1645201996
 C    0.0280092034   -0.0736809813   -0.0101660390
 C   -0.4786119663   -0.4411722707    1.3666711705
 C   -0.0335262864    0.0034224333    2.5446469743
 C    1.0537923143    1.0162575063    2.8241049509
 C    2.3299739135    0.9666431257    1.9663307720
 H   -0.9353850593    1.9133035086    0.1501008525
 H   -0.1638888473    1.5863172661   -1.4208754420
 H    3.0379437549    1.3275457360   -0.0378376612
 H    1.8140174681   -0.3153902017   -1.2261128855
 H    1.9231040945   -1.1614025457    0.3290783266
 H   -0.5192650414   -0.6555135644   -0.7560166289
 H   -1.3101487431   -1.1424071172    1.3813154604
 H   -0.5467066131   -0.3646446428    3.4314409354
 H    0.6224755857    2.0211098434    2.7250918589
 H    1.3514232205    0.9264514589    3.8745950519
 H    2.9062333113    0.0607050006    2.1903645476
 H    2.9568723682    1.8159816195    2.2619749648