16

 O   -0.0268924732    0.1453562396    0.8786740216
 C   -0.0180994710    1.2724720197    0.4286086840
 N   -1.1623121292    1.9020812601   -0.0001776109
 C   -1.2099585697    3.1871777994   -0.5553527200
 C   -0.1654776504    4.0136238154   -0.5263975647
 C    1.1140229887    3.6014543628    0.1493967866
 C    1.2503503862    2.0903754283    0.2291543713
 C    2.5117750140    1.4511353683    0.6151685273
 O    2.1072794961    1.4781405974   -0.7545336976
 H   -2.0016911635    1.3442727075    0.0497879250
 H   -2.1609377765    3.4467056097   -1.0043861350
 H   -0.2460253061    4.9991550149   -0.9667342033
 H    1.9902061437    3.9887655173   -0.3806262447
 H    1.1518063948    4.0245899993    1.1655673192
 H    3.3624712492    2.0851198799    0.8626442283
 H    2.4762135669    0.4746184704    1.0903600327