18

 C    0.0299807233   -1.2815672097    0.0176668960
 C   -0.0039740113   -0.0844424886   -0.0798352990
 C   -0.0447702467    1.3718946369   -0.1718347391
 N    1.3013032309    1.9511071073   -0.0594413995
 C    1.8747466261    1.9936349737    1.3221547656
 C    2.7341156924    3.2473486717    0.9753055095
 C    2.2866244482    4.0012276768    2.2419918772
 C    1.0237438399    3.2217506886    1.8249364335
 C    1.3422748486    3.4057487484    0.2922565312
 H    0.0586284378   -2.3402962523    0.0921318620
 H   -0.4517787375    1.6664411739   -1.1478270707
 H   -0.7475260616    1.7555864581    0.5893962586
 H    2.1709199510    1.0993586873    1.8711252439
 H    3.6936703132    3.2344241250    0.4601650126
 H    2.7580092318    3.7016635616    3.1826442264
 H    2.2351133421    5.0918119679    2.1717494653
 H    0.0487068061    3.2090175518    2.3113981293
 H    1.0067543059    4.1949801415   -0.3833358428