20

 C    0.5441448272    1.1897045820    0.0016105817
 C   -0.1469309508   -0.1564502323    0.0373265698
 O   -0.5712113311   -0.6332896419    1.0696022463
 C   -0.3095879502   -0.8941786991   -1.2701245374
 C   -0.4306118411   -2.4094650318   -1.1431324852
 C   -1.6483195798   -1.5895211762   -1.4337234234
 N    0.2893737344   -0.2281829272   -2.4035457357
 C    1.6133174595   -0.6581888484   -2.8541229159
 C    0.4045580071   -0.9024245164   -3.6872799290
 H    1.5840055401    1.0742372902   -0.3234153973
 H    0.0662333051    1.8456253855   -0.7313324589
 H    0.5167151108    1.6317980954    0.9980307951
 H   -0.0172698923   -3.0215904619   -1.9369844951
 H   -0.3174485874   -2.8048184289   -0.1409083937
 H   -2.3674407435   -1.4463621330   -0.6360446180
 H   -2.0573399699   -1.6132696642   -2.4379748787
 H    2.3089227043    0.1372810502   -3.1056407898
 H    2.0567992787   -1.5238189250   -2.3660110129
 H    0.0646989913   -1.9315768160   -3.7810553369
 H    0.1961972577   -0.2822718509   -4.5546869950