16

 O    0.1922228571    1.3597257714    0.0024665072
 C    0.0214875616   -0.0260806862   -0.0046036221
 C   -1.3417274141   -0.6446839650    0.0693062530
 C   -2.6050298321    0.1020023136   -0.3307982072
 C   -2.6475036358    1.5430761110   -0.7148914337
 N   -2.5192057599    0.4796832931   -1.7403218880
 C   -1.2137396136    0.1416021295   -2.2172297310
 O   -0.7607712208    0.4988878934   -3.2712423556
 C   -0.5202292932   -0.7637066378   -1.2103907056
 H    0.8789900787    1.5779943370   -0.6381564592
 H    0.7917445501   -0.5663009834    0.5462632498
 H   -1.4739857220   -1.4800807672    0.7460086455
 H   -3.5315764842   -0.3828016753   -0.0344558724
 H   -3.6053045889    2.0555480765   -0.7309624290
 H   -1.7806222916    2.1564898375   -0.5153711490
 H   -0.0154210315   -1.6509139983   -1.5734971228