21

 C   -0.0136032333    1.5367286200   -0.0038830480
 C   -0.0043652111    0.0322888357   -0.0204478187
 C   -0.9046018736   -0.7765436908    0.8428925148
 O   -1.8433048257   -1.6909904061    0.3403588943
 C    0.5680891114   -1.0080452480    1.0215352131
 C    1.2635434788   -1.7689762446   -0.1254598006
 C    0.5655573963   -2.9497812735   -0.8741569744
 C   -0.0175587512   -1.9345581060   -1.9147723232
 C    0.6888479518   -0.7672890253   -1.1559894286
 H    0.9805562588    1.9459382561   -0.2174364438
 H   -0.7020220887    1.9313977209   -0.7620944964
 H   -0.3342709495    1.9255799705    0.9681950719
 H   -1.3082986185   -0.1736826889    1.6612959822
 H   -1.9703844694   -2.3748865614    1.0065124396
 H    1.0318211178   -0.8248153797    1.9865607425
 H    2.3416953819   -1.8515391859    0.0173368230
 H    1.2840140169   -3.6496939556   -1.3095573303
 H   -0.1686329688   -3.5192445546   -0.3044884885
 H    0.3842786870   -2.0762855872   -2.9216805105
 H   -1.1032231568   -1.8852138994   -1.9683783355
 H    1.3615704059   -0.1387339262   -1.7421271728