17

 O    0.2477431745    0.2456189105   -0.8086119449
 C    0.0753679428    1.2505283774   -0.1394210462
 N    1.0837312226    1.8076592280    0.6112336544
 C    2.4253739350    1.2666506013    0.5712993042
 C    3.4066178120    2.2311078455    0.0569811629
 N    4.1746739820    3.0063876292   -0.3218645941
 C   -1.2335908420    1.9591642683   -0.0561271071
 C   -2.0921356467    1.9578859813   -1.3092788041
 C   -2.4848664286    1.1039646740   -0.1501770539
 H    0.9235658197    2.6715821780    1.1025162697
 H    2.7548549326    0.9292711795    1.5615417591
 H    2.3825664938    0.3924371170   -0.0861598476
 H   -1.2758185709    2.8390973780    0.5773038015
 H   -2.6608337053    2.8564410331   -1.5179474451
 H   -1.6638308892    1.4616935690   -2.1718838802
 H   -2.3183773015    0.0370920400   -0.2385558526
 H   -3.3315910008    1.3999246399    0.4580277939