16

 C   -0.0945065319    1.2089134660    0.0329529174
 O    1.1210055651    1.8974679973    0.2428569714
 C    2.1372497303    0.9159436664    0.4386154915
 C    2.5144711684    0.7126020701    1.9259622969
 C    1.8633269260   -0.5988186687    2.2913453469
 C    1.3128230573   -1.2116325636    1.2447227713
 C    1.4646889983   -0.4149761407   -0.0280928929
 O    0.2270258734    0.0013927080   -0.6094883114
 H   -0.6039929988    1.0225171686    0.9942601706
 H   -0.7352625697    1.8024161007   -0.6255721916
 H    2.9952981759    1.2110318008   -0.1700156617
 H    3.6031899902    0.6678064491    2.0585247153
 H    2.1594583827    1.5533351230    2.5317726275
 H    1.8753977758   -0.9877733662    3.3044342662
 H    0.7983963225   -2.1652771353    1.2622980298
 H    2.0105571645   -0.9506468256   -0.8101839773