17

 C    0.0714582173    1.4392827234   -0.0526540158
 N    0.0390886558   -0.0118647732    0.0185960698
 N   -0.0411137215   -0.6489697284   -1.1735903851
 C   -0.0334046083   -1.9403134750   -1.1803566271
 C    0.0481812728   -2.8158369610   -0.0048291199
 N    0.0603692033   -4.1080774780   -0.0334406105
 C    0.0944995327   -2.0628785983    1.2239271667
 C    0.0966362066   -0.7016861957    1.2117347147
 N    0.2286317169    0.0847450339    2.3553884716
 H    0.9096010915    1.8351233021    0.5275989239
 H    0.1918871421    1.7016263401   -1.1020825521
 H   -0.8606229362    1.8897465833    0.3142574264
 H   -0.0940614018   -2.3925034489   -2.1682321674
 H    0.0075402690   -4.4349460747   -1.0007400975
 H    0.1240984818   -2.5969426392    2.1661298754
 H    0.1648877463   -0.4632686321    3.2023012981
 H   -0.3909389283    0.8830914916    2.4011784185