19

 C    0.1322424168    1.5392156842    0.1344976687
 C   -0.0426151828    0.0206235930   -0.0460018774
 C    0.6665448505   -0.5183773025   -1.2508464155
 C    0.1644461887   -0.9785539300   -2.4226154921
 O    1.1349042030   -1.3430220771   -3.2707708642
 N    2.3750487794   -1.1345328240   -2.6481200022
 C    2.0851719092   -0.6387157726   -1.4624851103
 N    3.0701460991   -0.2512746376   -0.5807943021
 C    4.4465321405   -0.6367341910   -0.8589814421
 H    1.1912291152    1.8065570465    0.1974127497
 H   -0.2947934555    2.0808308092   -0.7146970599
 H   -0.3646017068    1.8838209250    1.0466535204
 H    0.3166252393   -0.4936029473    0.8569088344
 H   -1.1083561428   -0.2219589516   -0.1183169418
 H   -0.8463235052   -1.0987816262   -2.7840543330
 H    2.7977160684   -0.3263661119    0.3877074956
 H    5.0921921051   -0.2244347886   -0.0804416784
 H    4.5867424047   -1.7254640497   -0.9084943889
 H    4.7479631531   -0.2206994778   -1.8231557909