18

 C   -1.2981065244    0.2670303042    0.5601708111
 C   -0.1900401829   -0.7913631376    0.5324706077
 N    0.2199909551   -1.0516398101   -0.8305090720
 C    1.3987476067   -0.8484605504   -1.2614087128
 C    2.6181329924   -0.3346738143   -0.5417230732
 N    1.5653944523   -1.1623529314   -2.6295088070
 C    2.6664862899   -1.0828882794   -3.4414131526
 O    3.7754386961   -0.7077120064   -3.1348621696
 H   -0.9235207219    1.2307618064    0.2009384862
 H   -2.1291242253   -0.0330963768   -0.0840873482
 H   -1.6753708570    0.4032175977    1.5784600376
 H    0.6261855272   -0.4846197160    1.2015600328
 H   -0.5886311984   -1.7310227955    0.9371454805
 H    2.3911777397   -0.1012157426    0.4972607622
 H    3.4224027868   -1.0730264068   -0.5805893155
 H    3.0057316383    0.5566087768   -1.0397141790
 H    0.7077733781   -1.5009522523   -3.0455050948
 H    2.4113512174   -1.4197529055   -4.4656962736