18

 C   -0.2237487134    1.4228640047    0.1170541068
 C   -0.0631370117   -0.0228290724    0.0777173966
 C    0.0626083499   -1.2202969652    0.0419279976
 C    0.2258838044   -2.6619403275    0.0064060916
 C    0.4536023817   -3.4096402101    1.3472223592
 C   -0.7722320563   -4.2488669700    0.9293057982
 C   -1.9626865188   -4.3090568874    1.8634742064
 O   -1.0114088275   -3.3910790623   -0.2163400733
 H    0.3062070945    1.9078687263   -0.7099983340
 H   -1.2807613806    1.7012944372    0.0429492438
 H    0.1633435405    1.8414561414    1.0526875962
 H    0.9661074755   -2.9337410463   -0.7593219377
 H    1.4047566876   -3.9336519843    1.4471423549
 H    0.2816181476   -2.7839893691    2.2243981599
 H   -0.5023012104   -5.2606590488    0.5936430384
 H   -2.2301070411   -3.3068899465    2.2117622209
 H   -2.8296114119   -4.7374897701    1.3505320250
 H   -1.7356517799   -4.9362085796    2.7329229995