15

 C   -0.0280175623    1.5359468606    0.0155932184
 C    0.1135561009    0.0418807919    0.0333080993
 N   -0.7660251814   -0.8381825527    0.8466565296
 C    0.6958133649   -0.8044100886    1.1063245041
 C    1.3737279267   -1.9407387102    0.4269995689
 N    2.1235344311   -2.8002186784    0.9507875250
 O    1.0710278703   -1.8770730301   -0.9309146041
 C    0.4391426412   -0.6842659480   -1.2487727228
 O    0.2486931851   -0.3464815227   -2.3746247171
 H    0.8797023952    2.0109725444   -0.3676064127
 H   -0.8581604941    1.8302731356   -0.6328280694
 H   -0.2172396756    1.9185047899    1.0229861521
 H   -1.2224627938   -0.2547233579    1.5477372657
 H    1.0861140059   -0.4256323366    2.0413397890
 H    2.4762250357   -3.4577251373    0.2530515041