15

 O   -0.0050125723   -0.0673769182    0.0045460066
 C   -0.0170697248    1.1239125011   -0.0016360713
 C   -1.0093785931    2.2835669602    0.0278813892
 C   -0.0165020679    3.1001970534    0.9432858183
 C   -0.0487391967    4.3267442272    0.0164917315
 C   -0.0572762897    3.1124444619   -0.9443651725
 C   -0.0878892343    3.0928950968   -2.3749299016
 C   -0.1138036756    3.0938923490   -3.5774783154
 C    0.9521879475    2.3032027584   -0.0143666546
 H   -2.0962043827    2.3273431464    0.0389560704
 H    0.0074095351    3.0490574777    2.0297596033
 H   -0.9549024021    4.9382535931    0.0311239916
 H    0.8447965292    4.9562687847   -0.0076345585
 H   -0.1366492396    3.0889809363   -4.6391634294
 H    2.0373893968    2.3687185120   -0.0500686476