17

 C   -0.0439559463    1.5320496616   -0.0871439318
 C   -0.0237747370    0.0175964259    0.0272512457
 N    1.2935506255   -0.6299771755   -0.1543571117
 C    0.6787995361   -0.6760150573    1.1866331715
 C    1.3913360951    0.0780828900    2.2948059785
 C    0.1218531183   -1.9409270895    1.6219253459
 N   -0.2818088603   -2.9549118561    2.0047499726
 C   -1.1790906016   -0.6340695108   -0.5384630698
 C   -2.1430337613   -1.1464781024   -1.0416578726
 H    0.8903395385    1.9685813333    0.2660938525
 H   -0.1742418199    1.8128088773   -1.1360122291
 H   -0.8781947817    1.9498269821    0.4832661949
 H    1.1838264271   -1.5229350408   -0.6303078443
 H    1.8618528547    0.9802959676    1.9051803249
 H    0.6922937676    0.3496510175    3.0907829238
 H    2.1735525370   -0.5530070425    2.7263238193
 H   -2.9934609619   -1.6185741504   -1.4687932403