18

 C   -0.0141311540    1.5909716882    0.0027440249
 C   -0.0439495300    0.0585288407   -0.0143207694
 C    0.7497218101   -0.5346079854    1.1679887038
 C   -1.4514829384   -0.4598085588   -0.0262905046
 N   -2.5213631727    0.2538327152    0.1560225186
 N   -3.5587078664   -0.6500284222    0.0758602792
 C   -3.1619231746   -1.9470193975   -0.1667496806
 O   -3.8183847531   -2.9566216500   -0.2985626085
 N   -1.7705428878   -1.7867351272   -0.2227281279
 H    1.0209475333    1.9432931374   -0.0235440635
 H   -0.5478658353    2.0080790186   -0.8541722480
 H   -0.4891296055    1.9779586063    0.9082058684
 H    0.4335097711   -0.2881012766   -0.9425673663
 H    0.3241325380   -0.2032191839    2.1204032695
 H    0.7433710094   -1.6290689332    1.1604931664
 H    1.7922044905   -0.2056267719    1.1259860920
 H   -4.5089507419   -0.3387386899    0.1694529202
 H   -1.1418776328   -2.5510579599   -0.3975372441