16

 C   -0.3650746774    1.4729710263    0.0929739977
 C   -0.0297434581    0.0071611109   -0.0629308990
 N   -0.3451605968   -0.5615115032   -1.1735976417
 C   -0.0669316469   -1.8764974457   -1.5344916607
 O    0.4380105717   -2.1467060514   -2.6030073667
 C   -0.5135766127   -2.9432164601   -0.6076435965
 C   -0.1801641361   -2.9713666731    0.6994013987
 C    0.4998647956   -1.9291803765    1.4272899493
 C    0.6059519928   -0.6219936358    1.0866755693
 H   -0.9916172541    1.6413373963    0.9757866584
 H    0.5522541046    2.0565904491    0.2361297544
 H   -0.8804533143    1.8333130340   -0.7970185197
 H   -0.9996477070   -3.7971637519   -1.0701557788
 H   -0.3991380353   -3.8744874846    1.2639188764
 H    0.9177860655   -2.2244439928    2.3867806501
 H    1.0875685787    0.0497993485    1.7924007887