16

 C   -0.0898909598    1.5273641040    0.0786201420
 C   -0.0181873569    0.0297124072    0.0744861764
 N   -1.2637726901   -0.7968040682    0.1421057610
 C   -0.3249463853   -1.9242856583    0.5306858001
 C    0.7695851078   -0.8954167128    1.0308703318
 O    1.9097708637   -0.9739871461    0.1501408511
 C    0.9428167318   -0.7365870773   -0.9279938274
 C    0.2548034439   -2.1130847867   -0.8848603011
 O    0.2050422785   -3.0144108918   -1.6649889510
 H    0.9168762249    1.9558160426    0.0777813774
 H   -0.6230052455    1.8909292707   -0.8057518293
 H   -0.6155331548    1.8932781365    0.9674103822
 H   -1.7847975811   -0.5066371590    0.9699205549
 H   -0.7114652843   -2.7779533290    1.0792391886
 H    0.9982062299   -0.7580717787    2.0879938345
 H    1.3646746771   -0.3363056830   -1.8462747012