15

 O    0.8167038575    1.8130481859   -1.4952117886
 C    0.5726504037    2.0616782427   -0.3326390936
 N    1.3477807869    1.6655284981    0.7124103202
 C    2.5542408672    0.8806027989    0.5122469798
 C    3.7430030836    1.7292298482    0.0630766513
 O    4.0871706385    2.6692223788    1.0849153127
 C    3.7658991352    3.9639201139    0.8882478383
 O    3.9243981871    4.7995906225    1.7258665250
 H   -0.3139525744    2.6377031989   -0.0043902632
 H    1.0946655560    1.9508768750    1.6442323386
 H    2.7954232560    0.3724409748    1.4491451339
 H    2.3573642101    0.1257276466   -0.2551880203
 H    4.6197644296    1.0964986094   -0.1011459947
 H    3.4986713245    2.2454694884   -0.8715626753
 H    3.3573593986    4.1554999077   -0.1225529141