18

 C   -0.0374143027    1.5488129343   -0.0461565409
 C    0.0148932019    0.0274540157   -0.0091390998
 N    0.8853713113   -0.4091876102   -1.1802622609
 C    1.6149380454   -1.2748884078   -0.6167687672
 O    2.9491612331   -1.0157615656   -0.2635529591
 C    2.3263637628   -1.0273593741    1.1019380226
 C    0.7724765912   -0.5793490827    1.2050887270
 C    1.2307985683   -1.9285645311    0.7601735984
 C    0.8553266999   -3.3345383642    1.1058399501
 H    0.9734369499    1.9642839069   -0.0585770417
 H   -0.5630550602    1.8950432600   -0.9394161642
 H   -0.5647053356    1.9225429441    0.8396055863
 H   -1.0072308301   -0.3804985667   -0.0432523974
 H    3.0330312253   -0.9810684345    1.9226290623
 H    0.4214504458   -0.4026656893    2.2213939675
 H   -0.1072830813   -3.6057724140    0.6603058509
 H    1.6070873199   -4.0451864217    0.7476092639
 H    0.7669378950   -3.4528176891    2.1906522423