18

 N    0.0140376656   -1.1306404162    0.0186625074
 C    0.0071333814    0.0253044245    0.0018976027
 C   -0.0056126743    1.4767344451   -0.0091556555
 C   -0.6840939551    2.1342410146    1.2544323497
 C   -0.1689156211    3.6022493173    1.1885348410
 C    0.7324537493    3.6042758679   -0.0925851748
 C    1.3704239518    2.2014085718    0.0056315239
 C   -0.2047771921    3.3980344144   -1.2715440317
 C   -0.6478204746    2.1397725134   -1.2288633451
 H   -1.7707283905    2.0513623902    1.2026800776
 H   -0.3504683748    1.6269359029    2.1630819355
 H   -0.9797752810    4.3298085219    1.1161997591
 H    0.4244592211    3.8498533002    2.0733194073
 H    1.4149921290    4.4509342851   -0.1612508578
 H    1.9293517824    2.0304773234    0.9302695438
 H    1.9842491486    1.9415356466   -0.8585074906
 H   -0.5329182868    4.1805057919   -1.9439890081
 H   -1.4003775189    1.6632772048   -1.8424428644