23

 C   -0.7141158336    1.4350560471    0.2538568887
 O   -0.7475228796    0.0624556682    0.5597049651
 C   -0.5511349886   -0.7595669860   -0.5689425248
 C   -0.6022814410   -2.2156347569   -0.1137935539
 C   -2.0060227922   -2.6761202678    0.3335458937
 C   -2.5240137520   -3.4363210776   -0.8963795562
 C   -1.2321726931   -4.0310162465   -1.4661668571
 C   -1.2497577952   -4.3664968420   -2.9479394233
 O   -0.2384630763   -3.0286159722   -1.2321984876
 H   -0.8720593052    1.9837832468    1.1857252062
 H    0.2552497978    1.7344039036   -0.1752001240
 H   -1.5041088978    1.7145689544   -0.4615545400
 H   -1.3292999339   -0.5767449689   -1.3303018671
 H    0.4239381642   -0.5602159389   -1.0416976765
 H    0.1329558877   -2.3463572494    0.6910461089
 H   -1.9296643709   -3.3489501865    1.1931469224
 H   -2.6289484883   -1.8299983711    0.6307573696
 H   -3.2705648253   -4.1965675745   -0.6531264524
 H   -2.9667597395   -2.7498180244   -1.6274646103
 H   -0.9692762556   -4.9370262632   -0.8925929755
 H   -1.5168231382   -3.4830767073   -3.5364825650
 H   -0.2656046884   -4.7123292797   -3.2763943001
 H   -1.9774244252   -5.1581646672   -3.1532565409