14

 O    0.0715749673   -0.1058197751   -0.0934662336
 C    0.0280843888    1.0884568771    0.0430459963
 C    1.2555083998    1.9746164408   -0.0055066968
 N    2.4817022919    1.3117126140   -0.4279742144
 C    2.5919356149    1.9596172471   -1.6380674523
 O    3.3188501824    1.8367018709   -2.5772102526
 C    1.3859310143    2.9071467287   -1.2723728492
 C    0.2824238582    2.9565292209   -2.2017514907
 C   -0.6348649784    2.9812883495   -2.9779507095
 H   -0.9216319874    1.6267940565    0.2464111340
 H    1.3338584637    2.5182079062    0.9455293289
 H    2.7941454800    0.3827499038   -0.1820524221
 H    1.7348364704    3.9100206206   -1.0105715918
 H   -1.4385444158    3.0027067892   -3.6722444364