15

 O    0.0088523752    0.0230646631    0.1621386836
 C    0.0047203322    1.2155557566    0.0041484509
 C   -1.2505432139    2.0907162474   -0.1946981077
 N   -0.8131728058    3.3980422128   -0.7137957569
 C    0.6398725203    3.4640736440   -0.5556156464
 C    1.1500374782    3.3331477726    0.8453660280
 C    1.1972950273    2.1169542200   -0.0704539740
 C    1.3468240447    4.2686607196   -1.5114692216
 N    1.9068524008    4.9107529823   -2.2933620995
 H   -1.9451067959    1.5944940594   -0.8758734932
 H   -1.7657970534    2.1951267539    0.7687350359
 H   -1.0296869000    3.4629708842   -1.7019682566
 H    2.1069103214    3.7856862944    1.0740052368
 H    0.4200666196    3.3684481055    1.6468548790
 H    2.1530583394    1.7102305743   -0.3722461485