16

 O   -0.5917762365    0.7781922561    0.5618309493
 C    0.2325875669    0.9637441058   -0.2998816568
 C    1.4015044368    1.8508955971   -0.1217045910
 C    1.7426984191    2.6668401268    1.1291319254
 C    2.1694025696    3.8697384311    0.2300996113
 C    1.8291182620    3.0563038393   -1.0226197806
 N    2.4913876191    1.7688936923   -1.0724683629
 C    1.1524676381    3.5567497070   -2.2378775253
 O    0.8000589060    4.7032622665   -2.3715588224
 H    0.1749046578    0.4805446585   -1.2977867608
 H    0.8567716143    2.8745314004    1.7295904159
 H    2.5112079346    2.2239913711    1.7691733711
 H    1.5173784577    4.7368215963    0.3377258158
 H    3.2110913255    4.1970021719    0.2945761082
 H    3.4076097726    1.7766137991   -0.6272677699
 H    0.9922051464    2.7858784809   -3.0206269672