18

 N   -0.0497676971    1.2870996812   -0.0116610342
 C   -0.0263105461    0.0241117652    0.0049334073
 O    1.1270452794   -0.7169152007    0.0224438248
 C    0.8665071186   -2.1344617367    0.0037906120
 C    0.1152226469   -2.5151530874    1.2819545685
 C   -1.2129175658   -1.7108253227    1.2966065019
 C   -1.2506413175   -0.8557939259    0.0094659312
 C   -1.1306033096   -1.8078520592   -1.1924938064
 O    0.1408930101   -2.4758211722   -1.1445292110
 H    0.9031235381    1.6581809602   -0.0084319662
 H    1.8423797381   -2.6118339222   -0.0856063161
 H   -0.0592109305   -3.5942793569    1.2755471900
 H    0.7414926486   -2.2841938147    2.1476417394
 H   -2.0800061256   -2.3777032072    1.3141381806
 H   -1.2788329184   -1.0661590889    2.1762821761
 H   -2.1470022529   -0.2402318714   -0.0592516430
 H   -1.9327799086   -2.5574087288   -1.1700829530
 H   -1.1899279478   -1.2640192116   -2.1413806518