21

 C   -0.1948990550    1.5077628532    0.1403359501
 C   -0.0041307817    0.0073610150    0.0091329681
 C    1.1296252950   -0.4521144863   -0.9620916568
 C    1.9617834989   -0.9782815312    0.2394813067
 C    0.7517895562   -0.7293789143    1.1771211500
 O    0.9820168093    0.0564370846    2.3251022942
 C   -0.1474750481   -1.9526869313    1.4495583968
 O   -0.9667802087   -2.1171683072    0.3011495074
 C   -1.2940014136   -0.8016047892   -0.1388726730
 H    0.7560171847    2.0104111084    0.3386958354
 H   -0.6116597606    1.9265456329   -0.7831343940
 H   -0.8733224903    1.7527373557    0.9634075583
 H    0.8109270799   -1.2410103168   -1.6471194995
 H    1.5945187917    0.3500590205   -1.5398867746
 H    2.3228730758   -2.0083224508    0.1733220384
 H    2.7978172394   -0.3225438072    0.4958630179
 H    1.6185360741   -0.4023908123    2.8836822120
 H    0.3955235854   -2.8897661960    1.6084298823
 H   -0.7527997515   -1.7309901956    2.3436013364
 H   -2.0946593366   -0.3711518419    0.4864190398
 H   -1.6558440843   -0.8758657402   -1.1686962860