17

 O   -0.0083571948   -0.1551577123    0.0217591778
 C   -0.0159248921    1.0621125141    0.0104164675
 C   -1.3532185550    1.8053452479    0.0091827966
 C   -1.3731593946    3.3146351216   -0.2454341532
 N   -0.6587897451    4.0878662169    0.7569133676
 C    0.6910347761    4.0641622820    0.9439470085
 O    1.2548317738    4.6994642500    1.8122065548
 C    1.4516116268    3.1872458992   -0.0595785715
 N    1.1617275811    1.7612334496    0.0431251624
 H   -1.9720804446    1.2967607891   -0.7367131098
 H   -1.8122929924    1.5938479543    0.9819642261
 H   -0.9797241959    3.5399502886   -1.2443133068
 H   -2.4102535390    3.6594489810   -0.2445799810
 H   -1.1785373068    4.6289863069    1.4314292098
 H    1.2831349403    3.5632399370   -1.0792182439
 H    2.5071467591    3.3250973957    0.1707629284
 H    1.9595290533    1.1429639082    0.0723806265