17

 C   -0.4042728807    1.2467233902    0.0420726283
 O    0.4373410620    0.1152076414   -0.1760226191
 C    0.8338835752   -0.4965432856    0.9761031125
 C    1.9828729338    0.0184379883    1.8776861480
 C    1.9051501010    0.2911866299    3.3627026945
 C    2.0435219565   -1.3449333557    1.2686921898
 O    1.2433842775   -2.2684429425    2.0631281723
 C    0.0796682799   -1.5819132424    1.7225515047
 O   -1.0411241563   -1.8883267833    1.9626061461
 H    0.1143268480    2.0178038755    0.6268541399
 H   -0.6513587985    1.6440913532   -0.9436795811
 H   -1.3256913530    0.9584122618    0.5609820633
 H    2.5668994439    0.7367822793    1.3017511402
 H    1.3723903698   -0.5057943788    3.8854573026
 H    2.9115614623    0.3555683632    3.7894014170
 H    1.3943558408    1.2380583717    3.5618210821
 H    2.7928999979   -1.7754498062    0.6199670690