17

 C    0.0699405217    1.3826116336    0.1096804965
 N    0.0130407650   -0.0687353976    0.1168708507
 C   -1.1362317712   -0.6299760221   -0.0064616387
 C   -2.4413091623   -0.0183318827   -0.1582609812
 C   -3.5162567862   -0.8149454381   -0.2711307480
 O   -3.4828833806   -2.1548717563   -0.2549125769
 N   -2.2541354561   -2.8234266346   -0.1114777096
 C   -1.1869138723   -2.1077240751    0.0013137624
 C    0.0908371176   -2.8778392870    0.1504604810
 H    1.1085801664    1.7022614814    0.2230313967
 H   -0.3124243878    1.8114432915   -0.8288557398
 H   -0.5096756031    1.8278409240    0.9323213475
 H   -2.5688716038    1.0547403451   -0.1825840395
 H   -4.5365406150   -0.4650296548   -0.3885118803
 H   -0.1103251011   -3.9493947257    0.1367144634
 H    0.7804037086   -2.6107445935   -0.6552271491
 H    0.5857012201   -2.5966561381    1.0842922050