13

 O   -0.0773164257    1.4630859351   -0.0042723997
 C   -0.0052870470    0.1049434268   -0.0574617495
 C   -1.0912158369   -0.9258474133   -0.1086000500
 O   -0.3452498253   -1.7243389964   -1.0532240172
 C    0.6529294371   -0.7431230967   -1.1131188116
 N    1.6624916927   -0.6223781793   -1.8336066445
 C   -0.3051916221   -0.8001301181    1.1745558328
 C    0.5712677452   -1.8286027641    1.6619278362
 N    1.2852030027   -2.6456536331    2.0615581353
 H    0.8014912116    1.8115036405    0.1912816791
 H   -2.1660440832   -0.8797175526   -0.2121437112
 H    1.7772321061   -1.4051765229   -2.4786406593
 H   -0.8209171252   -0.2285549358    1.9422914395