17

 O    0.0679279721    0.0239382013    0.0989329635
 C    0.0293675716    1.2214682702    0.0392224929
 C   -1.2627104920    2.1029346333    0.0163619598
 C   -0.8584705014    3.6025864718   -0.2093711868
 C    0.5523407428    3.4603953048   -0.8057791717
 C    1.9772306340    3.8007884355   -0.2566329928
 C    1.6253107737    3.1664360889    1.0957627068
 C    1.1222172384    2.2497316541   -0.0734169264
 O    2.4289159946    2.4430907750   -0.7309723320
 H   -1.8701364512    1.7258259191   -0.8135312839
 H   -1.8450728662    1.9345720656    0.9266483108
 H   -1.5520283734    4.1076671988   -0.8850577778
 H   -0.8734779838    4.1540447654    0.7328237784
 H    0.5531456439    3.3316373031   -1.8911671688
 H    2.6484253152    4.6267529329   -0.4949381354
 H    2.4684442291    2.7494310190    1.6454918734
 H    0.8978929527    3.6581599713    1.7418918301