20

 C   -0.0086849459    1.6312649190    0.2190249877
 C    0.0482189681    0.1027334683    0.1063279344
 C    0.8406159939   -0.4561985865   -1.1222733564
 C    1.8486613746   -1.3164507209   -0.3352863815
 C    0.9328895269   -1.9367160322    0.7461507373
 N    0.7793954963   -0.5133362532    1.2725012792
 C    2.2219670976   -0.3518177037    0.8145472662
 C   -1.3995960357   -0.3706492576    0.1704376459
 O   -2.0583315730   -0.7330063197   -0.7698091483
 H    0.9929131349    2.0656682066    0.2648455057
 H   -0.5199447190    2.0544194302   -0.6509635832
 H   -0.5470259674    1.9340666346    1.1228222579
 H    0.1961804990   -1.0323052535   -1.7899314392
 H    1.3253344426    0.3335740268   -1.7031094284
 H    2.5825794478   -1.8920519113   -0.9021027030
 H    0.0051723487   -2.4300176557    0.4417044243
 H    1.4577616457   -2.5471985764    1.4835255382
 H    2.8891582399   -0.7827209749    1.5643241061
 H    2.5385725151    0.6666591385    0.5790882431
 H   -1.8247907401   -0.3229983883    1.1983363241