19

 O   -0.1706530870    1.4574769673    0.1890950171
 C   -0.0165928546    0.0407895366    0.0552561587
 C    0.8963487742   -0.5517674042    1.1387409947
 C    0.7633548099   -2.0523978764    1.2441433588
 C   -0.3616207533   -2.6892746025    0.9117544244
 C   -1.5731154746   -1.9737001682    0.4391396630
 C   -2.1543699688   -0.8583924506    1.3187232088
 C   -1.4140886311   -0.5336334997    0.0507232192
 O   -2.1717961319   -0.1088028106   -1.0464012702
 H    0.6570711236    1.8762768881   -0.0660619456
 H    0.4075705969   -0.1923072629   -0.9334656858
 H    1.9353743764   -0.2746449333    0.9221039777
 H    0.6532365022   -0.0700214114    2.0957819588
 H    1.6147979498   -2.6078834470    1.6258288586
 H   -0.4282231189   -3.7689373739    1.0126743670
 H   -2.2929439894   -2.5427243937   -0.1389392647
 H   -3.2282895297   -0.7161960155    1.2854747076
 H   -1.6900981739   -0.6902198620    2.2837263665
 H   -2.1489824000    0.8562124899   -1.0178119347