23

 C   -0.1784699449    0.7577660676   -2.0164668823
 C    0.0231946956   -0.3410949560   -0.9953016656
 C    1.3596707342   -0.6244629442   -0.3317966826
 C    2.6081822861    0.1828658068   -0.6186564499
 C    0.2274257098   -0.0562274751    0.4743264121
 C    0.0909493029    1.3070290476    1.1705162268
 C   -1.0317978516    0.6906080290    2.0568753174
 C   -0.5833937231   -0.7263684655    1.5974755405
 O   -1.5527836527   -1.6915141700    1.2707804070
 H    0.4006546431    1.6551351784   -1.7830355080
 H    0.1209530605    0.4248742409   -3.0165710291
 H   -1.2318786647    1.0563053204   -2.0717941649
 H   -0.5649353472   -1.2356198471   -1.1946393527
 H    1.5549573747   -1.6811287595   -0.1551434595
 H    2.3934338058    1.2485941795   -0.7351548490
 H    3.3292000322    0.0849052119    0.2007373563
 H    3.1024998265   -0.1581846846   -1.5352424781
 H    0.9803372881    1.5807569459    1.7465744454
 H   -0.1931046775    2.1618672489    0.5519155416
 H   -1.0141908393    0.9035397639    3.1280377004
 H   -2.0291002159    0.9259849163    1.6705738479
 H    0.0652613088   -1.2083965311    2.3371152381
 H   -2.1416296714   -1.3002171740    0.6159654280