17

 O   -0.0691454992    1.3709214473    0.0362355593
 N    0.0451417074   -0.0284766173    0.0001855581
 C   -1.0985313367   -0.6139379727   -0.0208619138
 C   -1.0895891705   -2.1245662304   -0.0391848797
 C   -2.2210135676   -2.6571738046   -0.9304950917
 C   -3.5826447995   -2.1201452550   -0.4654268178
 C   -3.5384232333   -0.6442727362   -0.1759400501
 C   -2.4020720534    0.0453334939   -0.0003109782
 H    0.8531506151    1.6441214100    0.0677958062
 H   -0.1097587702   -2.4793001971   -0.3674869835
 H   -1.2392605034   -2.4911324225    0.9865662969
 H   -2.0439279046   -2.3372158619   -1.9644212912
 H   -2.2221681563   -3.7517980771   -0.9297911048
 H   -4.3538888368   -2.3254717312   -1.2180227248
 H   -3.9123433781   -2.6533450219    0.4399839903
 H   -4.4914425780   -0.1236489266   -0.1153870467
 H   -2.4177450850    1.1138611334    0.1730820915