21

 C   -0.0402597374    1.6039084563    0.1073906796
 C    1.4575952601    1.2195340619   -0.0161864766
 C    1.1692241216    0.0752868418    1.0182843866
 C   -0.0192134878    0.0366381148    0.0163213039
 C   -1.1890172724   -0.8628307315   -0.2833680680
 C   -1.6598618137   -0.4820290435   -1.7106095537
 C   -0.4956820230   -0.3585605998   -2.7149075927
 O    0.5032004065    0.5896612758   -2.3306576182
 C    1.0421585579    0.1895339910   -1.0948890874
 H   -0.3577172196    2.0216976387    1.0667650534
 H   -0.4716837430    2.1422653121   -0.7352910989
 H    2.3182576506    1.8888209457   -0.0247811174
 H    1.8489024908   -0.7826430451    1.0131601867
 H    0.9480879926    0.4037344162    2.0363457606
 H   -0.8646639106   -1.9119809192   -0.2644424948
 H   -2.0096180543   -0.7642225797    0.4360923213
 H   -2.3668378934   -1.2265629779   -2.0935786160
 H   -2.1933430855    0.4746133730   -1.6738933366
 H   -0.0266924026   -1.3479061670   -2.8563526805
 H   -0.8682080551   -0.0256371070   -3.6875165554
 H    1.7253942483   -0.6631628767   -1.2314288959