20

 O    0.3836101972    1.1831180702   -0.1359110444
 C    0.1053015983   -0.1929578054   -0.2829239806
 C   -1.3764265169   -0.5508364287   -0.0626555750
 C   -2.1848065000    0.1408072422   -1.1750881767
 O   -2.3003584481    1.5341185029   -0.8725208670
 C   -1.7535839944   -1.9647272504    0.4876321078
 C   -1.1820702770   -1.4608264565    1.8367141286
 N   -1.9878572409   -0.2403730854    1.3520069432
 C   -3.0499320552   -1.3057074582    1.0018154371
 H   -0.3612783021    1.6697400691   -0.5185464757
 H    0.3589275130   -0.5525985573   -1.2970859797
 H    0.7779250304   -0.7176407123    0.3970443943
 H   -1.6449101807    0.0760488803   -2.1245283013
 H   -3.1732537752   -0.2986841239   -1.3434136147
 H   -2.5284612261    1.5830141234    0.0675244763
 H   -1.6213486963   -2.9398709924    0.0061434648
 H   -1.5983139108   -1.9009695123    2.7457220313
 H   -0.1160427568   -1.2862515325    1.9537745885
 H   -3.8185234377   -0.9844639663    0.3021249124
 H   -3.5101000508   -1.7416622665    1.8912710308