16

 C   -0.0210863631   -1.2136680643   -0.0467708020
 C   -0.0183214478   -0.0118424712   -0.0198790192
 C   -0.0520677357    1.4337229887   -0.0264012235
 C   -0.0500370973    2.0949318136    1.3880001708
 O    1.3896239417    1.8184724115    1.4667400917
 C    1.3484403311    2.1214935478    0.0308666718
 C    1.0252733442    3.6337677000    0.0643364036
 N   -0.3690431291    3.9766534406   -0.3032620631
 C   -0.0365372740    3.6135993757    1.0947542385
 H   -0.0165584715   -2.2751589941   -0.0628172619
 H   -0.7633542864    1.8276256789   -0.7516565147
 H   -0.6243313209    1.7092556741    2.2279686361
 H    2.2125411199    1.7631443733   -0.5250309643
 H    1.8117864784    4.3760268691    0.0112421928
 H   -0.4493745104    4.9905291300   -0.3661971467
 H   -0.1275625690    4.3391908464    1.8932542001