18

 O   -0.2173737374    1.4291505497   -0.0769530749
 C    0.0033375053    0.0452118837    0.0007658017
 C    0.2950540130   -0.6372763467    1.4004015673
 C   -0.6874171630   -1.7895014492    0.9903566818
 C   -1.9468185768   -2.2197694977    1.7722283389
 C   -3.1242829811   -1.8885463870    0.7942173502
 C   -2.5530697882   -0.7747025518   -0.0805002780
 C   -1.2271368785   -0.8162856220   -0.0272017018
 H    0.6341855138    1.8675498987   -0.1672084088
 H    0.7561335225   -0.2841736887   -0.7320490213
 H    1.3332421359   -0.8999140997    1.6217208781
 H   -0.1183809958   -0.0178182752    2.2003732002
 H   -0.1396655628   -2.6391586718    0.5663495091
 H   -1.9356216271   -3.2693411096    2.0803956540
 H   -2.0511592935   -1.6126901298    2.6785122141
 H   -3.4158846850   -2.7688615736    0.2036512155
 H   -4.0251512774   -1.5670790724    1.3283338693
 H   -3.1651886338   -0.0301068169   -0.5746242053