16

 C   -0.7274458311    1.3263532206   -0.5772198522
 N   -0.1732444432    0.0675288228   -0.1232183351
 N    0.8065190291   -0.5476948703   -0.7723297506
 C    1.0668922694   -1.6120116452   -0.0090704426
 C    0.2118395199   -1.5902667970    1.1016835132
 C    0.0713368031   -2.5535865218    2.2503877845
 C    1.1263160165   -3.5604118175    2.2933391133
 C    1.9922133967   -4.3923668650    2.3249134957
 N   -0.5663059339   -0.5075475629    1.0077005163
 H   -0.3039740745    2.1611637051   -0.0106034843
 H   -0.4801562593    1.4370755675   -1.6321014259
 H   -1.8093132397    1.3106048505   -0.4387962475
 H    1.8267912935   -2.3266588710   -0.2779850885
 H    0.0575841404   -1.9901839243    3.1915344878
 H   -0.9049710196   -3.0529606677    2.1911067392
 H    2.7566829727   -5.1284204140    2.3614448267