18

 C    0.1866670384    1.4902274077   -0.0031699639
 C    0.0590736852   -0.0090693566    0.0128863591
 N    0.0468547250   -0.7083135578    1.0829846882
 O    0.1855021622    0.0947200993    2.2258219851
 C   -0.0070383274   -0.7604418612   -1.2867335125
 C    1.2734205434   -1.4850387968   -1.7375280299
 C    0.0942474441   -2.2778851800   -1.2734536708
 C   -0.8106038138   -0.1561799923   -2.3171137072
 C   -1.4829415996    0.3475886315   -3.1784781264
 H    1.1007624754    1.7928891212    0.5174737951
 H    0.1984968216    1.8769257900   -1.0219168478
 H   -0.6460592892    1.9458284698    0.5419569382
 H    0.1426140386   -0.5552959571    2.9349235041
 H    1.5046994652   -1.4579905307   -2.7958130749
 H    2.1244175174   -1.3990912750   -1.0716395123
 H    0.1357181898   -2.7383427746   -0.2953591023
 H   -0.4939011176   -2.8025039994   -2.0162850306
 H   -2.0809458388    0.7877043419   -3.9373293512