18

 O   -0.1205339310    1.3706997486    0.0439876898
 C    0.0388216091   -0.0238780032    0.0391576834
 C    0.7236149584   -0.7047389501   -1.1905334632
 C    0.5345423333   -2.1274252638   -0.5920092549
 C    1.1393070819   -1.9075006859    0.7869821363
 C    0.8417681199   -0.6625579416    1.1643379720
 C   -1.0315241983   -2.1135832016   -0.4630696316
 N   -1.5785359309   -1.8533927463    0.8870977119
 C   -1.3498593813   -0.7333839684   -0.0490196724
 H    0.7561105914    1.7681786796    0.0627654560
 H    0.1675507645   -0.5438340981   -2.1201177997
 H    1.7717835420   -0.4177828403   -1.3175446135
 H    0.9229734499   -2.9691906596   -1.1645717962
 H    1.6047618320   -2.6810037083    1.3838102900
 H    0.9968219583   -0.1986935900    2.1301984676
 H   -1.6214739306   -2.6718410133   -1.1811252796
 H   -2.5723815044   -2.0787703136    0.8774786641
 H   -2.1807164641   -0.1506335842   -0.4295700998