19

 C    0.1525724487    1.5483667280   -0.1529026325
 C   -0.0019355828    0.0413625952    0.0528126886
 O    0.5659271653   -0.6599867260   -1.0562021242
 C    1.4352369638   -1.7041091669   -0.6200875055
 C    2.7628658453   -1.6273151303   -1.3672012398
 C    1.5379373718   -1.5010525886    0.8861074924
 C    0.7157737592   -0.5122142320    1.2512449811
 C    2.3726639805   -2.2940758855    1.7041703381
 C    3.0992272599   -2.9991911414    2.3579834461
 H    1.2105407553    1.8231759811   -0.1866640447
 H   -0.3154402847    1.8450003274   -1.0956742153
 H   -0.3307678922    2.1000005090    0.6601086824
 H   -1.0799696270   -0.1933699692    0.1153241851
 H    0.9660939783   -2.6810353440   -0.8267871810
 H    3.2591167328   -0.6734859816   -1.1663606288
 H    3.4231414621   -2.4418280265   -1.0547673723
 H    2.5901125187   -1.7111059609   -2.4436101438
 H    0.5598006120   -0.1513506712    2.2594702860
 H    3.7349928731   -3.6113236668    2.9482599380