24

 C   -0.0226114043    1.5883019389   -0.0231446498
 C   -0.0475440349    0.0580227616    0.0306657344
 C    0.7181041212   -0.5650420265    1.2212706269
 C    0.6690254753   -2.0990768674    1.1379752288
 O    2.0674505306   -0.0837696954    1.2869585876
 C    2.9430273553   -0.4190342829    0.2332624218
 C    0.0840653971   -0.1289074501    2.5444734419
 C    0.8296715137   -0.2101189921    3.8218931388
 N    0.5021934686    1.1010889027    3.2267672281
 H    1.0020155801    1.9641278542   -0.0969559691
 H   -0.5771314218    1.9503247630   -0.8942532700
 H   -0.4721937274    2.0278522132    0.8713018161
 H   -1.0843780891   -0.2955453202    0.0871213015
 H    0.3515867836   -0.3535925037   -0.9044409468
 H    0.9984905002   -2.4695561113    0.1626053866
 H    1.2978071732   -2.5428143252    1.9146329206
 H   -0.3568035906   -2.4484552107    1.2901969024
 H    3.1013127276   -1.5021476635    0.1465010233
 H    2.6008327997   -0.0379458495   -0.7383882084
 H    3.9014747478    0.0510539957    0.4683201210
 H   -0.9914104376   -0.2965013942    2.5672874786
 H    0.3055180009   -0.4425990205    4.7447143243
 H    1.8628827722   -0.5397448896    3.7771537088
 H    1.3380787387    1.4421619336    2.7562795925