16

 C    0.1705282729    1.5241190638   -0.1363586991
 C   -0.0487216832    0.0512345740   -0.0201468364
 C   -1.2012287636   -0.6481416039    0.0051747283
 C   -2.5779931952   -0.0566395232   -0.0832362637
 C   -1.1426741294   -2.1203716948    0.1292321440
 O   -2.1422486091   -2.8067916651    0.1578171489
 N    0.1440515173   -2.7087731889    0.2148174246
 C    1.1544638351   -1.9416263086    0.1798231251
 O    1.1620808661   -0.5973141500    0.0682660815
 H    0.7756611152    1.7456562800   -1.0221364237
 H   -0.7685250597    2.0692651392   -0.2087784056
 H    0.7251012392    1.8917508292    0.7338050361
 H   -2.5762804920    1.0301176932   -0.1723376871
 H   -3.1096798523   -0.4805508184   -0.9409624378
 H   -3.1599618885   -0.3376722190    0.8001699985
 H    2.1719897571   -2.3195948074    0.2402359662