21

 C    0.0444572083    1.4847256192    0.3325606222
 C   -0.0842443616    0.0567084529   -0.2090979189
 C   -1.4726528655   -0.5182261175   -0.0332615771
 C   -1.8564091343   -1.1278540950    1.2997539066
 C   -1.6617824010   -2.0077700744    0.0750680813
 O   -2.8033142142   -2.5984450667   -0.4832705218
 C   -3.3328762103   -1.8501289688   -1.5687320506
 C   -3.6000301344   -0.4170364202   -1.1388916542
 O   -2.3965915969    0.2423398664   -0.7733081348
 H    1.0543390672    1.8736690652    0.1715064209
 H   -0.6635792556    2.1504912333   -0.1672760050
 H   -0.1635806233    1.5190468532    1.4071525740
 H    0.1627275450    0.0394274361   -1.2777304590
 H    0.6328312920   -0.6024630516    0.2938699670
 H   -1.1143538631   -1.1484660595    2.0909456487
 H   -2.8813839641   -1.0259299377    1.6384720372
 H   -0.7861827757   -2.6525335676    0.0220095729
 H   -2.6414865179   -1.8585837329   -2.4255460058
 H   -4.2625021218   -2.3460330605   -1.8623502176
 H   -4.0288104078    0.1659773137   -1.9598800590
 H   -4.3177763751   -0.4155366975   -0.3038908168