13

 O   -0.4143692565    0.6608437312    0.8707636851
 C    0.0911202525    1.0174628011   -0.1601032543
 C    1.4137611036    1.7727243918   -0.2449643491
 C    1.3526532037    2.9014376355   -1.2217528011
 C    1.3662873832    4.2403777692   -1.0095328861
 O    1.2653061649    4.8666533007   -2.2212409836
 C    1.1872605431    3.8559051012   -3.1125282965
 N    1.2328262412    2.6737338903   -2.5933775346
 H   -0.3772028454    0.8092596637   -1.1461947448
 H    1.6870520465    2.1116211769    0.7567245013
 H    2.1702807510    1.0497078847   -0.5809382518
 H    1.4418303388    4.8742309489   -0.1432004378
 H    1.0996080135    4.1296354148   -4.1521576366