14

 C    0.0182864724    1.2296287210    0.1656551567
 C   -0.2897327803   -0.2506489376    0.0642146137
 O    0.4748604451   -1.1129851721    0.4190938547
 C   -1.6688655669   -0.5969715767   -0.5100848460
 O   -1.7919706114   -1.9382799157   -0.9128975119
 C   -1.8456342756   -2.8707773457    0.0684679870
 N   -1.9126528481   -4.0898818501   -0.2409399907
 H    0.8976363955    1.3831797301    0.7917729044
 H    0.2177866640    1.6285900426   -0.8360783084
 H   -0.8337815226    1.7877377367    0.5686184375
 H   -2.4256107777   -0.3217047390    0.2432908944
 H   -1.8687604999    0.0138824497   -1.3957726650
 H   -1.8466995690   -2.4459779725    1.0794585164
 H   -1.9653963255   -4.6590921207    0.6009901571