22

 C    2.0406202118   -4.4365714066   -0.6242406315
 C    1.0035130693   -3.3429733969   -0.3427843413
 C    1.0764626866   -2.2252799935   -1.3626809876
 C    0.2204977573   -2.1896798309   -2.6276400691
 C   -0.7565603528   -3.2677048097   -2.9105227125
 O   -1.4931381036   -3.8123390931   -2.1153747355
 N    0.0782456798   -1.2069653353   -1.5364734913
 C   -1.1342723197   -1.1581368641   -0.7124758838
 C   -2.1711708100   -0.2526791801   -1.3707511274
 H    1.8469304977   -4.9252416033   -1.5847803248
 H    3.0565441480   -4.0275092219   -0.6573901270
 H    2.0165041172   -5.2062585314    0.1523854248
 H    0.0027358074   -3.7778720948   -0.3229319557
 H    1.1875939941   -2.9082573811    0.6486258150
 H    2.0909452039   -1.8512528589   -1.5170586371
 H    0.6700006762   -1.7793820686   -3.5302674818
 H   -0.7740354379   -3.5648277081   -3.9836379209
 H   -1.5722058179   -2.1432475849   -0.5238183151
 H   -0.8258598778   -0.7348541743    0.2508916603
 H   -1.7552124704    0.7398946059   -1.5654163835
 H   -2.5073939461   -0.6740521304   -2.3238138570
 H   -3.0485029531   -0.1460458878   -0.7256931572