20

 C   -0.3189443686    1.4436746607   -0.1891421593
 C    0.0250572271   -0.0452072016   -0.1023347305
 C    0.8766257825   -0.5342988870   -1.2745401924
 C    1.0076340230   -2.0679420960   -1.4860077147
 C    0.4378490963   -1.7849984138   -2.8929176706
 C   -0.8223948687   -2.4960981759   -3.3328736438
 O    0.1957302452   -0.3913275129   -2.5421069327
 C    2.1801042295    0.1596907663   -1.3055458602
 N    3.2066849674    0.6908388562   -1.3206686111
 H    0.5821897492    2.0623244891   -0.1424435791
 H   -0.8344321336    1.6623244605   -1.1282406878
 H   -0.9727288922    1.7346923019    0.6374720159
 H    0.5598703320   -0.2685787283    0.8290613143
 H   -0.8908842088   -0.6459720568   -0.1038236522
 H    2.0133374100   -2.4829907180   -1.4330231481
 H    0.3365189087   -2.6360870532   -0.8385074704
 H    1.2037549701   -1.8407425807   -3.6771019841
 H   -1.5859894984   -2.4603938631   -2.5500115887
 H   -1.2298487137   -2.0264827833   -4.2334724056
 H   -0.6051915971   -3.5446032340   -3.5639622589