19

 O   -0.0669928734    1.4742059291   -0.4168737611
 C   -0.0326692271    0.1378466207    0.0472012215
 C   -1.4248694974   -0.4642556210    0.1300539325
 O   -1.9593115038   -0.4168137116   -1.1996729183
 C   -3.3120844546   -0.6885280463   -1.3098809567
 C   -4.3114472404    0.4195204508   -0.9690553108
 C   -4.0433124249    0.0708850510   -2.3982612193
 C   -3.7534777593   -2.0847627906   -1.0549773568
 O   -3.0328045410   -2.9835574785   -0.7006764169
 H   -0.5591328307    1.4487864191   -1.2452238949
 H    0.5965308427   -0.4965801746   -0.5962130870
 H    0.4166241815    0.1537542205    1.0453581328
 H   -1.3929985590   -1.4978892419    0.4898621487
 H   -2.0549383925    0.1352847052    0.8019634946
 H   -5.2631167417    0.1435892602   -0.5282855615
 H   -3.8673105459    1.3265390338   -0.5759536776
 H   -3.4168786788    0.7382517272   -2.9777877617
 H   -4.8047125698   -0.4535240098   -2.9650466500
 H   -4.8459459739   -2.2412092433   -1.2179550177