19

 C    0.0636076146    1.4234570201    0.0686296978
 C    0.0089758380   -0.0633763280    0.0208107455
 C   -0.0005467477   -0.9215372649   -1.0076129086
 C   -0.0042527959   -2.3049457696   -0.3439212717
 C   -1.0515490747   -2.0605733123    0.7988867651
 C    0.0051047465   -0.9926129931    1.2511815157
 C    1.0375221758   -2.0511968152    0.7794051004
 C    1.9082533762   -2.9536880012    1.5228579021
 O    2.4210339647   -1.9092790497    0.6594858260
 H    0.9700443246    1.7702198123    0.5814908507
 H    0.0597862253    1.8532370258   -0.9372086343
 H   -0.7872534915    1.8422285816    0.6212840552
 H    0.0320089860   -0.7201249459   -2.0690911675
 H   -0.0031798116   -3.1999400223   -0.9640883887
 H   -2.0236029172   -1.6756129222    0.4861998203
 H   -1.1555288472   -2.8997063624    1.4940052012
 H    0.0163451824   -0.5533448582    2.2484206025
 H    2.0829280696   -2.7984139227    2.5866884639
 H    2.0792672823   -3.9688747722    1.1673337942