13

 O   -0.1847765465    0.0263063793    0.1723506046
 C   -0.0151345628    1.2167335714    0.1068969694
 C    1.2797717337    1.9243791932   -0.0001560902
 C    1.2751764128    3.2905975802   -0.0625431233
 C    2.4720646977    4.0421985270   -0.1655958486
 C    3.6359143402    3.3491982354   -0.2007129254
 O    3.7013584294    2.0239836146   -0.1440420213
 C    2.5392855551    1.1856893324   -0.0386134380
 O    2.7380505001    0.0123793335    0.0037993200
 H   -0.8768155469    1.9260105604    0.1230161080
 H    0.3178833707    3.8066977528   -0.0313814998
 H    2.4745645000    5.1218870778   -0.2149904568
 H    4.6178317366    3.8048537021   -0.2778451186