22

 C   -0.0886953001    1.5607041546   -0.0601986932
 C   -0.1075322357    0.0307736731   -0.0738276918
 C    0.7577973858   -0.5606188070   -1.1873550268
 C    0.7660982676   -2.0875140343   -1.1772210951
 O    0.2312951106   -2.7604961271   -0.3101718276
 N    1.4198465019   -2.6667256211   -2.2166163260
 C    2.2351461636   -2.1794273051   -3.3311686404
 C    2.5477095121   -3.6626724131   -3.6858159089
 C    1.6876568716   -4.0833448352   -2.4569490170
 H    0.9258760235    1.9473440618    0.0909385521
 H   -0.4602660356    1.9751431113   -1.0045758473
 H   -0.7166201477    1.9559171897    0.7442374034
 H    0.2366659171   -0.3644487295    0.8869631184
 H   -1.1337410536   -0.3338552657   -0.1899628366
 H    0.4176774369   -0.2094830809   -2.1712235278
 H    1.7949574858   -0.2071954969   -1.0940846756
 H    1.6752587487   -1.6199835535   -4.0900149114
 H    3.1016311304   -1.5796993366   -3.0268425042
 H    2.1530178658   -3.9878588448   -4.6486688836
 H    3.6017619440   -3.9335313515   -3.6227466097
 H    2.2299868363   -4.5703731411   -1.6397184221
 H    0.7910235712   -4.6714519971   -2.6774361089