20

 C   -0.0170138031    1.5133691464    0.0062821490
 C   -0.0689893794    0.0179077589    0.1517694088
 C   -1.2979561576   -0.7766856733   -0.2879774286
 N   -1.3203184851   -2.0314634937    0.4975729650
 C   -1.5306907098   -1.8137782243    1.9379042317
 C   -0.1555393155   -2.0361994047    1.4168856978
 C    0.5991620311   -3.3275201795    1.6072267354
 C    0.6174305400   -0.7687688779    1.1835487731
 O    1.1462935618   -0.6982952702   -0.1514317908
 H    0.9364752681    1.9032783741    0.3707000475
 H   -0.1204968283    1.8016312389   -1.0457890272
 H   -0.8301465371    1.9893843440    0.5643948179
 H   -2.2233065182   -0.2106033634   -0.1304866960
 H   -1.2308478317   -1.0268363972   -1.3524437511
 H   -1.7997791569   -0.8140360420    2.2767176051
 H   -2.0497718981   -2.6197644898    2.4495815518
 H   -0.0893640433   -4.1757646514    1.6243575435
 H    1.3081438406   -3.4748340396    0.7866720412
 H    1.1603997174   -3.3184721994    2.5484373254
 H    1.2400791151   -0.3312051659    1.9615808306