19

 C   -0.1749487674    1.5326059883    0.1913176618
 C    0.0134137067    0.0440581786    0.0113462741
 O   -1.0012263431   -0.7139845113    0.6169587374
 C    0.5262311189   -0.6115752193   -1.2200133050
 C    1.2526190928    0.2302806125   -2.2760612408
 C    2.5150088357    0.8084110268   -1.5972083675
 C    2.6227895855    0.1409090790   -0.2129123780
 O    3.5838401033    0.2122305481    0.5144397287
 C    1.3873256085   -0.6565874369    0.0425666584
 H    0.5839759797    2.1242711884   -0.3221840309
 H   -1.1583242837    1.8264004451   -0.1895165556
 H   -0.1312065720    1.7974257233    1.2545255131
 H   -0.9864749984   -0.5291612096    1.5631646225
 H   -0.0063300661   -1.4995349540   -1.5405191956
 H    1.5350534604   -0.4207288450   -3.1078038474
 H    0.6045227738    1.0084811899   -2.6912031326
 H    3.4310017755    0.5899439680   -2.1528766424
 H    2.4904818964    1.8958006902   -1.4730789957
 H    1.4599969034   -1.5241765121    0.6861451554