16

 C   -0.0256668068    1.5299696301   -0.1374145538
 C   -0.0019588956    0.0390865443    0.0855289398
 O    1.2500860271   -0.6391041536   -0.0825201266
 C    0.6358939149   -0.6592839179    1.2197481039
 C    1.3873066932    0.0802845316    2.3056844935
 C    0.1015993170   -2.0154879651    1.6331106892
 H    0.8124800757    2.0331393811    0.3475569586
 H    0.0263477113    1.7483617076   -1.2094552086
 H   -0.9594669693    1.9575965393    0.2442552437
 H   -0.8394700820   -0.4845870554   -0.3837468733
 H    1.8034734804    1.0222039355    1.9464801847
 H    0.7308098512    0.2895210584    3.1575072501
 H    2.2175142790   -0.5348191706    2.6701469165
 H    0.9196775951   -2.6638318787    1.9662124057
 H   -0.6078220180   -1.9206136161    2.4626303547
 H   -0.4025709332   -2.5061934604    0.7970437022