25

 C    0.0976784141    1.4466576211    0.2920405674
 C   -0.1033578389   -0.0267415833   -0.0735042883
 C    0.6761041719   -0.5057863765   -1.3217632358
 C    0.2609498864    0.2649732699   -2.5778117522
 O    2.0725505439   -0.2234880267   -1.1597853919
 C    0.4492280232   -2.0290125314   -1.4869303449
 C    1.1404642828   -2.6864546966   -2.6626655603
 C    2.5819222785   -3.1133911468   -2.5749378590
 C    1.4915549037   -4.1546774198   -2.6091004732
 H    1.1630769087    1.6876306728    0.3397737542
 H   -0.3643838313    2.1163299441   -0.4393227913
 H   -0.3500360232    1.6674595161    1.2658356770
 H    0.2124243556   -0.6524014149    0.7741410086
 H   -1.1704625506   -0.2374295777   -0.2177191038
 H    0.4256339693    1.3362753875   -2.4440986668
 H    0.8568191733   -0.0550228902   -3.4352494593
 H   -0.7971238135    0.1003764142   -2.8036792172
 H    2.3801370889   -0.7016301183   -0.3820548419
 H    0.7818052393   -2.5213747721   -0.5608521798
 H   -0.6321146861   -2.2123411635   -1.5489300226
 H    0.8176247509   -2.3292799186   -3.6361769341
 H    3.2124402963   -2.9918490649   -3.4485719025
 H    3.1003264398   -2.9519278789   -1.6362726172
 H    1.2746714898   -4.6941781003   -1.6923641676
 H    1.3691645271   -4.7478157753   -3.5087116774