19

 O    0.2018495676    1.0934663497   -0.7558808990
 C   -0.1464790013    0.0963019319    0.1828252015
 C   -1.6384981686   -0.1933349240    0.1732630173
 O   -1.9593726495   -0.6725511422   -1.1301477544
 C   -3.3126145304   -0.9367442759   -1.3080061507
 C   -4.2461654426    0.1740121030   -1.6541917348
 C   -3.8532252571   -0.8581041787   -2.7188429941
 C   -2.9739787286   -0.4070446943   -3.8254300195
 O   -3.0367262412   -0.8311701664   -4.9524030269
 H   -0.1083623515    0.7792625164   -1.6122651081
 H    0.4024873610   -0.8409399308    0.0017956803
 H    0.1434426050    0.4703117790    1.1700340890
 H   -1.8931410882   -0.9486867093    0.9332721733
 H   -2.2065339234    0.7228672583    0.3882335396
 H   -3.6937844378   -1.7529576706   -0.6930773297
 H   -5.2664286067    0.1579029546   -1.2894868084
 H   -3.8104092786    1.1617650986   -1.7673328634
 H   -4.5869972047   -1.6006020647   -3.0110935828
 H   -2.2419681034    0.3807986355   -3.5433095592