19

 C   -0.3958673087    1.4280019574    0.0122461015
 C    0.0663424122   -0.0344025691   -0.0288683925
 C    0.8958749088   -0.3951711955   -1.2685563501
 C    1.4167610095   -1.8519004539   -1.1019152483
 C    2.5175122452   -1.2223814597   -0.2206488765
 C    2.3667718005    0.0711669273   -1.0506918550
 O    2.0281417024   -1.0110691843    1.1185097967
 C    0.8285781180   -0.3870342449    1.2612418509
 O    0.4115258264   -0.1465639264    2.3607589058
 H    0.4516189984    2.1178843504   -0.0551714111
 H   -1.0690784674    1.6371226450   -0.8245500366
 H   -0.9217354461    1.6280017929    0.9477340441
 H   -0.8295718674   -0.6700006897   -0.0076067373
 H    0.3856006042   -0.1182760164   -2.1937163486
 H    0.7626570598   -2.5921431273   -0.6333605100
 H    1.8307623061   -2.2545565662   -2.0292700626
 H    3.4868335024   -1.7055744310   -0.1031001251
 H    2.9534058107    0.0258609059   -1.9709420109
 H    2.5544707851    1.0181088653   -0.5384504044