18

 C   -0.8795512239    1.1716999390   -0.3121390447
 C   -0.0391451016   -0.0995969430   -0.3512821440
 C    1.4480018458    0.1349607121   -0.7606021900
 N    2.1373951920   -0.8228667209    0.1074466045
 C    1.2482653658   -1.1032999995    1.1184730140
 N    1.6736129785   -1.7924394768    2.2558930407
 C    2.9631456754   -2.0300259079    2.6430138077
 O    3.9597031714   -1.6934211075    2.0388566645
 N    0.0234373958   -0.7626299406    0.9680360706
 H   -0.4563077803    1.8905407483    0.3970928161
 H   -0.9212653533    1.6439748604   -1.2997609853
 H   -1.9009861605    0.9444946328    0.0045287731
 H   -0.5007027371   -0.8032883345   -1.0599656259
 H    1.6398950837   -0.0706697772   -1.8167169418
 H    1.7590011145    1.1689280877   -0.5476253221
 H    3.1153882369   -0.7385638287    0.3483911135
 H    0.9228070154   -2.0581565182    2.8763478847
 H    3.0010023816   -2.5817460655    3.5998463444