21

 C   -0.0695098131    1.5596726002   -0.0692791901
 C    1.4773991776    1.5372008056    0.0600068863
 C    1.3729768014    0.0765779085    0.5890999771
 C   -0.0578144390    0.0081074892   -0.0228808356
 C    2.4094365103   -0.9378262387    0.1573883187
 C    3.8664135919   -0.8392113831    0.7586054396
 C    3.6806203067   -2.2543064350    1.3190209782
 O    2.5354465688   -2.2220488298    2.1804744150
 C    2.3198178477   -2.3523768105    0.7698224366
 H   -0.5429013584    1.9862680169    0.8196728983
 H   -0.4985293275    2.0391244394   -0.9523043406
 H    1.9627033125    1.5704021867   -0.9217182864
 H    1.9510603250    2.2818761705    0.7046572732
 H    1.3121958272    0.0761937998    1.6820254507
 H   -0.8363268027   -0.4946607572    0.5560395027
 H   -0.0402747288   -0.4242909806   -1.0295748695
 H    2.4579391772   -0.9951560474   -0.9362602503
 H    4.6357484383   -0.7709804664   -0.0139716203
 H    4.0342928831   -0.0650984397    1.5117745914
 H    4.4222829577   -3.0198959234    1.5155722717
 H    1.7457385541   -3.2100326050    0.4371845133