17

 O    0.1902599078    1.3959675287   -0.1730671938
 C    0.0514388312    0.0010162287   -0.0347129283
 C    0.2402444509   -0.5378816441    1.4098308002
 C   -1.3326199380   -0.5779633516    1.5795438380
 C   -1.4139112244   -0.5130573519    0.0004677261
 C   -1.8928306620   -1.7598148954    2.2162372448
 C   -2.3327861837   -2.7608212372    2.7150144692
 C   -1.8335626977    0.6524669469    2.1891670268
 C   -2.2171291098    1.6921026454    2.6576601466
 H   -0.3679890070    1.8214679728    0.4895906553
 H    0.6954663210   -0.4390434524   -0.7983566387
 H    0.6468034944   -1.5509163551    1.4308100860
 H    0.7865701215    0.0991398063    2.1068471332
 H   -2.1775975394    0.1436099174   -0.4186640617
 H   -1.5167226453   -1.5184509904   -0.4125512392
 H   -2.7290739395   -3.6374003092    3.1647640008
 H   -2.5733981901    2.5938750709    3.0916889446