15

 C    0.0313236175   -1.1911524815   -0.0307239004
 C    0.0124549325    0.0110777206   -0.0542040109
 C   -0.0644767421    1.4304221739   -0.0650077505
 C   -1.2415369828    2.2814047053    0.4364863615
 C   -0.6401103120    3.4860453695   -0.3658015322
 N    0.2449771196    4.1896865327    0.5794511469
 C    1.2162373296    3.3882945029    0.7569240095
 N    1.2638511897    2.2093033527   -0.0606712588
 C    0.2665470999    2.4523709094   -1.1050705157
 H    0.0609031863   -2.2525638580   -0.0136942258
 H   -2.1626301887    1.9153855891   -0.0211533304
 H   -1.3758132715    2.4235135405    1.5114505892
 H   -1.3142010527    4.1445514378   -0.9063821432
 H    2.0114379044    3.5410193004    1.4786648615
 H    0.5293317404    2.3451997147   -2.1512804704