19

 C   -0.0566785476    1.5728863762    0.0915066672
 C    0.0215422388    0.0437106175    0.0300486191
 C   -1.3751357280   -0.5863731811   -0.0824274222
 N    0.8818605747   -0.3900210537   -1.1009602852
 C    1.8204785407   -1.2836076283   -0.6290980052
 C    1.8461670830   -1.3785112351    0.7206191357
 C    0.7795308221   -0.5429555628    1.2304544001
 N    0.4098678813   -0.2484972965    2.4216481253
 O    1.2388987629   -0.8817690706    3.3754644622
 H    0.9463762511    2.0051105182    0.1196230865
 H   -0.5815745304    1.9718895531   -0.7829817910
 H   -0.5893218731    1.8770990020    0.9961775155
 H   -1.9033831478   -0.2144402261   -0.9680857563
 H   -1.3054256230   -1.6763824122   -0.1452145514
 H   -1.9626267452   -0.3339656502    0.8043168833
 H    0.4203027305   -0.5988976158   -1.9748290759
 H    2.4642267111   -1.7903585149   -1.3381285200
 H    2.5458065523   -1.9346237718    1.3209137705
 H    0.8611136567   -0.5707259179    4.2042065718