13

 O    0.1530714057    1.3001884251    0.3201162826
 C    0.0232109188    0.0098823979   -0.2347589503
 C   -1.4036270764   -0.5038663350   -0.1335622025
 C   -1.6506364575   -1.9044551894    0.2647782295
 O   -1.7708850391   -0.8586401930    1.2224210850
 C   -2.4055114822    0.2155192668   -0.8814532349
 C   -3.2159079509    0.8168700140   -1.5334656890
 H   -0.1530790564    1.2462571268    1.2328621834
 H    0.3205428525    0.0893677738   -1.2848288076
 H    0.6853788283   -0.7174809877    0.2588018183
 H   -2.5841420070   -2.3775062996   -0.0325799954
 H   -0.8025643375   -2.5749462222    0.3998320395
 H   -3.9363760981    1.3543289725   -2.0993810487