16

 C   -0.1301780716    1.4131393956   -0.0087684962
 N   -0.1255089173   -0.0324782419   -0.0820029945
 C    0.5696734619   -0.6595028789   -0.9442808679
 N    1.3951998968    0.0465359422   -1.9001347320
 N    2.0937751770   -0.4386373286   -2.7599091569
 O    2.1324046364   -1.9433052673   -2.8769890973
 C    1.3835346070   -2.6368835704   -2.0119994599
 C    0.6034470709   -2.1021574217   -1.0521595440
 C   -0.2129904339   -2.9321541626   -0.1123842022
 H    0.5051889500    1.9142643708   -0.7463235544
 H   -1.1617404826    1.7655042894   -0.1270821622
 H    0.1853602140    1.7128784927    0.9976451464
 H    1.4745529552   -3.7090902382   -2.1712421236
 H   -0.0860335300   -3.9990109168   -0.3163313365
 H    0.0704974369   -2.7322593668    0.9263498883
 H   -1.2749894907   -2.6779421574   -0.1947153673