16

 C    0.1042286220    1.4434180093   -0.3320125697
 C    1.4061481984    2.0180983243    0.3074170113
 C    2.1481273050    0.7674105699    0.6849156098
 C    3.3729822000    0.3085317056    1.0377661939
 O    3.3120352762   -1.0402405340    1.2572071319
 C    2.0206984777   -1.4360731391    1.0408251449
 C    1.2702822326   -0.3651126807    0.6869013463
 C   -0.1265584802    0.0407265898    0.3108847000
 H   -0.7541746971    2.1090023700   -0.2090586469
 H    0.2660468932    1.3161026261   -1.4075498370
 H    1.9488039719    2.6726075420   -0.3808327642
 H    1.1707517812    2.6172011538    1.1967639479
 H    4.3456118800    0.7529795736    1.1688370966
 H    1.8330531815   -2.4885163591    1.1745206423
 H   -0.7639236469    0.1212421007    1.2011411350
 H   -0.6262403356   -0.6495024621   -0.3750068622