15

 O   -0.1334439889    1.4714871139   -0.1079998648
 C   -0.0250034984    0.0787705106    0.0104437760
 C   -1.3710214146   -0.6427001831    0.0014176178
 O   -1.9718373221   -0.6549830349   -1.2883891927
 C   -1.3124223492   -1.8559382487   -0.8372911482
 C    0.0668266613   -1.9294322371   -1.4322574024
 O    0.5551640313   -2.8599407403   -2.0206797597
 C    0.7834155764   -0.5880136732   -1.1421513590
 O    0.7345640140    0.2707802299   -2.2703317493
 H   -0.2307206990    1.6555160039   -1.0516471501
 H    0.4724882157   -0.1260155218    0.9657548506
 H   -2.0545671388   -0.5558619684    0.8419804071
 H   -1.9305795727   -2.7386360201   -0.7089918778
 H    1.8208266765   -0.7930682463   -0.8490297128
 H    1.0968806185   -0.2001101142   -3.0283074548