23

 C   -0.0916602863    1.4246387357    0.0408879895
 C    0.0319035784   -0.0829501283    0.1038073845
 C    1.3798217181   -0.6801102389   -0.2086414738
 C    0.8383245254   -0.6788277587    1.2274729602
 C    0.7470052753   -2.1905926730    1.1860173081
 C    1.0792763613   -3.1330484901    2.3002194091
 C   -0.3355500554   -3.0569442795    1.7648302700
 C    1.3476199505   -2.2201553584   -0.2458118156
 C    0.5964512473   -2.9189296484   -1.3729073860
 H    0.8279167708    1.9100041631    0.3859966273
 H   -0.2824236416    1.7660915320   -0.9825460600
 H   -0.9123564363    1.7832374880    0.6717502827
 H   -0.8616190106   -0.6193015691   -0.2127491689
 H    2.1730132338   -0.0701392161   -0.6265256183
 H    1.1669794090   -0.0897661727    2.0769009643
 H    1.6671537497   -4.0165131950    2.0687034524
 H    1.2765236679   -2.7153492070    3.2828458613
 H   -1.0946593142   -2.5878701858    2.3829716503
 H   -0.6973723111   -3.8916769641    1.1725083692
 H    2.3716320834   -2.6081422142   -0.1954352142
 H   -0.4276279280   -2.5458049208   -1.4709126662
 H    1.1030972714   -2.7633665210   -2.3318506415
 H    0.5410464215   -4.0002106277   -1.2017035844