16

 C   -0.2189734178    1.5612549950    0.1067429010
 C   -0.0582921766    0.0769527060    0.3827866677
 O    0.5612462023   -0.3277139796    1.3400364523
 C   -0.7233319250   -0.8504259740   -0.6254436452
 C   -0.7229734671   -2.3085423192   -0.3004954816
 C   -0.1190839132   -3.0155597953    0.6865382675
 O   -0.4451159463   -4.3360035707    0.5212084146
 C   -1.2367855614   -4.3521074833   -0.5705064106
 N   -1.4428790722   -3.1950564752   -1.1055267556
 H    0.3998250504    2.1335623531    0.7983994489
 H    0.0520937202    1.8015951270   -0.9267137446
 H   -1.2684700835    1.8506393398    0.2358489452
 H   -1.7544259101   -0.5104222741   -0.7908265779
 H   -0.2297000952   -0.6829996625   -1.5947748823
 H    0.5154262642   -2.7643431988    1.5142009126
 H   -1.6155042887   -5.3121151782   -0.8844526719