19

 C    0.0413827346    1.4220604298   -0.0663751107
 C    1.3687361082    0.7116705715    0.0063315341
 C    1.9686210278    0.5178891654    1.3823251955
 O    0.8924021396    0.0577287674    2.2057540419
 C   -0.0129010395   -0.6976133267    1.3946375869
 C    0.0737745680   -0.0826770392    0.0143807388
 C    0.0580032492   -0.8404649908   -1.2956871103
 O    1.0067831642   -0.1726940536   -2.1334994690
 C    2.0395355399    0.3750278994   -1.3079992130
 H   -0.2844389283    1.9621659375    0.8162053286
 H   -0.2361231688    1.8648224207   -1.0170454224
 H    2.7834614422   -0.2239516689    1.3350485453
 H    2.3571651452    1.4262594416    1.8535096481
 H    0.2786983181   -1.7604211024    1.3506056485
 H   -0.9944253995   -0.6296756203    1.8743379621
 H    0.3439017741   -1.8918327559   -1.1241775793
 H   -0.8967724770   -0.8263903357   -1.8307792392
 H    2.4548288643    1.2295111642   -1.8516058795
 H    2.8486971877   -0.3553650040   -1.1397355965