18

 C   -0.2560423193    1.5498236364    0.1663366216
 C    0.0203308015    0.0557755298    0.0625545273
 O    1.1531672871   -0.2270607094   -0.7929325217
 C    1.8644700785   -0.9262067495    0.2600863420
 C    0.7366643626   -0.6376623705    1.2410409162
 C    0.8072143670   -0.1930359716    2.6685767638
 C    0.1606975408   -1.5110010631    2.3066680220
 C   -1.1807498846   -0.6672927023   -0.3978636415
 N   -2.1321423205   -1.2351957151   -0.7269634887
 H    0.6376991939    2.0588761986    0.5338785416
 H   -0.5150635976    1.9500459546   -0.8174953183
 H   -1.0887238289    1.7456811258    0.8486801068
 H    2.0188790008   -1.9828625844    0.0110629110
 H    2.8312460802   -0.4551573906    0.4728859611
 H    1.7786209519   -0.2085919671    3.1526944092
 H    0.1645556924    0.6213452642    2.9866059381
 H   -0.9200705267   -1.5877512825    2.3674510358
 H    0.6881272310   -2.4288256734    2.5454614738