19

 C    0.7027404049    1.3662892210   -0.2618179358
 C   -0.2207787033    0.1856839469   -0.5754303372
 N    0.3676317800   -1.0563410382   -1.0504635346
 C    1.6055244522   -1.1690533139   -1.1959738902
 O    2.1163050031   -2.3569377513   -1.6381123279
 C    3.5299095343   -2.4229987395   -1.7776911046
 C    3.9026771281   -3.8915210302   -1.9664548626
 C    3.9899562647   -1.5988204436   -2.9161054806
 N    4.3545555136   -0.9476507493   -3.7980017391
 H    1.4164304698    1.1280125966    0.5344034090
 H    1.2677212561    1.6875803435   -1.1432458416
 H    0.1043598773    2.2174505100    0.0760642744
 H   -0.8096541825   -0.0657248201    0.3163425296
 H   -0.9586101683    0.4905987796   -1.3287350697
 H    2.3665646357   -0.4038472834   -1.0036452369
 H    4.0156795003   -2.0301404376   -0.8731894951
 H    3.4166264930   -4.2902355564   -2.8591694437
 H    4.9847589502   -3.9977750584   -2.0717655953
 H    3.5660429408   -4.4581670455   -1.0958420580