20

 C    0.0422016529    1.6002892896    0.2000199351
 C   -0.0786845528    0.0829689264    0.3604286924
 C   -1.4656554593   -0.4846130847    0.1026950508
 C   -2.6834092361    0.3343424285    0.1908217521
 O   -2.1284602273   -0.0315700841   -1.0810190541
 C   -1.6286733819   -2.0028085943    0.2994435345
 C   -0.7410613133   -2.8306670889   -0.6521874662
 C   -1.3967184855   -2.3714766160    1.7000281533
 N   -1.2047697166   -2.6533554196    2.8045237020
 H    1.0921515698    1.9015434907    0.2450047954
 H   -0.3628204767    1.9207184779   -0.7639087273
 H   -0.4863631634    2.1369403176    0.9934455260
 H    0.6156136683   -0.4048078564   -0.3343815313
 H    0.2330011379   -0.2189917272    1.3673562624
 H   -3.6328089523   -0.1381212699    0.4390557919
 H   -2.6165871564    1.3905439163    0.4363600187
 H   -2.6751731903   -2.2352250427    0.0721388705
 H   -0.9182597830   -2.5019954899   -1.6792255767
 H    0.3193045560   -2.7127250885   -0.4191275013
 H   -0.9873401201   -3.8921828948   -0.5754478482