21

 C    0.0174229238    1.5704525663   -0.0733702978
 C    0.1089541989    0.0399612898   -0.0878237462
 C    0.6931676308   -0.5372917687    1.1980904767
 C   -0.2171034878   -0.6391831195    2.4922378056
 O   -1.5999977337   -0.3774919044    2.3499171264
 C    0.0976011106   -2.1248125344    2.5916627571
 C   -0.3477796137   -2.8280773014    1.3262951285
 C    0.9343036668   -2.0475335290    1.3205025393
 O    2.1677929032   -2.6433094937    1.1094819115
 H    1.0040570677    2.0263354396    0.0649533082
 H   -0.4012949419    1.9552814675   -1.0083722491
 H   -0.6233129423    1.9280075333    0.7411095698
 H   -0.8866720359   -0.3819183869   -0.2612411730
 H    0.7337073954   -0.2751717094   -0.9341632404
 H    1.6209155118   -0.0134172714    1.4556893439
 H    0.2040812512   -0.0673112534    3.3279646357
 H   -1.7256022532    0.5761016757    2.3223457950
 H    0.2840581947   -2.6704921537    3.5077564685
 H   -0.2019389095   -3.9034375891    1.3536757190
 H   -1.2359894459   -2.4996958369    0.7968622348
 H    2.1914426790   -2.9775115105    0.2066689163