18

 C   -0.1573806782    1.5947997793   -0.0179856363
 C   -0.0331190113    0.0799872373   -0.0011222017
 C    1.1869958620   -0.5907388823   -0.6736751303
 C    2.1359463478   -0.3013422258    0.5451802151
 C    2.5902913468   -1.7695605361    0.6462110888
 C    1.0962368381   -1.8541305279    0.2665641626
 C    0.2830311413   -3.0204034510    0.0491108763
 N   -0.3656715688   -3.9627836615   -0.1244703168
 C    0.7222527437   -0.6084289297    1.1592077982
 H    0.7898765948    2.0861565650    0.2266578439
 H   -0.4721913762    1.9492143197   -1.0053343653
 H   -0.9058007759    1.9326950300    0.7067697946
 H   -0.9896389328   -0.3954793934   -0.2482458523
 H    1.4763234783   -0.6222305764   -1.7253170815
 H    2.7243855974    0.5999236079    0.7030832908
 H    3.2999594131   -2.1230899845   -0.1068896761
 H    2.8570414893   -2.1399482220    1.6399063549
 H    0.4757214105   -0.6603147183    2.2208969352