16

 C    0.1028070694    1.3187562044    0.0070462157
 O   -0.0790779665   -0.0972788161    0.0013062785
 C   -1.3537828901   -0.5377010194    0.0124804516
 N   -2.3263060532    0.2797191764    0.0269154473
 C   -1.3609895228   -2.0492821020    0.0048328162
 C   -2.7455000031   -2.6805663930    0.0133754578
 O   -2.5607346356   -4.0862636668    0.0046152748
 H    1.1820604701    1.4777967470   -0.0033048057
 H   -0.3613332553    1.7745684208   -0.8719859611
 H   -0.3429483176    1.7650198843    0.9003752121
 H   -3.2196806776   -0.2057448354    0.0338157909
 H   -0.8085359726   -2.3967046487   -0.8753623430
 H   -0.7937605961   -2.4055871179    0.8720152419
 H   -3.2997619011   -2.3549754181    0.9082253326
 H   -3.3148850541   -2.3457554979   -0.8684609222
 H   -3.4268837339   -4.5038380276    0.0082612327