12

 O   -0.0716378646    0.0170447691    0.0026631179
 C   -0.0289922662    1.2168180165    0.0081847441
 C    1.3278719805    1.9634237683   -0.0021142665
 O    2.3707227059    1.3489819788   -0.0165009969
 C    1.2799640897    3.4342728125    0.0064548099
 C    2.3385509086    4.2941896421   -0.0001110751
 O    1.8554556534    5.5567762304    0.0120647985
 C    0.5019343144    5.4082328708    0.0256562168
 N    0.1013422003    4.1846230802    0.0231398236
 H   -0.9344856150    1.8521229548    0.0205697017
 H    3.4069925423    4.1681926765   -0.0122113513
 H   -0.0829654595    6.3140955899    0.0369044473