19

 O   -0.0239606332   -0.0479195821    0.5278739856
 C   -0.0578700570    1.0616515237    0.0677972260
 C   -1.3555004507    1.8602572618   -0.0289093493
 C   -1.7272308378    2.3308106126   -1.4222999013
 C   -2.2676203814    3.7276705128   -1.6247747123
 C   -0.8682380458    3.3867686831   -2.0678879288
 C    0.3581494278    3.8488631587   -1.3070148797
 C    1.3910950872    2.7310903589   -1.1722050747
 O    1.1231693351    1.6477389089   -0.2644924513
 H   -2.1326070590    1.2138203858    0.3838646578
 H   -1.2620673843    2.7182797469    0.6457141929
 H   -2.1217258629    1.5532922539   -2.0692126167
 H   -3.0239047959    3.8834462641   -2.3859647984
 H   -2.3873878659    4.3532554472   -0.7453745019
 H   -0.7132904939    3.2888793646   -3.1391503663
 H    0.8462537314    4.6741393425   -1.8404127053
 H    0.0986983214    4.2423454906   -0.3188950174
 H    1.5773122207    2.2888120535   -2.1598881170
 H    2.3393822941    3.1391180624   -0.8108969319