19

 C   -0.0182500381    1.5152348953    0.0073002143
 C    0.0047552822   -0.0033509591    0.0082288032
 C    0.7084398537   -0.7379838258   -1.1826982895
 C    0.3905953853   -2.1372760946   -0.5983827806
 O    0.8564327486   -3.2118003306   -1.3711162585
 C    1.0138525865   -1.9437147320    0.8048480427
 C    0.7822445698   -0.6830742056    1.1616450566
 C   -1.1412922341   -1.9772929407   -0.4475626835
 C   -1.3661034872   -0.7163900907   -0.0873586796
 H    0.9965789944    1.9262828241    0.0105779627
 H   -0.5350568043    1.9025744223   -0.8768504739
 H   -0.5366716056    1.9026244766    0.8917438823
 H    0.2234904584   -0.5608232765   -2.1465199336
 H    1.7815408564   -0.5365165594   -1.2408425838
 H    0.6121527790   -4.0319791494   -0.9306261363
 H    1.5003915468   -2.7335585637    1.3631889192
 H    1.0318662842   -0.1884168005    2.0921189135
 H   -1.8486777316   -2.7857458197   -0.5829732055
 H   -2.3094893245   -0.2402390099    0.1494526403