15

 C    0.0796207261    1.3225403639    0.0070025686
 O   -0.0713590338   -0.1034812436    0.0005299335
 C   -1.3279123425   -0.5571931943    0.0119700261
 N   -2.3397305979    0.1984696616    0.0264721868
 N   -1.3035966910   -1.9724361427    0.0048312938
 C   -0.2036996619   -2.8061930274   -0.0046832164
 N   -0.5698934384   -4.0544675562   -0.0084473125
 N   -1.9596535726   -4.0796537078   -0.0020349593
 C   -2.3690667469   -2.8453256137    0.0055339379
 H    1.1551136562    1.4973091258   -0.0033353105
 H   -0.3945013769    1.7596552081   -0.8745814813
 H   -0.3758329249    1.7496501275    0.9032184718
 H   -3.2204438653   -0.3051979823    0.0346201455
 H    0.8054004767   -2.4319490465   -0.0077556608
 H   -3.3990812969   -2.5272984524    0.0113519471