18

 N   -0.0540804481    1.2633687517    0.0002081596
 C   -0.0314103788    0.0034420790   -0.0184207885
 O    1.1027127453   -0.7703331004   -0.0565775790
 C    0.7259534469   -2.1701640619   -0.1285165731
 C   -0.6609859353   -2.1223636222   -0.7830644801
 C   -1.2278731095   -0.9358855574    0.0166230923
 C   -1.4240250470   -1.3760227320    1.4594146548
 C   -0.5599464344   -2.2167083184    2.0298508051
 C    0.6430630702   -2.7514729145    1.2895153506
 H    0.8965031399    1.6385569699   -0.0108108123
 H    1.4925377319   -2.6711301675   -0.7226622179
 H   -0.5811154977   -1.8910417117   -1.8490723552
 H   -1.2312947234   -3.0434851442   -0.6505578057
 H   -2.1158894352   -0.4667956323   -0.4020761741
 H   -2.2604928425   -0.9620416379    2.0122240518
 H   -0.6912875168   -2.5291612731    3.0621964856
 H    0.6094712659   -3.8488559303    1.2374728169
 H    1.5654663288   -2.5005701667    1.8289446793