18

 C    0.0293186619    1.3901791751    0.1103950664
 O   -0.0045008905   -0.0156674990    0.0208520411
 C    0.6396233214   -0.5091706334   -1.1276111798
 C    0.5132481438   -2.0368525314   -1.1145788367
 C    1.1764305467   -2.6834287663   -2.2855854851
 C    0.7073264323   -3.1724140158   -3.4845377100
 N    1.7523873319   -3.6388206097   -4.2237978543
 N    2.8548692987   -3.4693440766   -3.5546759881
 N    2.5154669892   -2.8904869535   -2.3847857999
 H    1.0616676953    1.7710657734    0.1577414598
 H   -0.4728697905    1.8657544825   -0.7464081107
 H   -0.4934468284    1.6709427961    1.0275078999
 H    0.1835940266   -0.1014399367   -2.0449815434
 H    1.7029378174   -0.2113816840   -1.1386926669
 H    0.9314946956   -2.4117235277   -0.1734220573
 H   -0.5485888494   -2.2980358563   -1.1126579745
 H   -0.3076374018   -3.2178174589   -3.8457572283
 H    3.2368129900   -2.6873295077   -1.7107713024