15

 C    0.2092595442    1.3604483636   -0.0776078225
 O   -0.1297273412   -0.0026754445    0.1038374244
 C    0.6087090374   -0.6310925046    1.1402737457
 C   -0.0010697407   -1.9334750015    1.4195924075
 C   -0.4931393987   -2.9968191797    1.6776631472
 C    2.0358932008   -0.7789907643    0.8089468707
 C    3.2108299240   -0.8741381025    0.5374076295
 C    4.5315183065   -0.9891298369    0.2314598638
 C    5.7037820031   -1.0882997473   -0.0394238683
 H    1.2555854009    1.4845812700   -0.3861437028
 H   -0.4448630488    1.7397187354   -0.8647325162
 H    0.0405253344    1.9417617776    0.8418265443
 H    0.5425479503   -0.0156964464    2.0568782183
 H   -0.9291052901   -3.9404940218    1.8962904800
 H    6.7343936480   -1.1795994569   -0.2783120114