18

 C   -0.0098186270    1.7073200331   -0.1693333834
 C    0.0564819093    0.1859983504   -0.0913623364
 C   -1.3366584096   -0.4664893788   -0.0552828255
 C   -2.1909969214   -0.0107832617    1.1109360132
 O   -3.3033225649    0.4383514498    1.0009984376
 C    0.9800074794   -0.4509427436   -1.1757233505
 N    2.0439448950   -1.1445406556   -0.4353720953
 C    1.8114461138   -0.9222981284    0.7889543996
 O    0.7418920160   -0.1759308206    1.1543100652
 H    0.9979921190    2.1311461084   -0.1617809281
 H   -0.5076496745    2.0146486062   -1.0945319962
 H   -0.5676126144    2.1281904605    0.6720653082
 H   -1.8751293105   -0.2614258363   -0.9853697417
 H   -1.2013085389   -1.5530626251    0.0327636820
 H   -1.7113855276   -0.1281123103    2.1063517887
 H    0.4418164748   -1.1614439374   -1.8119443753
 H    1.4194634000    0.3072444820   -1.8334221230
 H    2.4103099715   -1.2819160427    1.6186857910