16

 C   -0.2050878174    1.3564085677    0.0942853557
 N    0.0271801343   -0.0668304495   -0.0103689874
 C    0.3557644152   -0.7814261303   -1.1156695945
 C    0.4057452418   -2.1058450790   -0.7384634214
 C    0.0808644225   -2.0918805560    0.6353782804
 C    0.0204144819   -3.2525954242    1.5772541397
 O   -0.5384609608   -4.3631263646    0.8850761195
 N   -0.1548020499   -0.8540029767    1.0686686327
 H    0.1638024811    1.8441632797   -0.8097836375
 H   -1.2722211709    1.5719340325    0.2088566980
 H    0.3278281906    1.7524274915    0.9615574037
 H    0.5215980816   -0.2978774413   -2.0658609356
 H    0.6324712972   -2.9605188595   -1.3530100306
 H    1.0342498412   -3.4939954478    1.9375613497
 H   -0.5772506382   -2.9651601628    2.4541072923
 H   -0.4545574101   -5.1344831498    1.4531758350