16

 O   -0.1236268515    1.4018678072    0.1432845917
 C   -0.0464286887    0.0277567580    0.0682725783
 C   -0.8058101718   -0.8497276488    1.0017424959
 C    0.7016671391   -1.0022191372    0.8780216590
 N    1.2504913382   -1.6895869821   -0.3599884040
 C    0.1711175077   -2.1836256384   -1.2018329744
 C    0.4233107842   -0.7118397381   -1.2107779451
 C    1.0306455641   -0.0498089070   -2.3856777613
 O    1.5886150969   -0.6385584400   -3.2816514744
 H    0.7603089030    1.7726781053    0.0339390097
 H   -1.0705899053   -0.3341873692    1.9203336015
 H   -1.5363568390   -1.5879156828    0.6902298315
 H    1.3702996794   -0.9221547890    1.7246585342
 H    0.5430871871   -2.7021468803   -2.0810590428
 H   -0.7368292347   -2.5901403070   -0.7724434984
 H    0.9234724414    1.0567955694   -2.4025670311