18

 C    0.2104256450    1.5267536278    0.0824431170
 C   -0.0574782991    0.0338727238   -0.0427457565
 C    0.9558154214   -0.7695646182   -0.9150598634
 N    1.4282885596   -1.4376049263    0.3017199203
 C    0.3979578561   -0.8398394098    1.1650480396
 C    1.9501596193   -2.7076097159    0.3226628711
 N    1.9426366042   -3.3029963362    1.5794313413
 O    2.3562990094   -3.2687937907   -0.6789963977
 H    1.2514594647    1.7157802166    0.3675938842
 H    0.0254371362    2.0402614559   -0.8669970178
 H   -0.4345270086    1.9837338072    0.8407489167
 H   -1.0974486957   -0.1439951753   -0.3246319153
 H    0.5146136686   -1.4625957320   -1.6386028574
 H    1.7215359821   -0.1725424159   -1.4222374098
 H    0.7939462335   -0.2803660491    2.0223858572
 H   -0.3441919684   -1.5621368296    1.5253515289
 H    2.0161381562   -2.6975659279    2.3832970795
 H    2.5326651854   -4.1201361943    1.6228535323