20

 C    0.1790116059    1.5020150512   -0.2574571155
 C   -0.0916895395    0.0468345294    0.1200687053
 O    0.0819549349   -0.8267613961   -1.0080796813
 C    1.2586605930   -1.6262197967   -0.8916940393
 C    1.5749598740   -1.7286508348    0.6061844542
 C    2.8771561041   -1.0949572395    1.1442736331
 N    2.9926522120    0.2303359510    0.4991676216
 C    2.1279921378    0.0681069474    1.6941587032
 C    0.7827242197   -0.5413779808    1.2454293285
 H    1.2162858258    1.6372077249   -0.5665370254
 H   -0.4795389048    1.7977503938   -1.0790852710
 H   -0.0243452728    2.1612754648    0.5947703422
 H   -1.1493610594   -0.0461128197    0.4010722861
 H    1.0359719912   -2.5965156440   -1.3477709653
 H    2.0942571487   -1.1645151072   -1.4314432191
 H    1.3508572392   -2.7044996771    1.0379236908
 H    3.7523819916   -1.6054626689    1.5260286151
 H    3.8652249413    0.6488607867    0.8185525581
 H    2.3117367224    0.6546983680    2.5859869050
 H    0.1925317848   -0.8425974226    2.1127739238