21

 C   -0.0354226442    1.3315782434   -0.0550209193
 O    0.0085580701   -0.0753787910   -0.0174573487
 C    0.6994490281   -0.5718350133    1.1114725288
 C    0.7132809202   -2.0983804116    1.0242832512
 C    1.5510600070   -2.5564222296   -0.1979793955
 O    1.4063055821   -3.9315624333   -0.5165225482
 C    1.2649411654   -2.7077687983    2.3132310585
 C    0.8958369045   -4.1459033182    2.6031710056
 O    1.9815502486   -2.0605955282    3.0461595719
 H    0.9734906704    1.7708406241   -0.0982348114
 H   -0.5855849831    1.6185874144   -0.9544741872
 H   -0.5510108544    1.7463997879    0.8253218453
 H    1.7284828790   -0.1826229744    1.1460675351
 H    0.2081017653   -0.2491652683    2.0420672688
 H   -0.3164456667   -2.4455249618    0.8651453588
 H    1.2808741428   -1.9169632863   -1.0463140956
 H    2.6149044815   -2.4043676341    0.0139212480
 H    0.5360409834   -4.0534253016   -0.9091684586
 H    1.1373550453   -4.7634890962    1.7322728426
 H    1.4224287668   -4.4969650522    3.4915255485
 H   -0.1862971020   -4.2268812116    2.7626713413