21

 C   -0.6627153675    1.3288496538    0.1127027588
 C    0.0385615133   -0.0073322351    0.0003209038
 O    1.1767396043    0.0091894974   -0.9073833248
 C    2.0240252276   -0.6420252571    0.0585492099
 C    2.8979904692    0.3524980662    0.8539787181
 C    1.7655272484    0.4732224168    1.9220788453
 C    0.9127899230   -0.5738626456    1.1467243980
 C    0.3671696634   -1.7485725029    1.9132427221
 O   -0.6910884578   -1.2595618813    2.7308442190
 H    0.0268734820    2.1253062729    0.4045862628
 H   -1.1035179899    1.6024500812   -0.8512769100
 H   -1.4647721906    1.2649119260    0.8551293904
 H   -0.6839499129   -0.7681249598   -0.3333444280
 H    2.4754225827   -1.5603367427   -0.3306508472
 H    3.8204509446   -0.0869072864    1.2439736080
 H    3.1441017240    1.2576259719    0.2948536880
 H    2.0595490122    0.1176788500    2.9125575226
 H    1.3161306584    1.4601530218    2.0434951122
 H    0.0051832029   -2.5179696372    1.2113701931
 H    1.1630016456   -2.2066982257    2.5232680132
 H   -1.0576226228   -1.9978350045    3.2265270448