21

 C    0.0797811151    1.4739978706    0.1092502708
 C    0.0324852608    0.0193717161    0.0511706353
 C   -0.0092749252   -1.1839619106   -0.0412794259
 C   -0.0478361488   -2.6149522993   -0.0706340044
 C   -0.4743214514   -3.3305099047    1.2119924380
 O   -0.8285146626   -2.5694460098    2.3210579556
 C   -1.3758877996   -3.3953419406    0.0061712339
 C   -2.6790074580   -2.6272533104    0.0305517508
 C   -1.4114019189   -4.6993371953   -0.7658961725
 H    0.9635629568    1.8277858234    0.6518253411
 H    0.1121602454    1.9081893071   -0.8962537422
 H   -0.8035713210    1.8798369880    0.6145503570
 H    0.7431205611   -3.0874877184   -0.6468325457
 H    0.0801448685   -4.2293599942    1.4769636879
 H   -0.4725807726   -1.6796389173    2.1934928901
 H   -2.6155941463   -1.7495738507    0.6743681405
 H   -2.9586085393   -2.2980744561   -0.9761630683
 H   -3.4840072216   -3.2651276935    0.4124680714
 H   -2.1765316091   -5.3699100957   -0.3579138145
 H   -1.6457678660   -4.5275038341   -1.8228319579
 H   -0.4506805375   -5.2225113146   -0.7189393710