20

 C   -0.0705216369    1.6122970263    0.1037149611
 C    0.1127174788    0.1115827184    0.0575627974
 C    0.5281326673   -0.6308578161   -1.1812558674
 C    0.7460570870    0.0263447789   -2.5315360870
 C    1.7664211105   -0.6927844194   -3.4370379507
 O    3.0913414337   -0.2212389667   -3.3085863179
 C    1.5064103357   -0.5159963413   -0.0036732575
 C    2.6732865636    0.3069169745   -0.1121479367
 N    3.6317892573    0.9491685267   -0.2192837328
 H    0.6971424873    2.1425141453   -0.4638705601
 H   -1.0481458297    1.8929870755   -0.3014743659
 H   -0.0197497500    1.9706555953    1.1365622243
 H   -0.5625800826   -0.4321441574    0.7128710729
 H    0.1194108480   -1.6353223543   -1.2659737200
 H   -0.2272879542    0.0449429162   -3.0386249414
 H    1.0664563814    1.0675638075   -2.4336079057
 H    1.7015909321   -1.7823370361   -3.2728788066
 H    1.5009614193   -0.5149909486   -4.4842684153
 H    3.3650663737   -0.2508770192   -2.3855751598
 H    1.6714625277   -1.4135358358    0.5831051391