19

 C   -0.0886218255    1.5317615325    0.0539868378
 C    0.0403803499    0.0384956262   -0.0420975958
 C   -0.2736382148   -0.7636135429   -1.3018917003
 C   -0.6897542390   -1.9116255309   -0.3526341721
 C    0.4630312017   -2.8675594776   -0.0457297113
 N    1.7765300501   -2.4270474676   -0.5813509256
 C    1.3910129905   -2.0872032299    0.8044677808
 C    0.7058794499   -0.7638367096    1.0304664801
 N   -0.7659980825   -0.9120071649    0.8257261607
 H    0.7449137448    2.0261222585   -0.4587222873
 H   -1.0205883846    1.8716956131   -0.4109682870
 H   -0.0902367111    1.8637733744    1.0964211694
 H   -1.1511903257   -0.3335332872   -1.7929862681
 H    0.5156188776   -0.9497574855   -2.0290863136
 H   -1.6402499813   -2.4078329678   -0.5415431984
 H    0.2777656039   -3.9256923949    0.1023039504
 H    2.4219112429   -3.2152275873   -0.5560877636
 H    1.9417811958   -2.5261487129    1.6298513209
 H    0.9696234774   -0.2164307556    1.9302824930