15

 N    0.6202216799   -0.4364982356   -0.0146785990
 C   -0.2095174562    0.6392693923   -0.0817043147
 O    0.1471384400    1.7791402534   -0.3018308665
 C   -1.6719498834    0.3162967522    0.1377512048
 O   -2.0395763903   -1.0454739187    0.3832521280
 C   -2.2348207207   -0.0862246029    1.4403072909
 C   -1.4303810669   -0.2946403126    2.6982664172
 O   -1.9872650830   -1.3305913092    3.4906591886
 H    1.5914779703   -0.3103086057   -0.2472970659
 H    0.2291760765   -1.3625667630    0.0333228880
 H   -2.3216169850    0.8628980228   -0.5436981489
 H   -3.2855926828    0.1472696682    1.6159219245
 H   -0.3789398805   -0.4867632023    2.4493696984
 H   -1.4721984069    0.6138657267    3.3083666330
 H   -1.9684020710   -2.1366056657    2.9631855617