22

 C   -0.2358363935    1.6826431273   -0.4605056376
 C    0.0072806230    0.2999121110    0.1401082990
 N   -1.2465408783   -0.4467730386    0.1972087845
 C   -1.5865384405   -1.2954634280   -0.9377702098
 C   -1.2429457471   -1.8985863228    0.3849317306
 C    0.0064720258   -2.7188852938    0.5694216737
 C    0.4997979649   -2.9749163439    2.0154238550
 O    0.4380522466   -4.4035831161    1.8348897493
 C   -0.1622822635   -4.2581183078    0.5331314718
 H    0.6893081682    2.2671119318   -0.4729695015
 H   -0.5988773288    1.6009722755   -1.4902869699
 H   -0.9868590529    2.2259618702    0.1193560884
 H    0.7899663909   -0.2154629743   -0.4414464880
 H    0.3832364861    0.3996852397    1.1657023184
 H   -2.6157698687   -1.2539027337   -1.2849559447
 H   -0.8449969729   -1.4019025930   -1.7306780682
 H   -2.0688374688   -2.2374422565    1.0126080912
 H    0.8071820881   -2.3799194621   -0.0892764722
 H    1.5130240860   -2.6330930266    2.2571733359
 H   -0.1891544386   -2.6290145438    2.7985305500
 H   -1.2067300672   -4.6001450034    0.5216038800
 H    0.3953144912   -4.7950226913   -0.2429549460