22

 C    0.7047661651   -0.2538938447   -1.6424218705
 C    0.1548818402    0.1229232218   -0.2601774527
 C   -1.2582554786   -0.3882573025    0.0115234871
 C   -2.1297307869    0.4600157436    0.9237239431
 C   -2.4089230906    0.3958527356   -0.5596444612
 O   -2.1045018850    1.4865939502   -1.3804111657
 C   -1.3760538520   -1.8909706818    0.0486707491
 C   -1.1427643550   -2.6478654808    1.3052420573
 N   -2.4857101844   -2.6051610321    0.6978795862
 H    1.7046000976    0.1686502112   -1.7837748181
 H    0.7882520647   -1.3372686911   -1.7731159845
 H    0.0570404852    0.1377262440   -2.4317854396
 H    0.8197162197   -0.2603427183    0.5244226764
 H    0.1546097307    1.2126407449   -0.1714871976
 H   -2.8355677516   -0.0021917270    1.6078061247
 H   -1.6803202346    1.3717406124    1.3032450755
 H   -3.2836847989   -0.1765933603   -0.8700333729
 H   -2.7580009786    2.1746605681   -1.2177656920
 H   -1.0781920756   -2.3703838799   -0.8814198951
 H   -0.6584651918   -3.6200155931    1.2854544311
 H   -0.9683881047   -2.0692844990    2.2091174647
 H   -3.0725920446   -1.9601326812    1.2208931048