18

 C   -0.3894895313    1.4411630474    0.2170676918
 C    0.2397111898    0.0736016384   -0.0515407144
 N    0.8026098557   -0.5325466035    1.1461143494
 C    0.1558767384   -1.1099171893    2.1925167957
 C    1.1813967814   -1.4525090168    3.0501886093
 O    1.0560519944   -2.0642770617    4.2374592194
 C    2.2772956427   -2.3163101853    4.9313639362
 N    2.3625026906   -1.0788059657    2.5060242799
 N    2.1258586859   -0.5151483492    1.3428412801
 H    0.3533263109    2.1302699108    0.6273552210
 H   -0.7758166967    1.8616667658   -0.7160078212
 H   -1.2192170567    1.3658544034    0.9257800551
 H   -0.4947194819   -0.6196986385   -0.4737256440
 H    1.0705703780    0.1574477535   -0.7548576841
 H   -0.9115624599   -1.2310834779    2.2400485537
 H    2.8079497287   -1.3834519231    5.1465150069
 H    1.9921164035   -2.8105510084    5.8610015775
 H    2.9368723867   -2.9642382198    4.3454826775