19

 O    0.0083085890    1.4843134990    0.2443303231
 C   -0.0121723231    0.0715078377    0.3828783324
 C   -1.3768920712   -0.4886069682    0.0332339367
 C   -2.5693610250    0.3914573513   -0.1063258757
 N   -2.0244184454   -0.3176158369   -1.2666994747
 C   -1.3650217530    0.4626663896   -2.3060793612
 C   -2.4090783349    0.8098150057   -3.3841234578
 C   -1.8249100053    1.5407387026   -4.5048025563
 N   -1.3428563063    2.1166100734   -5.3832143460
 H    0.9179082104    1.7839191294    0.3336285832
 H    0.7507513890   -0.3999021123   -0.2573239988
 H    0.2107106820   -0.2246493265    1.4202342674
 H   -1.5172153899   -1.4885265875    0.4423167519
 H   -3.5451854005    0.0595545910    0.2377585739
 H   -2.3863144916    1.4605318151   -0.0321604652
 H   -0.8903137899    1.3786615584   -1.9338067880
 H   -0.5826637884   -0.1581221663   -2.7567980301
 H   -2.8736967166   -0.1107232195   -3.7519424155
 H   -3.2081518692    1.4169030141   -2.9439316293