18

 C   -0.1624564606    1.3216404006   -0.0315500924
 N    0.0855941708   -0.1150037224    0.1015535562
 C    1.5251596953   -0.4582868582   -0.1349519389
 C    0.9176495258   -0.4720485277    1.2482006386
 C    0.9633915659   -1.9912425359    1.2892440672
 C    1.4120053134   -2.8989010504    2.4070454832
 C    0.0113046972   -2.9952032523    1.8698074689
 C    1.6108229518   -1.9780948674   -0.0888880888
 O    2.1183848561   -2.8178824019   -0.7754989919
 H    0.6620897643    1.9566920326    0.3324318113
 H   -0.3399370348    1.5563554731   -1.0848641186
 H   -1.0659673687    1.5706923416    0.5332745127
 H    2.1850293659    0.2578407249   -0.6081278305
 H    1.1096434860    0.2226398461    2.0567690943
 H    2.1211449032   -3.6769399803    2.1444183802
 H    1.5611452697   -2.4543983796    3.3854845661
 H   -0.8024730462   -2.6167355460    2.4788791363
 H   -0.2415460553   -3.8474004068    1.2479393862