18

 C   -0.0449429477    1.6087597751    0.1601176177
 C    0.0301601524    0.0950396580    0.0271518224
 C    0.7347367147   -0.5174880160   -1.2350396468
 C    1.2703774242    0.3861764346   -2.3386520062
 C    1.7731362549   -1.0982990493   -0.2569026884
 O    2.7721744665   -1.7440515904   -0.3447129314
 N    1.0817616380   -0.5544384119    0.8511429507
 C    1.2316117728   -0.6389819893    2.2225434421
 O    2.1218851063   -1.2137781918    2.7920978353
 H    0.9358179188    2.0735070385    0.0298049127
 H   -0.7275750244    2.0214294125   -0.5892136914
 H   -0.4249811812    1.8938954325    1.1460944479
 H   -0.9532918093   -0.3499603324    0.2109679782
 H    0.1355909015   -1.3245830763   -1.6685538432
 H    1.8944985477    1.1923895983   -1.9441444290
 H    1.8864589115   -0.2022601679   -3.0242425609
 H    0.4549812432    0.8336935047   -2.9149418247
 H    0.4131498702   -0.1039844091    2.7469467052