23

 C    0.2449057380    1.5767995309    0.0597136153
 C   -0.0245748267    0.0832159902    0.0793026246
 C   -1.4674230875   -0.3225880467    0.3548100613
 C   -2.4780625349    0.2162856101   -0.6414147523
 C   -2.6852167709   -0.4582847623   -1.9863368670
 C   -3.7519453876   -0.5285125322   -0.9223550332
 O   -3.9553833076   -1.7268101065   -0.2270817179
 C    0.7979386805   -0.7869627496   -0.8420507777
 C    1.0572936435   -0.8049686859    0.6469926822
 H    1.3106568356    1.7826988870   -0.0809798876
 H   -0.2954272727    2.0756249121   -0.7525286500
 H   -0.0620605257    2.0464474812    1.0024239763
 H   -1.5452363638   -1.4135024786    0.3813179959
 H   -1.7469652368    0.0247725024    1.3597948604
 H   -2.5801333582    1.2980801475   -0.6433637127
 H   -2.8544304151    0.1494470717   -2.8688097538
 H   -2.1247711737   -1.3700460998   -2.1640688029
 H   -4.6553024744    0.0638598964   -1.0696628572
 H   -4.3611890151   -2.3545585941   -0.8335291422
 H    0.3283166804   -1.6587728345   -1.2844724928
 H    1.5304826561   -0.3085584123   -1.4839864261
 H    1.9647630013   -0.3364075018    1.0139849050
 H    0.7586221251   -1.6866015150    1.2050716023