12

 O   -0.0242010637   -0.0018812014   -0.0405099250
 C   -0.0417187362    1.1927613636   -0.0303737283
 N   -1.1560626983    2.0459133130   -0.0489264610
 C   -0.6720135784    3.3316898249    0.0894802658
 C    0.6722297284    3.2982274705    0.0879021300
 O    1.1036719087    1.9915501508    0.0146744003
 C    1.1218247650    4.6470953281    0.0181826027
 C   -0.0330556473    5.3811425455   -0.0054483663
 O   -1.1654129437    4.5719167139    0.0176482156
 H   -2.0797330965    1.6897369123    0.1287172937
 H    2.1253494305    5.0387675751    0.0055983853
 H   -0.2354760183    6.4372398537    0.0122790272