19

 C    0.2071142447    1.5497225554    0.0770226289
 C    0.0227875535    0.0429848711   -0.0047729231
 C    0.6366006735   -0.5783175007   -1.2936037090
 N    1.1274356291   -1.9573988643   -1.0993721442
 C    0.2405101389   -2.6171050630   -0.0660746539
 C    1.0416392464   -1.8650546779    1.0216771567
 C    2.1812775066   -1.8934418184   -0.0154991488
 O    0.5852725400   -0.5310829877    1.1858107622
 H    1.2715032520    1.8049203140    0.0800654080
 H   -0.2666388033    2.0403356774   -0.7797044166
 H   -0.2432270585    1.9432846686    0.9926033017
 H   -1.0555353144   -0.1760334632   -0.0009391422
 H   -0.1228864930   -0.5759849689   -2.0844297556
 H    1.4794135663    0.0242503224   -1.6515907346
 H   -0.8322095276   -2.4360299382   -0.1645769540
 H    0.4273400898   -3.6943056811   -0.0556291108
 H    1.1732493366   -2.2840172010    2.0231312837
 H    2.7678658147   -2.8173890323   -0.0123783201
 H    2.8434284747   -1.0244363823   -0.0536941283