17

 C    0.0664798943    1.5209220366   -0.0867408214
 C    0.0173734901   -0.0009642138   -0.0064887527
 O    0.7729056480   -0.5135736801    1.0761324175
 C   -1.4537925908   -0.5090007018    0.0664094331
 O   -2.2330353604   -0.0238098902   -1.0192141605
 C   -1.4977382010   -1.9659557872    0.1638854536
 C   -1.5382423885   -3.1737257727    0.1559006502
 C   -1.5659067948   -4.6129762932    0.1978622204
 O   -1.9539601027   -5.3162302668   -0.7067373097
 H    1.1013705177    1.8571650864   -0.1887111142
 H   -0.5173168821    1.8840462527   -0.9348552737
 H   -0.3533109646    1.9676558720    0.8242747106
 H    0.4707679138   -0.4357333662   -0.9056484350
 H    0.5362160004   -0.0175326481    1.8678904818
 H   -1.9086408011   -0.0769325627    0.9690314683
 H   -2.0683905299   -0.5940234868   -1.7786436910
 H   -1.1926829584   -5.0435824282    1.1489675127