20

 C   -0.0316463410    1.5601222164    0.2758840604
 C   -0.0280273479    0.0543089657   -0.0003045797
 C   -1.4309151823   -0.5595849826    0.0158592461
 C   -1.4195683140   -2.0759318644   -0.2630987484
 C   -2.7467643218   -2.6796556881   -0.2472161895
 C   -3.8532466086   -3.1534858553   -0.2209847103
 C   -5.1896285069   -3.7330814655   -0.2166182645
 O   -5.5201152038   -4.1732188443    1.0968255704
 H    0.9822862945    1.9717068858    0.2586298931
 H   -0.6226954886    2.0983737530   -0.4733545072
 H   -0.4644894159    1.7810161930    1.2577918110
 H    0.4418830710   -0.1393345972   -0.9739762817
 H    0.5988185626   -0.4540598733    0.7445405804
 H   -1.9061310160   -0.3808629314    0.9878098935
 H   -2.0636468786   -0.0646426902   -0.7308882140
 H   -0.9448414057   -2.2638952112   -1.2358617092
 H   -0.7850960460   -2.5778637479    0.4799562769
 H   -5.9113113213   -2.9803023099   -0.5747770357
 H   -5.2230418175   -4.5694255601   -0.9343796051
 H   -6.4055963823   -4.5488731924    1.0570634235