19

 C   -0.0824176070    1.5858178387   -0.0583301243
 C    0.0244330322    0.0613551503    0.0285982797
 C    0.8247921670   -0.5823465092   -1.1506749138
 C    1.5342510460   -1.8266984965   -0.5633765675
 N    1.5968285231   -1.4702685254    0.8423496526
 N    2.2747666897   -2.0360983849    1.8506756614
 C    1.8750004844   -1.3342247727    2.9167057038
 C    0.9337727788   -0.3308699771    2.5855233995
 C    0.7794245176   -0.4601552901    1.2179745247
 H    0.9105884835    2.0466166517   -0.0572889407
 H   -0.6003970235    1.8883570727   -0.9742760550
 H   -0.6418467855    1.9897171146    0.7910164748
 H   -0.9931350699   -0.3548724304    0.0399347627
 H    0.1879168514   -0.8316262480   -2.0020634800
 H    1.5775512982    0.1331358012   -1.4974011224
 H    0.9519888212   -2.7460837224   -0.7003399810
 H    2.5343844071   -1.9922572224   -0.9706387592
 H    2.2831200332   -1.5683465402    3.8896033122
 H    0.4540605126    0.3719977701    3.2468215425