18

 C    0.0179121376    1.4365506059    0.0754586714
 N   -0.0189813012   -0.0085284238    0.0149098132
 C    0.0339199505   -0.8035052701   -1.1341652995
 C    0.0299982801   -2.1326123498   -0.7657962994
 C   -0.0294054683   -2.1647935418    0.6579935504
 C   -0.0475537037   -0.8665343112    1.0640940050
 O   -0.0607359399   -0.6040578399    2.3929776742
 C   -0.2582216912   -1.9253871461    2.9930698501
 C   -0.0010068111   -3.0180333316    1.8974115097
 H    1.0279011937    1.8246558211   -0.0999794078
 H   -0.6563360204    1.8628909447   -0.6725767187
 H   -0.3103706437    1.7572438110    1.0658360497
 H    0.0498882005   -0.3382084083   -2.1063526059
 H    0.0516790071   -2.9664815705   -1.4510516318
 H    0.4178188712   -1.9937514124    3.8474462050
 H   -1.2919807583   -1.9663628211    3.3521971509
 H   -0.7757020602   -3.7909354506    1.9457270311
 H    0.9628692973   -3.5211852053    2.0516427823