20

 C   -0.0032146030    1.4870434761    0.2693094584
 C    0.0009975451    0.0319823658   -0.2146515640
 C   -1.3659198739   -0.6112917980   -0.1157453665
 C   -1.6138439463   -2.1104879251   -0.1243381973
 C   -0.4821695230   -3.0713612372    0.2005782011
 C   -0.0439990697   -2.7158239958    1.6332981990
 O    0.9057079773   -3.1561408609    2.2401966950
 N   -0.9252392435   -1.7650702543    2.0959365605
 C   -1.8800493945   -1.3058048525    1.1320715030
 H    0.9873219964    1.9403335158    0.1675298760
 H   -0.7099373345    2.0942826959   -0.3068799116
 H   -0.2955461645    1.5508519752    1.3227749439
 H    0.3371029343   -0.0075429487   -1.2587363098
 H    0.7373994563   -0.5379265408    0.3606954000
 H   -2.1424742889   -0.0563779514   -0.6401692223
 H   -2.4444880265   -2.4787500942   -0.7139079907
 H   -0.8159523573   -4.1134438565    0.1756966640
 H    0.3852432812   -2.9966735069   -0.4616211538
 H   -0.7207684738   -1.2741242028    2.9522038845
 H   -2.8821842912   -1.1187160539    1.5020195305