20

 C   -0.4358101720    1.7436992787   -0.2508467263
 C   -0.0628449365    0.2825014728    0.0589234708
 C    0.7101652435   -0.3832713836   -1.0345295982
 C    2.0348487222   -0.7491702784   -1.1724792474
 C    3.1767660534   -0.6303600045   -0.2109341517
 C    3.7099594690   -1.9947554462    0.2553813838
 N    2.2023833397   -1.3074217848   -2.4106800627
 N    1.0695324372   -1.3093807679   -3.0476433845
 N    0.1625072951   -0.7514584323   -2.2238226972
 H    0.4603509278    2.3458622497   -0.4253599772
 H   -1.0622984048    1.8150616430   -1.1457709581
 H   -0.9902091929    2.1851364169    0.5825518668
 H    0.5366897145    0.2445882419    0.9734664663
 H   -0.9744427350   -0.2908934309    0.2709101115
 H    3.9887462887   -0.0733938489   -0.6933298705
 H    2.8651466481   -0.0345650487    0.6542386557
 H    2.9389504620   -2.5554296793    0.7935972584
 H    4.0210759221   -2.5938475494   -0.6043152221
 H    4.5696778360   -1.8709330628    0.9211453702
 H   -0.7919604982   -0.6621384152   -2.5342234377