20

 C    0.1258266557    1.7897727194    0.0729557080
 C   -0.2590508235    0.3252240329    0.0815281897
 C   -1.6991140008    0.0199614740   -0.3172642653
 C   -1.9355544784    0.0036838541   -1.8275257958
 O   -1.3503740215   -1.1897416856   -2.3426834889
 N    0.7973597366   -0.5940313173   -0.3590439700
 C    0.3926130595   -0.6085140457    1.0667575652
 C    1.3524689493   -0.1760431365    2.0452759326
 C    2.1276317462    0.1812669050    2.8927361949
 H    1.1767610708    1.9093953346    0.3399580803
 H   -0.0232145366    2.2264299655   -0.9209650910
 H   -0.4820335901    2.3571484860    0.7863514886
 H   -2.0031518239   -0.9608315026    0.0667350513
 H   -2.3667015954    0.7608115563    0.1381155522
 H   -3.0170291688    0.0228609887   -2.0315463175
 H   -1.4946660821    0.8946231709   -2.2974520161
 H   -1.2908246868   -1.1167367426   -3.2993374049
 H    0.3783552867   -1.3800537779   -0.8504728109
 H   -0.2264408385   -1.4413656126    1.3961137113
 H    2.8221192617    0.4946282632    3.6320432364