16

 C   -0.0886287227   -1.1367905465   -0.0759723813
 C   -0.0253596549    0.0645145389   -0.0477263317
 C   -0.0366332158    1.4858274375    0.0215525646
 C   -1.3750456848    2.3173732827    0.3122731805
 C   -0.5277231370    3.4830772515   -0.2064739378
 C    0.1800058611    4.1266132674    0.7423843572
 C    1.5346873479    3.4414527825    0.8567803808
 N    1.3510616628    2.1760492162    0.0862684006
 C    0.4151754311    2.5131761328   -0.9564388010
 H   -0.1223424729   -2.1974930640   -0.1100761805
 H   -2.1477515020    1.9171986079   -0.3520076388
 H   -1.7486068033    2.3881148267    1.3361615365
 H   -0.2829394386    4.5762309958    1.6159857329
 H    2.4108986741    3.9451894773    0.4278623368
 H    1.7484509792    3.2467118717    1.9136277140
 H    0.6309726558    2.4302188517   -2.0153007928