18

 O   -0.6929913080    0.7242585132    0.5832567628
 C    0.1621026668    0.9318261532   -0.2384574674
 C    1.2930603570    1.9315018048   -0.0770346915
 C    1.2605909229    2.9661952686   -1.1708979804
 C    1.8928868707    2.8066513880   -2.5322226125
 C    2.3466306287    3.9307790472   -1.6366070631
 C    1.3125138091    5.0925320429   -1.5782028877
 N    0.1843340303    4.7796487787   -2.4928637332
 C    0.2534096850    4.1647979851   -1.1439380568
 H    0.1647264162    0.3969128554   -1.2157956379
 H    1.2143389012    2.3834736776    0.9178006024
 H    2.2418844688    1.3801199490   -0.1309274834
 H    2.5986798347    1.9842556719   -2.6047864641
 H    1.3301147312    3.0154660106   -3.4325974478
 H    3.3611715169    4.0184952683   -1.2695589999
 H    1.5244011262    6.1084208496   -1.2724757938
 H   -0.4741264237    5.5557906193   -2.4330593272
 H   -0.5435656543    4.2878562367   -0.4217405084