18

 C   -0.0219134667    1.4689925548    0.0434298652
 C    0.0301739279   -0.0303756719   -0.0371610002
 C    1.1180911373   -0.8041834571   -0.8166247216
 C    0.8076548974   -1.9031785729    0.2096738418
 N    0.3846968504   -0.8391811959    1.2459575746
 C   -1.0245379121   -1.4077880176    1.2898547842
 C   -1.2659905401   -0.8581330814   -0.0958405718
 C   -0.6843272232   -2.2618319445    0.0998232313
 O   -1.3025756279   -3.3586316792   -0.4540784671
 H    0.9551277865    1.8762012038    0.3208990453
 H   -0.3136974590    1.8991339536   -0.9218061280
 H   -0.7527982970    1.7920900857    0.7921602785
 H    0.9566538745   -1.0172211629   -1.8762241249
 H    2.1074715614   -0.3656354068   -0.6580495427
 H    1.5303287614   -2.6613779000    0.5156020968
 H   -1.6445135892   -1.5223394876    2.1700778317
 H   -2.1947219651   -0.6967555900   -0.6288276355
 H   -1.1520388965   -4.1155381601    0.1230732226