17

 O   -0.2596876938    1.5128916852   -0.2015014219
 C    0.0605124141    0.1383243319    0.0145411947
 C   -1.2050196644   -0.7778073645    0.1798641767
 C   -1.4063926433   -1.5870622043   -1.1451963943
 C   -0.0616867229   -1.4132138384   -1.7774962025
 C    0.7558299505   -0.5030953863   -1.1501235874
 C    1.9383171498   -0.4853575792   -1.9226657460
 N    1.8534950466   -1.3310356839   -2.9486187807
 N    0.6163368116   -1.8868684198   -2.8426203387
 H   -0.5132821677    1.6054269467   -1.1262361930
 H    0.6472639343    0.1426280486    0.9380465998
 H   -1.0349986329   -1.4783397553    1.0027924001
 H   -2.0726037714   -0.1677542908    0.4408490782
 H   -1.6683439680   -2.6314871460   -0.9470875368
 H   -2.2087385159   -1.1744178229   -1.7692795929
 H    2.8427947730    0.0896205099   -1.7880296947
 H    0.3394931402   -2.5741228210   -3.5227174207