17

 C    0.0191668764    1.5229939521    0.0978594765
 C   -0.0611445337   -0.0036566616   -0.0827854580
 C    0.7238154286   -0.5086540215   -1.2552305389
 N    0.1351641142   -0.7710595170   -2.4235110082
 N    1.1265053240   -1.1817159668   -3.2265375179
 C    2.3442461749   -1.1883603029   -2.6141734725
 C    2.1225740329   -0.7544654936   -1.3224981130
 N    3.0365384572   -0.6625038503   -0.2550939899
 H    1.0518820225    1.8613589309    0.2414243013
 H   -0.3729343468    2.0358325614   -0.7853269035
 H   -0.5599945436    1.8467774240    0.9686498195
 H    0.2941115673   -0.4990968661    0.8296550468
 H   -1.1062186596   -0.2981631830   -0.2183144380
 H    0.9116279051   -1.4575959900   -4.1682475233
 H    3.2414645171   -1.4996103894   -3.1252256925
 H    3.9986047211   -0.6503066455   -0.5686588084
 H    2.8760594625    0.1557190491    0.3190604600