19

 C   -0.2119020167    1.4678696073   -0.0377425609
 C    0.0410929027   -0.0348987328   -0.1057163727
 C    1.3336413646   -0.4490238944   -0.8714102495
 C    2.0747140156   -0.5880336926    0.4871393778
 C    0.6985432614   -0.6110179377    1.1857993940
 O    0.5073072905    0.0350355905    2.4613283145
 C   -0.0358444003   -1.1415251533    3.0976560834
 C    0.1562063817   -1.9079051013    1.7821594691
 O   -0.0326058195   -3.0192214033    1.3889953681
 H    0.6922823720    2.0173264843    0.2435503422
 H   -0.5430696403    1.8396126989   -1.0129417940
 H   -0.9822451741    1.7040483037    0.7016722563
 H   -0.8705713168   -0.5567726054   -0.4124564509
 H    1.2239454914   -1.4081615887   -1.3814737684
 H    1.7329350124    0.2841388124   -1.5757556913
 H    2.7228433854   -1.4541760103    0.6377531707
 H    2.6190080000    0.3181456332    0.7648153140
 H    0.5704253636   -1.4907279907    3.9423762796
 H   -1.0764235636   -1.0153732896    3.4215195180