21

 C   -0.1111477163    1.3936914270   -0.2133109514
 C    0.1393537358   -0.0925550386   -0.0895068728
 C    1.5463106315   -0.6377248374   -0.0477301449
 C    0.6895143474   -0.6799942059    1.1866234829
 C    0.9576987450    0.0319714010    2.5198661262
 C    0.5575114658   -1.2759064287    3.2626083554
 C    0.2150398402   -1.9706712554    1.9028021305
 C   -1.2479329277   -2.2580946609    1.7037976081
 O   -1.7005880950   -3.2559428410    1.2025905783
 H    0.6376768407    1.9695443511    0.3402033018
 H   -0.0665241220    1.7137025777   -1.2598928040
 H   -1.0973764221    1.6689203972    0.1771551208
 H   -0.5825083736   -0.7164789871   -0.6126560282
 H    1.7595163182   -1.5712626531   -0.5590590225
 H    2.3662180605    0.0755865485   -0.0571251911
 H    1.9891738466    0.3586085219    2.6779953917
 H    0.2971933160    0.8801800832    2.7239617976
 H    1.3736135454   -1.7639639930    3.7971950309
 H   -0.2901971790   -1.1782429941    3.9462678742
 H    0.7899945298   -2.8694962455    1.6689975106
 H   -1.9208869474   -1.4370198967    2.0517237361