16

 O   -0.0134177475    0.0212989129   -0.0442698969
 C    0.0074706529    1.2201150840   -0.0239070158
 N   -0.9773339049    2.1905437385   -0.0224772682
 C   -0.0748383560    3.3316307843    0.0304983167
 C   -0.1680294544    4.6021035555   -0.7442448928
 C   -0.2548610587    4.6117874242    0.7778269362
 C    1.0747365644    2.3314137457    0.0484278832
 C    2.3787871308    2.3384968465    0.7061921499
 O    2.2451159471    2.4145531993   -0.7227993219
 H   -1.9775128860    2.1206615983    0.0831348316
 H    0.7415309312    4.9623154925   -1.2137772835
 H   -1.0768484760    4.7995133537   -1.3026393214
 H   -1.2247412428    4.8099430942    1.2227760718
 H    0.5826866113    5.0030199584    1.3465004957
 H    2.7313725385    3.2475800253    1.1905555879
 H    2.7871362600    1.4041905167    1.0863228973