20

 C    0.1233039609    1.4947941343    0.1779525469
 C   -0.0900054285   -0.0145083655   -0.0096814253
 C    0.5598401901   -0.5258104539   -1.2642612764
 C    2.0377981622   -0.9418970335   -1.3720628173
 C    0.9607071317   -1.9188128680   -1.7407773253
 C    0.7282454293   -3.2655965522   -1.1289787037
 N    0.4245584364   -1.6006966282   -3.0781048589
 C    0.1019646099   -0.2823182119   -2.6951701887
 O   -0.3612651235    0.6371186505   -3.3113412553
 H    1.1877137482    1.7310175424    0.2780337340
 H   -0.2623199477    2.0450243668   -0.6848887563
 H   -0.3901599084    1.8543888161    1.0746448634
 H    0.3061548399   -0.5608432234    0.8556714856
 H   -1.1650362657   -0.2297080187   -0.0461609477
 H    2.6801333261   -0.5131886910   -2.1365464240
 H    2.5239781369   -1.0944091520   -0.4110173947
 H    0.9843391302   -3.2549745409   -0.0653633448
 H   -0.3191828594   -3.5633573095   -1.2347838016
 H    1.3485858996   -4.0312612690   -1.6091665630
 H    0.9165775919   -1.8092562726   -3.9414961770