23

 C   -1.0691295658    1.2811430074   -0.3646446895
 C   -0.3222793134   -0.0446166116   -0.1553483416
 C    0.5794888925   -0.4087113495   -1.3041146491
 C    0.0850225246   -1.1460631896   -2.5498888949
 C    0.2389937974   -0.7528407895   -4.0044289173
 C    1.1922721439   -1.7304630633   -1.7286247249
 O    2.4492242899   -1.1300812189   -2.0602999957
 C    2.0004120801    0.1403020258   -1.4997668187
 C    2.3233643530    1.3578702238   -2.3443070267
 H   -0.3718244634    2.1176770977   -0.4800661836
 H   -1.6910574855    1.2421525776   -1.2648337346
 H   -1.7192415682    1.5061709940    0.4865931312
 H    0.2692236135    0.0098908173    0.7688091375
 H   -1.0514386305   -0.8499029286   -0.0015556966
 H   -0.8687871221   -1.6213811323   -2.3197746014
 H    1.2903323166   -0.5993789829   -4.2537473828
 H   -0.1411243150   -1.5523774405   -4.6497252147
 H   -0.3164760657    0.1596106804   -4.2465044224
 H    1.2111817548   -2.7135666416   -1.2697287654
 H    2.4690903652    0.2547708178   -0.5102846175
 H    3.4036365219    1.4149345449   -2.5156480832
 H    1.8203046675    1.3434164660   -3.3117001122
 H    2.0218950387    2.2662504255   -1.8113207959