24

 C    1.2581081070   -0.1551364675   -0.5418826899
 C    1.2029785907   -1.0536865674    0.6911946374
 O    1.9920413279   -0.5321158060    1.7585468082
 C   -0.2103930340   -1.1935925278    1.2655084695
 N   -1.0817731557   -1.8499334782    0.2973399086
 C   -2.4157844927   -2.3132228009    0.6900482520
 C   -2.9517443822   -2.1627096449    2.0968554213
 C   -2.2596350444   -1.1705104182   -0.2617114490
 C   -2.6455304716    0.2534137334    0.0739323193
 H    2.2823142126   -0.0834074817   -0.9270968633
 H    0.6292266525   -0.5599801062   -1.3395774800
 H    0.9163761175    0.8561612587   -0.2952616091
 H    1.5487824304   -2.0616000283    0.4128113330
 H    2.8812414655   -0.3834109854    1.4232201814
 H   -0.1413069959   -1.8095897641    2.1686725705
 H   -0.5501906935   -0.1971188935    1.5823328605
 H   -2.6624631759   -3.2820916713    0.2529771467
 H   -2.7422684151   -1.1857825972    2.5366987207
 H   -4.0372055455   -2.3098886153    2.1036554513
 H   -2.5151736626   -2.9213789128    2.7562811798
 H   -2.3965499432   -1.3962800729   -1.3200428847
 H   -2.6390777860    0.4690012677    1.1438137856
 H   -1.9696532550    0.9652805295   -0.4135157634
 H   -3.6564257908    0.4543720902   -0.2966452967