17

 C    0.1900276438    1.5428611519    0.1572448434
 C   -0.0235392969    0.0715763590    0.0887466767
 C   -1.1370145871   -0.7078067769    0.0061479690
 C   -2.5859423030   -0.3611500151   -0.0673462254
 O   -3.2402476524   -1.0240331645   -1.1568371549
 C   -0.6042633399   -2.0411046433   -0.0066754106
 N   -1.3656733115   -3.1905116383   -0.0342474018
 N    0.7074697059   -2.0541366813    0.0552224086
 O    1.0776155321   -0.6951674734    0.1310961783
 H    0.9303983063    1.8600781879   -0.5835787822
 H   -0.7440504128    2.0771459009   -0.0290475019
 H    0.5629794725    1.8402774876    1.1432825094
 H   -3.1197859715   -0.7101767883    0.8235496197
 H   -2.7255447462    0.7277689954   -0.1240672822
 H   -2.7786337601   -0.7688054934   -1.9634303485
 H   -2.2221606917   -3.0796723017   -0.5610170487
 H   -0.8472526074   -4.0240480667   -0.2731547088