20

 C    0.0418844910    1.6776896597   -0.0201206644
 C    0.3093051306    0.1755547651    0.0475335414
 N    0.9922048298   -0.2722667036   -1.1617163117
 C    1.7094483549   -1.3037906524   -1.1233450965
 C    2.4919647366   -1.8818994594   -2.2955930926
 C    3.3452871479   -2.9686517384   -1.6720340672
 C    4.2741882271   -2.5573878739   -0.5426173532
 C    2.8914308682   -3.0582492415   -0.2429601713
 O    1.9037725339   -2.0783837588    0.0018608211
 H    0.9813148762    2.2364091818   -0.0778800318
 H   -0.5478193899    1.9235925835   -0.9080673081
 H   -0.5041190666    2.0160332734    0.8665277777
 H    0.8819897158   -0.0729875200    0.9514052412
 H   -0.6458720165   -0.3623577849    0.1310380080
 H    1.7945061928   -2.3001371596   -3.0289682915
 H    3.0569549652   -1.0926921943   -2.7977508728
 H    3.5780602514   -3.8563649104   -2.2463351786
 H    5.1061915062   -3.2160556024   -0.3187707043
 H    4.4729022357   -1.5014309713   -0.3868015977
 H    2.7054257496   -3.9773479925    0.2977859123