11

 C   -0.0330880799    1.4136031574    0.0089450639
 O    0.0041209520   -0.0200731103    0.0028840437
 C   -1.1783398360   -0.6256919024    0.0098080054
 N   -2.3413081721   -0.0281105602    0.0215188437
 O   -3.2637630416   -1.0528476319    0.0246952994
 N   -2.6552381273   -2.2740779695    0.0147772264
 C   -1.3762198933   -2.0393969368    0.0055323931
 H    1.0076341926    1.7361036604    0.0016736862
 H   -0.5566969963    1.7865413917   -0.8761786530
 H   -0.5420141182    1.7793838898    0.9055491256
 H   -0.6465364500   -2.8329175983   -0.0035699469