19

 C   -0.5234718440    0.9586410992    0.0903642655
 O    0.5514562853    0.0780431296   -0.1947053870
 C    1.0409265513   -0.5672992860    0.9297078472
 C    0.2492474067   -1.6099889824    1.6928033092
 O   -0.6562971613   -2.2923064031    0.8290878814
 C    0.4440950566   -2.7854522132    0.0159066643
 C    1.4585279968   -2.0095752906    0.8650456628
 O    2.6880808674   -2.4787049799    1.2538520258
 C    3.7276459650   -2.1750809311    0.3314891497
 H   -0.2171359350    1.7627188866    0.7756415435
 H   -0.8304137536    1.4025420684   -0.8593863354
 H   -1.3702254845    0.4171210263    0.5296628060
 H    1.6807487225    0.0324416794    1.5832943936
 H    0.0381837951   -1.5954995102    2.7560205090
 H    0.5497634923   -3.8695287658    0.1284541829
 H    0.3385036600   -2.5058872352   -1.0358040214
 H    3.5654387366   -2.6664422761   -0.6375096624
 H    3.8103277141   -1.0928326082    0.1666129451
 H    4.6560490285   -2.5481017375    0.7684817203