17

 O   -0.0795183477    1.3992397361   -0.0191866283
 C    0.0255824529   -0.0100318295   -0.1196655208
 C    0.7829318040   -0.4112264415   -1.3226946232
 N    1.4024850366   -0.6872850549   -2.2580315451
 C    0.6529242262   -0.6094524158    1.1452089498
 C   -0.1007364176   -0.4533769016    2.4915350673
 C   -0.0375117753   -1.9780362008    2.5817441990
 C   -0.6808525948   -2.5987450874    1.4138654028
 N    0.7071908194   -2.1108014840    1.2550737979
 H    0.8109914152    1.7691794682    0.0009315605
 H   -1.0029759477   -0.3635262585   -0.2377754433
 H    1.6822593409   -0.2434899798    1.2150154407
 H    0.4875833394    0.0675287705    3.2473964781
 H   -1.1015469521   -0.0133419345    2.4605532690
 H    0.2693163450   -2.5447781528    3.4538710188
 H   -0.7301650895   -3.6820056611    1.3755394430
 H   -1.5084227449   -2.0976646726    0.9174269639