22

 C    0.8444539844   -0.6988906626   -1.1888255492
 C    0.0905610523   -0.0892857615   -0.0025919948
 C   -1.4113029371   -0.3836150686    0.0010264889
 C   -2.2510046364    0.5408979949    0.9254913706
 C   -2.8361054650    1.0951692762   -0.3857533220
 O   -2.0581526561    0.1741352170   -1.1831205214
 C   -1.7084966888   -1.8672945541    0.1170959102
 C   -3.0197601811   -2.4182068662   -0.2965383220
 N   -1.8113103505   -2.6888996911   -1.0989488858
 H    1.9001544914   -0.4132070033   -1.1619924979
 H    0.7885951930   -1.7909278567   -1.1867869166
 H    0.4216373357   -0.3394989320   -2.1317038824
 H    0.5099576611   -0.4522021547    0.9455230741
 H    0.2232149503    0.9993357262   -0.0047725046
 H   -2.9621725891    0.0180447293    1.5661568966
 H   -1.6735097648    1.2484985890    1.5228704622
 H   -3.9126854532    0.9506372137   -0.5318768381
 H   -2.5848100552    2.1372536297   -0.6155201142
 H   -1.1784817331   -2.3566406993    0.9334027842
 H   -3.4331140525   -3.2801602279    0.2193499477
 H   -3.7522179797   -1.7296718348   -0.7075095648
 H   -1.8270402155   -2.0560104431   -1.8975959906