20

 O    0.1214178040    1.3623528408    0.0682028112
 C    0.0929641920   -0.0410361386    0.0370377414
 C    0.2652528261   -0.7687991976    1.4408351747
 C   -1.1673513379   -1.2785963494    1.3028017681
 N   -2.0194718523   -0.0682373503    1.1530591505
 C   -1.3308700148   -0.6429923940   -0.0303150091
 C    1.0315227297   -0.5397702909   -1.0312206950
 C    1.2023464339    0.2251910488   -2.3193546259
 C    2.3254562872    0.1800260830   -1.3113948179
 H   -0.6266219355    1.6155836434    0.6276296211
 H    1.0167437421   -1.5606816785    1.4032624632
 H    0.4583320169   -0.1100576676    2.2909586773
 H   -1.5914693073   -2.2006051639    1.6799301933
 H   -2.9920107638   -0.3695029918    1.1197117401
 H   -1.8883266520   -0.9500889324   -0.9074354546
 H    1.0525082229   -1.6235983923   -1.1053246678
 H    1.3077366879   -0.3390809846   -3.2394755171
 H    0.6631147949    1.1600867429   -2.4109711905
 H    2.5178506442    1.0854755294   -0.7487993557
 H    3.2028169917   -0.4156581865   -1.5378784573