11

 N   -0.0301607011   -1.1265252146   -0.0036084921
 C    0.0059769903    0.0269258379    0.0021879722
 C    0.0016737649    1.4903837029    0.0100312869
 O    1.3358457386    1.9525872280   -0.0001434012
 C    1.4000947004    3.3631132584    0.0066834165
 C    2.8044841090    3.7746318026   -0.0044746882
 N    3.9001456648    4.1369063820   -0.0129638496
 H   -0.5544895022    1.8484828887   -0.8710610281
 H   -0.5376637231    1.8390143149    0.9052676773
 H    0.8972986196    3.7926421153   -0.8745525081
 H    0.9141558089    3.7832790039    0.9017811643