17

 O   -0.1108144671    1.4433387670    0.0055084879
 C    0.0182325990    0.0379003876    0.1082841387
 C   -1.3869921063   -0.5393249141   -0.0741605539
 N   -1.4070392105   -1.9858135117    0.0015597882
 C   -1.4924597553   -2.8508813286   -1.0390263065
 N   -1.4308443013   -4.1109300915   -0.6493623944
 C   -1.2947097581   -4.0509205507    0.7064661920
 O   -1.2034499845   -5.1712766051    1.4563155103
 C   -1.2728348434   -2.7539031827    1.1527075307
 H    0.7560337567    1.8394967803    0.1305943157
 H    0.6820102030   -0.3758193889   -0.6662462659
 H    0.4185170816   -0.2685984199    1.0863266062
 H   -2.0526724553   -0.1202247026    0.6867894102
 H   -1.7747231048   -0.2387603171   -1.0511640093
 H   -1.6055681290   -2.5100647722   -2.0574769840
 H   -1.2608907021   -5.9100826675    0.8382905684
 H   -1.1954242326   -2.3192681622    2.1334551656