16

 C    0.0203260807    1.6448040311   -0.1572874378
 C   -0.0175907562    0.1081668452   -0.0390393944
 C   -1.4531308744   -0.4433726650    0.0774441128
 C   -2.0753299765   -0.1741001785    1.4402407376
 O   -1.4607938204    0.3100723329    2.3660439697
 C   -3.4678243134   -0.5631754672    1.5633594016
 C   -4.6228042129   -0.8930085669    1.6394190282
 C    0.6604119861   -0.5161731405   -1.1789537018
 N    1.1857655839   -1.0047280513   -2.0851534756
 H    1.0505695649    2.0009861031   -0.2281497661
 H   -0.5178659150    1.9787496891   -1.0492165445
 H   -0.4406463861    2.0883960906    0.7268293295
 H    0.5230902710   -0.1812609537    0.8690949272
 H   -2.1021093794   -0.0262703802   -0.7017467229
 H   -1.4702900357   -1.5297102662   -0.0768193737
 H   -5.6435156766   -1.1788475725    1.7254731103