17

 C    0.1591907591    1.6310111382    0.0147755312
 C    0.1069416149    0.1030557672   -0.0124708033
 C    0.7990299659   -0.6003950803   -1.1633534736
 C    2.2837679391   -0.6182872020   -1.1717888793
 N    1.5514547348   -1.7982751356   -0.6906568592
 C    1.4449789138   -1.8342874075    0.7715157259
 C    0.7502808295   -0.5432362112    1.2274324731
 O    0.7075621129   -0.1096304618    2.3484140897
 H    1.1881656269    1.9910881386   -0.0782937829
 H   -0.4257666763    2.0617889711   -0.8026156714
 H   -0.2419153179    1.9962788677    0.9641191841
 H   -0.9474197767   -0.2134899054    0.0068372360
 H    0.2581219727   -0.7304557980   -2.0959563802
 H    2.8220267177   -0.7633943364   -2.1034519094
 H    2.8106271587   -0.0051483382   -0.4407206197
 H    0.8286388149   -2.6917739322    1.0710145625
 H    2.4204330800   -1.9473902943    1.2535687166