20

 C   -0.1232904059    1.5307486679   -0.0664738920
 C    0.0415446535    0.0038830451   -0.0174544847
 C    0.7978749832   -0.4896001333   -1.2601988174
 C    0.7378381785   -0.4751332702    1.2854106801
 C    0.0766501173    0.0580807764    2.5675887002
 O    0.5585820676   -0.6002638691    3.7296735451
 C    0.7123153977   -1.9934654226    1.3535127331
 O    1.6720158828   -2.7113182597    1.2468385751
 H    0.8476611782    2.0332949162    0.0157677351
 H   -0.5696891029    1.8308497501   -1.0199282626
 H   -0.7678672225    1.9093347481    0.7313296685
 H   -0.9641749043   -0.4423474991   -0.0301736138
 H    1.7982148516   -0.0441065415   -1.3076397953
 H    0.9226894340   -1.5758960290   -1.2640215365
 H    0.2632682331   -0.2065727272   -2.1723843612
 H    1.7931165870   -0.1706569012    1.2616756197
 H    0.2058367098    1.1457360158    2.6415320184
 H   -1.0011850510   -0.1419635217    2.5445598271
 H    1.5118638876   -0.4703398115    3.7751738713
 H   -0.3101554652   -2.4170099537    1.4983106498