23

 O   -0.2196064416    1.5013163814    0.2131522225
 C    0.0167860913    0.1058143028    0.0255439189
 C    0.8986972376   -0.4538574044    1.1500985140
 C    1.4500944623   -1.8736568558    0.9200421701
 C    0.4212937797   -2.9547386780    0.5553944376
 C   -0.2722476388   -2.7536333613   -0.8247579195
 C   -1.4542935752   -2.0534091460   -0.0898956300
 C   -0.9767628073   -2.7641506917    1.2117742478
 C   -1.3814612587   -0.5218583946   -0.0598261401
 H    0.6337579742    1.9461120167    0.2226760273
 H    0.5380494461   -0.0491572685   -0.9338623201
 H    1.7550482366    0.2226172581    1.2786943371
 H    0.3365511452   -0.4031975240    2.0900849551
 H    2.2123810750   -1.8424052251    0.1292193978
 H    1.9764136207   -2.1787419267    1.8330678698
 H    0.8808923305   -3.9373292463    0.6980660482
 H    0.2671883642   -2.1905093251   -1.5919830193
 H   -0.5808074345   -3.7101323224   -1.2559906797
 H   -2.4533528606   -2.3434169027   -0.4274445028
 H   -1.4865073103   -3.7218625768    1.3492065851
 H   -1.0360189577   -2.2063940505    2.1508466332
 H   -1.9593140616   -0.1479359778    0.7953980934
 H   -1.8636608769   -0.1149897712   -0.9562229164