13

 O   -0.8523654893    1.1689412998    0.2430638759
 C    0.2743049039    0.8457398208   -0.0363665327
 C    1.4352669276    1.7934199161   -0.0579914492
 C    1.2650446217    3.1097483143    0.2478088479
 C    2.3938689998    4.0193860415    0.2243790016
 O    2.4109949142    5.2074712491    0.4680400374
 N    3.5859296670    3.3409021272   -0.1413954845
 C    3.6543822299    2.0190073480   -0.4291961158
 N    2.6378576782    1.2167650331   -0.4044775401
 H    0.5526553263   -0.1936585544   -0.3050161909
 H    0.2889251817    3.4958721738    0.5119599385
 H    4.4169123401    3.9177393023   -0.1780497580
 H    4.6380111688    1.6385640485   -0.6936597501