18

 O   -0.0969569897   -0.0923435775    0.1639981949
 C   -0.0703583129    1.1182496299    0.0859935859
 N   -1.2093124423    1.8548858415   -0.0967372130
 C   -1.3696055572    3.2990189554    0.0243482676
 C   -0.0670386334    4.0194603306   -0.3117442699
 C    1.0881835954    3.3986242040    0.4725151467
 C    1.2584541667    1.9122820641    0.0849733154
 C    2.2693552442    1.2519778426    0.9008134937
 C    3.1252007091    0.7701389508    1.5919466010
 H   -2.0444946624    1.2862054021   -0.0757060088
 H   -2.1712202779    3.6170379283   -0.6509902442
 H   -1.6836050962    3.5673821346    1.0450163943
 H    0.1299335432    3.9436827200   -1.3882879349
 H   -0.1727814274    5.0824799408   -0.0747692782
 H    2.0269120719    3.9279989636    0.2864796489
 H    0.8927195774    3.4691146685    1.5491487203
 H    1.5875168394    1.8765569355   -0.9650207721
 H    3.8708217623    0.3146289851    2.1950934023