23

 C   -0.7356035615    1.3118271890   -0.1177947856
 C   -0.1707238952   -0.1033418436   -0.0237531375
 C    1.0278700372   -0.5462310584   -0.9300769696
 C    1.8756111180    0.5591841654   -1.5379683651
 O    2.9808907994   -0.0627212036   -2.1805427072
 C    1.6661054021   -1.2491113648    0.3020142625
 C    0.6351594029   -0.5587734016    1.2401036445
 C    1.2138780056    0.5380481225    2.1188569591
 O    2.0251025258   -0.0932560885    3.1010395900
 H    0.0276451559    2.0829823469    0.0247832543
 H   -1.1967956137    1.4828510637   -1.0967900504
 H   -1.5109726315    1.4728153685    0.6393474054
 H   -0.9959703127   -0.8064740229   -0.1771523951
 H    0.7455497586   -1.2210023713   -1.7439741809
 H    1.2763002323    1.1424870541   -2.2561229054
 H    2.2206993238    1.2583250439   -0.7593246499
 H    3.5474335314    0.6270522194   -2.5380441947
 H    1.5679208039   -2.3364789493    0.2779614817
 H    2.7144943202   -1.0083583247    0.4931212739
 H    0.0868939612   -1.2420381611    1.8958513668
 H    1.8085597648    1.2451388635    1.5184055799
 H    0.3997245303    1.1145112447    2.5879076344
 H    2.4293615611    0.5913328282    3.6418512792