19

 C    0.0096129692    1.6187098011    0.0198549937
 C    0.1033133139    0.1053342530    0.0455220494
 O   -1.2042298208   -0.3730682737    0.3849537788
 C    0.7399227396   -0.6798223468   -1.0960652257
 C    2.2353658051   -0.8201790477   -0.7769715682
 C    2.5217933234   -0.1201826083    0.5580238130
 C    1.1299808837   -0.6147893859    0.9793438984
 O    0.8055815580   -0.7483529082    2.3054323153
 C    1.2381800464   -1.7613082668   -0.1575501195
 H    0.9583747382    2.0713113818   -0.2743196478
 H   -0.7592515105    1.9323007043   -0.6922142488
 H   -0.2694455791    2.0001941276    1.0072935524
 H   -1.2469214537   -1.2989104554    0.1162499567
 H    0.3653809999   -0.7905809140   -2.1067749696
 H    2.9410399423   -1.0452644712   -1.5655113295
 H    3.3094924086   -0.6459343334    1.1047162567
 H    2.7118972666    0.9581149955    0.5840846001
 H   -0.1635285106   -0.7501963148    2.3364531313
 H    1.1657394900   -2.8391822371   -0.1723249167