17

 O    0.0014336378    0.0416599099    0.0337030659
 C   -0.0141758797    1.2398252269    0.0599386806
 C   -1.1197501516    2.2942629352   -0.0263330932
 C   -1.0928230784    3.2231033041    1.2596305190
 C   -0.0010242707    2.7918983105    2.2686928471
 C    1.0473991202    3.2517044841    1.2267940431
 C   -0.0455969900    4.1560125251    0.5517298272
 C   -0.0526295050    3.2446730526   -0.7003783477
 C    1.0596706373    2.3233854011   -0.0597680202
 H   -2.0926742158    2.0365072935   -0.4417063900
 H   -2.0678052835    3.5536467605    1.6149361718
 H    0.0031711613    3.4669918821    3.1302354975
 H    0.0182298452    1.7560676990    2.6213625028
 H    2.0236429827    3.6083224147    1.5521601179
 H   -0.0596663440    5.2434048562    0.5819095311
 H   -0.0725436896    3.5314622717   -1.7487450180
 H    2.0259321239    2.0915368227   -0.5048963650