21

 C    0.2791776979    1.5377188850    0.2406603348
 C   -0.1276182693    0.0995423893   -0.1103836199
 C    0.6492212115   -0.4771782153   -1.2899334421
 C    0.4423864828    0.2364121923   -2.6152677558
 C    1.9857312645   -1.0806324427   -1.0446012891
 O    2.4642309449   -1.0566685946    0.2658289359
 C    0.8204046115   -2.0136766568   -1.4155328231
 C    0.2751456185   -2.9686156406   -0.4298299618
 O   -0.1983378028   -4.0407431759   -0.7323286218
 H    1.3450327281    1.5881717288    0.4821968681
 H    0.0803721277    2.2366970134   -0.5771701246
 H   -0.2808949064    1.8876532042    1.1131066351
 H    0.0231659246   -0.5215347296    0.7739376908
 H   -1.1988195331    0.0608947354   -0.3452342377
 H    0.7541589941    1.2837931022   -2.5552330401
 H    1.0192179365   -0.2344411164   -3.4167035377
 H   -0.6134781300    0.2137106742   -2.9066530587
 H    2.7501206366   -0.9571091811   -1.8123207265
 H    3.0496163966   -1.8111422639    0.3916465226
 H    0.8135510965   -2.4080192849   -2.4269752133
 H    0.3389411092   -2.6590727832    0.6334077451