19

 C    0.3608790393    1.6329669281   -0.4886154780
 C    0.2194851152    0.2042844909   -0.2507221854
 C    0.1094936878   -0.9786879847   -0.0493319962
 C   -0.0188598294   -2.4054014101    0.1826768214
 O    0.0140787609   -2.7924638200    1.5891699236
 C   -1.2014004478   -3.5612975011    1.4601109426
 C   -2.4562547682   -2.7764488254    1.9014815531
 C   -2.6230800138   -2.2500485197    0.4390548599
 C   -1.3984609280   -3.0912420227   -0.0069251712
 H    1.3811501585    1.8883680585   -0.7949586536
 H   -0.3188480715    1.9721941712   -1.2780560406
 H    0.1305669583    2.2071414809    0.4154655498
 H    0.7746050646   -2.9393636274   -0.3591525150
 H   -1.0716009169   -4.5955913895    1.7896674637
 H   -3.2791325367   -3.4177876508    2.2295293262
 H   -2.2569932071   -2.0285169931    2.6716267428
 H   -3.5557422316   -2.5643911961   -0.0340348610
 H   -2.5081267356   -1.1729061966    0.2998451876
 H   -1.5029823179   -3.7456718223   -0.8709388697