18

 C    0.0252983225    1.4884815942   -0.1854805325
 C    1.2846055319    0.7169482469   -0.0279573233
 C    1.8773659726    0.4991881456    1.3585147688
 C    1.1428983602    1.1608942440    2.5378835669
 C    0.8950957793   -0.1455077878    3.2484215100
 C   -0.2527806295    0.5142825692    2.5209667141
 C   -0.1860007270   -0.4789025490    1.3487102742
 C    1.2341363287   -0.8336462079    1.8844732837
 N   -0.0371508115    0.0257797310   -0.0362111844
 H   -0.3032622319    2.1108535399    0.6408549738
 H   -0.2637371493    1.8503086791   -1.1691900990
 H    1.9190801279    0.5406733418   -0.8941988133
 H    2.9645553039    0.5597592354    1.4143097263
 H    1.3013487494    2.1428308663    2.9648862273
 H    1.0105847343   -0.4338928132    4.2814616212
 H   -1.1158739706    1.0147182944    2.9401096630
 H   -0.9305221299   -1.2750129330    1.3924254660
 H    1.6903665190   -1.8070446669    1.7222094273