21

 C    0.0437103489    1.5485478711    0.0899043860
 C   -0.0044000113    0.0290937096    0.0387849696
 C    0.5992753701   -0.5438946685   -1.2527553484
 C    0.8455942370   -2.0468116458   -1.1628489113
 C    0.5619602753   -2.8618495654   -2.4025052792
 O    2.0624830771   -2.4033020825   -0.4778782497
 C    0.8215543499   -2.6704130041    0.1723364691
 C    0.5124856984   -1.8335251239    1.3937664644
 O    0.6974900460   -0.4526698244    1.1783038795
 H    1.0819455116    1.8934026804    0.0642122493
 H   -0.4875265556    1.9809332569   -0.7635638256
 H   -0.4168935565    1.9153779528    1.0108538899
 H   -1.0560399136   -0.3045210927    0.1071718720
 H   -0.0722400434   -0.3249369568   -2.0905858328
 H    1.5555413857   -0.0511271246   -1.4637929296
 H    1.1421291685   -2.4815625722   -3.2509540325
 H    0.8322238444   -3.9091837246   -2.2457004268
 H   -0.4983544356   -2.8083697185   -2.6724237737
 H    0.5635234248   -3.7279487903    0.2619844432
 H   -0.5257285480   -2.0485025815    1.7061729906
 H    1.1761512162   -2.1090974050    2.2203789359