15

 C   -0.0575715772    1.4343679521    0.1984426437
 C   -0.1078231497    0.0222956952   -0.3168779777
 O    0.3860147785   -0.4048618614   -1.3163299597
 O   -0.8386359750   -0.7619011249    0.5651801113
 C   -0.9525760523   -2.0840517991    0.2791458808
 C   -1.9924246767   -2.8237665985   -0.1753255484
 C   -1.5159110305   -4.1786395094   -0.1785728850
 C   -0.2373309658   -4.1369364482    0.2728252135
 O    0.1223257353   -2.8515775255    0.5644196649
 H    0.4557135685    1.4554942918    1.1641820695
 H    0.4698410102    2.0629715404   -0.5174255745
 H   -1.0709511663    1.8111749877    0.3609143102
 H   -2.9605560610   -2.4550042290   -0.4705406987
 H   -2.0605786891   -5.0589718136   -0.4811940214
 H    0.5228447211   -4.8803309176    0.4417520914