16

 O   -0.0449952439    1.3508530747   -0.0175101556
 C    0.0093035740   -0.0318786177   -0.0427868224
 C    0.9229039971   -0.7239831461   -1.0471477806
 O    0.3830294452   -2.0232038142   -1.2248187890
 C   -1.0255954387   -1.9739567713   -1.0053259399
 C   -1.2442697769   -0.8450418953   -0.0180294364
 C   -0.3455987185   -0.8156312687    1.2214350320
 C    0.4012384341   -1.9516460853    1.6828472055
 N    1.0055616845   -2.8480566617    2.0954667367
 H    0.7710503778    1.6845423215    0.3725568857
 H    0.9086915781   -0.1323121749   -1.9763934838
 H    1.9592921206   -0.8420673290   -0.7147582759
 H   -1.5713090645   -1.7547474251   -1.9362380115
 H   -1.3313398226   -2.9591144535   -0.6418432301
 H   -2.2168450219   -0.3770259155    0.0691360538
 H   -0.7282583844   -0.1856759277    2.0182958814