21

 C    0.0801588144    1.4358927824    0.0577485515
 C   -0.0235048639   -0.0801116637   -0.0289751560
 C    1.0187533967   -0.7160900197   -0.9765097988
 C    0.3138293313   -1.6939527681   -1.9799372861
 C   -0.3493241885   -2.6833374843   -1.0570272849
 C   -1.1489967109   -2.1528848505   -0.1288070091
 C   -0.9088245124   -2.2145046960    1.3709946317
 C   -0.6976971344   -0.6737627598    1.2484317286
 C   -1.4101299016   -0.6512552222   -0.0923824831
 H    1.0248280494    1.7447108497    0.5199340616
 H    0.0381761190    1.8864060052   -0.9407836828
 H   -0.7367750319    1.8621017730    0.6489519689
 H    1.5315321898    0.0845709313   -1.5241206876
 H    1.7935512453   -1.2652660386   -0.4304277817
 H   -0.3973769185   -1.1268167769   -2.5894161794
 H    1.0354766037   -2.1593489136   -2.6562490715
 H    0.1403138071   -3.6394424752   -0.8834319134
 H   -1.8001856132   -2.3843743731    1.9867057748
 H   -0.0914645879   -2.8517504741    1.7244261227
 H   -0.8630243458   -0.0000142530    2.0842527296
 H   -2.3038807177   -0.1202195827   -0.3981624749