16

 C    0.3395048875    1.4840328766    0.0067404047
 O    1.2465090966    0.3706796131   -0.0079827817
 C   -0.1437666610    0.1046667570    0.0039778567
 C   -0.8276619106   -0.7070746278    1.1172589046
 C   -1.5353402521   -1.5048074882    0.0087271350
 C   -2.0242798798   -2.8821477479    0.0060302410
 O   -2.9267668212   -1.7651363779    0.0207295656
 C   -0.8490630050   -0.6951271967   -1.1045879666
 H    0.3252905301    2.0617633523    0.9303307409
 H    0.3075634277    2.0716602571   -0.9101387893
 H   -0.1317823364   -1.2786659441    1.7373914206
 H   -1.5094940784   -0.1439965687    1.7603211976
 H   -2.0124387863   -3.4599871938   -0.9175289846
 H   -1.9947115488   -3.4698838423    0.9229229694
 H   -1.5430969348   -0.1252374098   -1.7283055599
 H   -0.1653165973   -1.2599450089   -1.7441198640