18

 C   -0.1941344234    1.3280803475    0.1496351520
 C   -0.1272351680   -0.1561045279   -0.0580736147
 N    0.7469590193   -0.7028429619   -0.7915650761
 O   -1.1239351792   -0.7676797842    0.6639492649
 C   -1.2284852733   -2.1588423897    0.5826245982
 C   -2.5794477556   -2.7904460208    0.7445894096
 C   -3.6045827043   -1.9662529949   -0.0309162767
 O   -2.8006329454   -2.0168010186   -1.2419619934
 C   -1.8498462139   -2.8508373586   -0.5964994871
 H    0.6091920012    1.8099951996   -0.4054799630
 H   -1.1607140205    1.7116161848   -0.1916044440
 H   -0.1064208673    1.5674971353    1.2139188558
 H    0.6369228851   -1.7150752517   -0.8342694912
 H   -0.4141298105   -2.7034047318    1.0588819157
 H   -2.7971012164   -3.5452567179    1.4878121429
 H   -4.5523509865   -2.4912601234   -0.1848134891
 H   -3.7831097068   -0.9417417266    0.3078976010
 H   -1.4002504646   -3.6539599693   -1.1704705247