19

 C   -0.0202556311    1.4636286213    0.0323429237
 N   -0.1102916430    0.0150523455    0.0348860346
 C    0.6098933573   -0.6800604964    1.0268456188
 C    0.7132675987   -2.0511165793    1.1193971958
 C    0.1573502061   -3.1335144431    0.2601960056
 N    1.4900276554   -2.3152065504    2.2500640377
 C    1.8367124856   -1.1491129389    2.8517878366
 O    2.5841920117   -1.2183738855    3.9857754727
 C    1.3217934623   -0.0974669250    2.1309209642
 H    1.0084203648    1.8548358987   -0.0506515772
 H   -0.6043171773    1.8560484146   -0.8046859216
 H   -0.4544127919    1.8635333742    0.9549948776
 H    0.0580972414   -0.3652721781   -0.8861725438
 H    0.8941866796   -3.5853065325   -0.4205734752
 H   -0.2707334881   -3.9501734998    0.8561619962
 H   -0.6531081329   -2.7308779316   -0.3551654658
 H    1.7300370297   -3.2253409655    2.6014606164
 H    2.7445944095   -0.3212429942    4.2922599790
 H    1.4418980822    0.9498846961    2.3562146950