17

 C    0.0135618817    1.5171439321    0.0041395239
 C   -0.0316982222    0.0179312762    0.0379123348
 C   -1.3827121125   -0.7655407052    0.1727596197
 O   -1.1947677271   -2.1419029643   -0.1604839058
 C   -0.7873145791   -1.6885016179    1.1332095932
 C    0.5881411946   -0.9676517051    1.0262873049
 C    1.1169779704   -0.8752320736   -0.3986898345
 C    1.1491686991   -1.8898906190   -1.4171408821
 C    1.3110357113   -2.6814099338   -2.3081876289
 H    1.0295710683    1.8863678113    0.1751020555
 H   -0.3236633658    1.9024982931   -0.9655995326
 H   -0.6322533549    1.9507653915    0.7769403746
 H   -2.3784955504   -0.3480275349    0.0795561113
 H   -1.1911798492   -2.1957354329    2.0004729168
 H    1.2233601772   -0.7593194544    1.8783490203
 H    2.0381108680   -0.2911911802   -0.3963832270
 H    1.4008847305   -3.4031966227   -3.0812849541