21

 C   -0.1883803001    1.2177971715   -0.0330211483
 O    0.3679062914   -0.0813446500   -0.0963761680
 C    0.8179113826   -0.5832764832    1.1329606333
 C    2.0891487180    0.0267997071    1.6775162201
 C   -0.2526456856   -1.0959886076    2.0985541492
 C    0.5786690780   -2.0493522269    1.2930410265
 C    0.1853352349   -3.0599502092    0.2261373377
 C    1.2971295980   -3.9196780975    0.8671594146
 O    1.5418905062   -2.9192336222    1.8880104820
 H    0.5618005794    1.9785336528    0.2234130792
 H   -0.5864874668    1.4413987817   -1.0257732389
 H   -1.0045984696    1.2735282292    0.7013654218
 H    1.9335124503    1.0484693923    2.0399171245
 H    2.4725890924   -0.5756783676    2.5040939886
 H    2.8539729034    0.0514685911    0.8943933391
 H   -0.0499074886   -1.0275561558    3.1627719855
 H   -1.2942235031   -0.9780261282    1.8159240554
 H   -0.8230109261   -3.4671552036    0.3218721322
 H    0.3532882892   -2.7339464699   -0.8005559962
 H    0.9814412148   -4.8715473690    1.3070560130
 H    2.1836401111   -4.0845063050    0.2441137488