23

 C   -0.2039003174    1.5577725094   -0.0042795541
 C    0.0386508419    0.0489814794    0.0075504600
 C    0.7512694041   -0.5128816204   -1.2684388907
 C    1.8898905010   -1.3788217431   -0.6774940116
 C    2.5643581734   -2.3484726098   -1.6214367395
 C    1.2521741803   -1.9160830000    0.6180036315
 C    0.9445584881   -0.5002497983    1.1455450047
 C    2.3485633436    0.1115682147    1.0347247405
 O    2.8873145924   -0.4626245257   -0.1676102338
 H    0.7191593339    2.1204657485   -0.1769104125
 H   -0.9014924469    1.8291327649   -0.8037570864
 H   -0.6361640830    1.9018743212    0.9421853453
 H   -0.9359455502   -0.4429252189    0.1125616713
 H    0.0720574380   -1.1011195664   -1.8939894807
 H    1.1783457391    0.2809980590   -1.8882575310
 H    3.0091180683   -1.8152860638   -2.4674392958
 H    3.3615658607   -2.8934587977   -1.1077544155
 H    1.8418114247   -3.0707851313   -2.0134842905
 H    0.3564534087   -2.5195536262    0.4460116389
 H    1.9625824975   -2.4777735200    1.2310511165
 H    0.5073639522   -0.4240688433    2.1431199845
 H    2.3489707123    1.2044231745    0.9572634155
 H    2.9799124473   -0.1655973265    1.8906370433