14

 O    0.0059655006    1.3667098996   -0.0625451168
 C    0.0290139812   -0.0181805681    0.0091604247
 C   -0.0351210719   -0.6423761282    1.4751605754
 O   -1.4461871018   -0.2716086511    1.4901685844
 C   -1.4060829106   -0.6445720200    0.0894786419
 C   -1.0331650021   -2.1391970337    0.1686372032
 C   -0.0896775768   -2.1222418809    1.1304577374
 C   -1.5290598881   -3.1875663271   -0.6310735623
 N   -1.9591822549   -4.0248552335   -1.3077858562
 H    0.8717574235    1.6793737445   -0.3399401009
 H    0.7367473372   -0.4758653163   -0.6911763967
 H    0.5480226995   -0.2804694430    2.3189817157
 H   -2.2502812739   -0.3161938888   -0.5122210621
 H    0.5223202180   -2.9251503533    1.5131293124