19

 C   -0.0372674869    1.5357289499    0.1143475223
 C   -0.0235468672    0.0105763370    0.0268031069
 O    0.6951656163   -0.5673174418    1.1172347331
 C   -1.4365891090   -0.5759614367   -0.0830673839
 C   -1.4233648377   -2.0909148053   -0.2174842236
 O   -2.7800241550   -2.5404846074   -0.2747655434
 C   -2.9770551937   -3.8644109794   -0.1457111078
 N   -4.1376072758   -4.3478937187   -0.2647252850
 H    0.9824694035    1.9184803800    0.2072804043
 H   -0.4979368137    1.9805550363   -0.7732916251
 H   -0.6110019749    1.8689394991    0.9883987410
 H    0.5527341545   -0.2884797585   -0.8584882605
 H    0.2943603668   -0.2455957191    1.9329234455
 H   -2.0205551161   -0.3027306292    0.8059642009
 H   -1.9540380188   -0.1400848351   -0.9451182373
 H   -0.8953871974   -2.3920684376   -1.1332269833
 H   -0.9040456922   -2.5407721868    0.6363317794
 H   -2.0571753858   -4.4264376984    0.0712460640
 H   -4.1075265370   -5.3552816584   -0.1220822975