21

 C   -0.1057475796    1.5054698801   -0.0020683209
 C    0.0987052129   -0.0076980491    0.0442604397
 C    1.0826201798   -0.6301106128   -0.9833354977
 C    2.4343734916    0.0420407293   -0.6300427558
 C    2.2975125367   -0.7664930004    0.6668728239
 C    1.5555031819   -1.8930766133   -0.1397340850
 C    0.6041018983   -2.1094049447    1.0502708552
 O    1.0987547052   -2.9891331514    2.0375245568
 C    0.8324304046   -0.5866900210    1.2785416563
 H    0.8023692264    2.0658704456    0.2344963945
 H   -0.4478413399    1.8249487871   -0.9932617702
 H   -0.8690963010    1.8061654484    0.7233386624
 H   -0.8867650081   -0.4790723634   -0.0541548442
 H    0.7434856347   -0.7219239595   -2.0157865672
 H    3.2525881257   -0.3569444748   -1.2376243636
 H    2.5029676792    1.1321732963   -0.6072805326
 H    3.1276978963   -0.9375030105    1.3526232647
 H    2.0653472010   -2.7047511148   -0.6599083388
 H   -0.4260439199   -2.4297633374    0.8672321320
 H    2.0409700547   -2.8234245993    2.1496395492
 H    0.6579138495   -0.1288482544    2.2527078914