17

 O   -0.0138645296    1.3601568520   -0.0338198719
 C    0.0413484536   -0.0354542924   -0.0434359747
 C    0.7164663227   -0.7018263026   -1.2496356055
 O    0.0462250428   -1.9684405922   -1.3575337595
 C   -0.6387448025   -2.1162168339   -0.1375980953
 O    0.3156741267   -2.1435569865    0.9405524716
 C    0.2863873144   -0.7599420968    1.3370457726
 C   -1.2058764582   -0.5337043288    1.6567248046
 C   -1.3328115367   -0.7609680676    0.1315766856
 H    0.8675649260    1.6994225606    0.1558247031
 H    0.5536032621   -0.1203268046   -2.1632380627
 H    1.7939881173   -0.8547180661   -1.1064844487
 H   -1.2152856502   -3.0390293556   -0.1687139836
 H    1.1140018763   -0.5361643894    2.0104616800
 H   -1.6737801218   -1.2470283610    2.3377795160
 H   -1.4365620947    0.4965745392    1.9298861165
 H   -2.2085347280   -0.5158525643   -0.4660144980