15

 O   -0.0064141840    0.0460326049    0.3683773612
 C   -0.0136439280    1.1990289622    0.0379092691
 O   -1.1847167940    1.8215035789   -0.2485199997
 C   -1.1229010428    3.0971304051   -0.9136143361
 C   -0.1802698640    4.0415157774   -0.1939770826
 N    1.1844751847    3.4896487131   -0.2031795480
 C    1.6496756059    2.9050946435    1.0486435234
 C    1.2376415276    2.0251884550   -0.0838557703
 H   -0.8037999839    2.9472485421   -1.9522692116
 H   -2.1472801820    3.4749056671   -0.9169986050
 H   -0.1686227986    5.0132409238   -0.6994287178
 H   -0.5475197430    4.2023955120    0.8285186945
 H    2.7059369061    3.0280342599    1.2688018138
 H    0.9917108998    2.9548695803    1.9143999151
 H    2.0104617361    1.5337679348   -0.6677793561