18

 O   -0.1115163656    1.4645291905   -0.0338359366
 C   -0.0000535226    0.0501217505   -0.0814053758
 C   -1.3911466421   -0.5374751437    0.0855512980
 C   -1.4220288427   -2.0830898854    0.0170123434
 C   -2.7686264949   -2.4646693222    0.6477867699
 C   -3.0551240395   -1.3564195544    1.6705200867
 O   -3.9136134707   -1.3833773854    2.5135599018
 C   -2.0605244098   -0.2160479794    1.4319833787
 H    0.7684114099    1.8417714500   -0.1229904252
 H    0.4330211619   -0.2848886175   -1.0382474919
 H    0.6531279875   -0.3266982246    0.7242220514
 H   -2.0189384316   -0.1377102844   -0.7216923078
 H   -1.2991022435   -2.4596074828   -1.0017871714
 H   -0.5987247577   -2.4933837019    0.6162462913
 H   -3.5765991225   -2.4359142846   -0.0953773937
 H   -2.8029455867   -3.4506011380    1.1169660522
 H   -1.3232248738   -0.2492219448    2.2473836019
 H   -2.5469313456    0.7590811981    1.4863126972