21

 C    0.0931930393    1.5661344720    0.0220356409
 C    0.0099335745    0.0250547874    0.0674504847
 C    0.8378409431   -0.4928168352    1.2789689650
 O    0.8558572720   -1.9005473410    1.3763571590
 C   -1.4580857828   -0.4824509547    0.1358160983
 C   -2.3172475416    0.0794011954    1.2734517513
 O   -3.6356628004   -0.4454290894    1.2334203481
 C    0.6288224781   -0.5361887278   -1.1400315728
 C    1.1588738286   -1.0349792805   -2.0986990268
 H    1.1241166263    1.8928549435   -0.1393075157
 H   -0.5189488513    1.9646218297   -0.7916948683
 H   -0.2582963321    2.0022360009    0.9618233407
 H    1.8548767082   -0.0784246570    1.2077024100
 H    0.3955781079   -0.1257766649    2.2098049669
 H    1.2347810768   -2.2331378606    0.5530394968
 H   -1.9577663992   -0.2573659459   -0.8119435284
 H   -1.4236470356   -1.5739193189    0.2303018839
 H   -1.8488280827   -0.1100738866    2.2510647412
 H   -2.4360226748    1.1627401428    1.1751103542
 H   -3.5746215828   -1.3980930568    1.3585019762
 H    1.6132400283   -1.4525974222   -2.9633283552