14

 O   -0.0039956878   -0.0723132591    0.0433191756
 C   -0.0167018610    1.1161898157    0.0065566257
 C   -1.0106635615    2.2786761013    0.0205242479
 C   -0.0170459382    3.0981189095    0.9371073903
 C   -0.0488986823    4.3251775928    0.0076876962
 C   -0.0565798654    3.1049786551   -0.9407252729
 C   -0.0866305250    3.0863877667   -2.3795470504
 N   -0.1110013989    3.0938717736   -3.5356687465
 C    0.9534362606    2.2983978315   -0.0207527511
 H   -2.0971172669    2.3267343817    0.0269913771
 H    0.0062739027    3.0487719229    2.0231719046
 H   -0.9555991568    4.9346095713    0.0190158267
 H    0.8450629292    4.9526894005   -0.0188272300
 H    2.0380188414    2.3682561165   -0.0599126834