20

 C   -0.0982132649    1.5190440083   -0.0019686005
 C   -0.0639298361    0.0061685084    0.0643229497
 C   -1.2375720733   -0.6905120013   -0.5925791925
 N    1.2950045823   -0.5772559128   -0.1096167081
 C    0.6276831966   -0.6591773197    1.1914080117
 C    1.2882859503   -0.1150064373    2.4863099257
 C    0.8914962647   -1.4419186091    3.1584785187
 O   -0.5317434837   -1.5647373218    3.0558974506
 C    0.2670104713   -1.9450345201    1.9235907369
 H    0.7985682874    1.9492718508    0.4489901818
 H   -0.1473732085    1.8582798478   -1.0429648633
 H   -0.9762691881    1.9113177467    0.5228176590
 H   -1.2765557087   -0.4570259838   -1.6631693948
 H   -1.1757768437   -1.7775132069   -0.4843699417
 H   -2.1840611461   -0.3648620262   -0.1477192404
 H    1.2321367663   -1.4734575686   -0.5911288620
 H    2.3665119400    0.0061848628    2.3572872989
 H    0.8572641087    0.7807657682    2.9394863788
 H    1.3812272311   -1.9746314096    3.9648569109
 H    0.1492948346   -2.9535025460    1.5416699206