17

 C    0.0019950109    1.4847665187   -0.0280978302
 C   -0.0260419523   -0.0147332736    0.0084457265
 C    0.5064009583   -1.0170754922   -0.9639896163
 C    1.2263837475   -0.8339613046    0.3918396825
 C    0.7545464625   -2.2025206094    0.7689792501
 O    1.1978485216   -3.0927112681    1.4398105267
 C   -0.3985445004   -2.0989730095   -0.2529428457
 C   -1.2450125875   -0.9116495464    0.2942383133
 O   -1.8239952271   -0.9832488207    1.5652761634
 H    0.9591294061    1.8610591266   -0.4026265673
 H   -0.7892878473    1.8679646566   -0.6814697303
 H   -0.1569917156    1.9020540813    0.9716296567
 H    0.9258933664   -0.9567570084   -1.9557079896
 H    2.1752734493   -0.3536872343    0.5889912251
 H   -0.8498054745   -2.9854136336   -0.6891578175
 H   -2.0546592929   -0.6583336408   -0.3969000240
 H   -1.1589051549   -1.2824730915    2.1959877367