20

 C   -0.0253534891    1.5542484716   -0.0030324455
 C   -0.0450769327    0.0245643363   -0.0966640859
 C   -1.4329442591   -0.5580451748    0.0329316356
 C   -2.2162987475   -0.4658855168    1.3731942527
 N   -2.6654958842   -1.8971256857    1.2586487974
 C   -3.1208169184   -2.0939986346   -0.1512515317
 C   -3.4574597469   -0.8745467614   -0.9963553978
 O   -2.2563269972   -0.1009015270   -1.0411964479
 C   -1.6786726153   -2.0875042619    0.1330374887
 H    0.9926465042    1.9384808793   -0.1142241984
 H   -0.6482991352    1.9954048718   -0.7849150817
 H   -0.4071868512    1.8981028347    0.9644878718
 H    0.3713322897   -0.2968483202   -1.0591629429
 H    0.5872020079   -0.4124754775    0.6852367918
 H   -1.5674150030   -0.3811016106    2.2487020751
 H   -3.0161314347    0.2790638335    1.4365333447
 H   -3.6701138646   -3.0174279033   -0.2941551792
 H   -3.7347363547   -1.1614155343   -2.0171743665
 H   -4.2835917896   -0.2868165706   -0.5720627728
 H   -0.9812275183   -2.9142277385    0.0732039226