17

 O    0.0683279967    1.3949973883   -0.0486716126
 C    0.0725843790   -0.0183471367   -0.0227691253
 C   -1.3322517044   -0.5776404154   -0.0496324459
 C   -2.3246391452   -0.5243655912   -1.2718785042
 C   -3.0883003749   -1.5219776104   -0.3757494113
 C   -1.7237047399   -2.0969455970    0.0592766321
 O   -3.4547198661   -0.6862524656    0.7754924187
 C   -2.2828977778   -0.0284506600    1.0093892488
 O   -2.1132675130    0.7970066758    1.8632546962
 H   -0.4066136792    1.6786676776    0.7443365646
 H    0.6321172067   -0.3515230561   -0.9033049519
 H    0.5960521246   -0.4103924389    0.8647483875
 H   -2.8133873121    0.4234567903   -1.5029093558
 H   -1.8991622226   -0.9792492954   -2.1685327453
 H   -3.9509967966   -2.1102082047   -0.6764264360
 H   -1.2446553742   -2.7067473669   -0.7093446054
 H   -1.6697583910   -2.5801275737    1.0372592958