13

 O    0.0486747464    0.0793911473   -0.1979826436
 C   -0.0292766343    1.2533160778   -0.0584675538
 C   -1.0978058926    2.2938891031    0.0703423230
 C   -0.0661038608    3.1551989833    0.7583175584
 N    1.0450290784    2.2677915277    0.1836948742
 C    0.9371504893    3.0613715353   -1.1082473822
 C   -0.4439292017    3.5368146653   -0.6360933227
 C   -1.2400425077    4.6260243828   -1.0999889926
 N   -1.8636052016    5.5170530905   -1.4945223839
 H   -2.1676743326    2.2338333703    0.2152457040
 H   -0.0616716524    3.6561199138    1.7137679793
 H    1.6684964032    3.8707822550   -1.1188383602
 H    1.0117141365    2.4583604779   -2.0175747599