20

 C   -0.0101325294    1.5915174208   -0.0958530932
 C    1.5343987118    1.5128166116    0.0650022839
 C    1.3590997293    0.1110996382    0.6863011500
 O    1.2881039495    0.2594508458    2.0956068009
 C    0.4534166044   -0.7006832095    2.7237554740
 C   -1.0044436594   -0.5059935127    2.3084533881
 C   -1.1463772096   -0.6958551183    0.7902639975
 C   -0.0486545716    0.0383036310    0.0211984471
 H   -0.4782193385    2.0842359700    0.7595612907
 H   -0.4065388703    2.0299990733   -1.0144969772
 H    2.0469011076    1.4662389051   -0.8997350480
 H    2.0262437706    2.2493046800    0.7030605918
 H    2.0825494023   -0.6766276726    0.4288534114
 H    0.7879566990   -1.7245264030    2.4794752800
 H    0.5851537684   -0.5559890293    3.8002191085
 H   -1.6480731046   -1.2126313864    2.8446241537
 H   -1.3142441376    0.5028861599    2.6055211521
 H   -1.0732604323   -1.7689207558    0.5663595882
 H   -2.1368225542   -0.3754624792    0.4449722586
 H    0.0572829348   -0.3909626388   -0.9810010883