21

 O   -0.0826803315    1.4037190892    0.0201089800
 C    0.0298756781   -0.0214069220   -0.0385088793
 C    0.7885536922   -0.5523297876    1.2007332817
 C    0.7362081749   -2.0818315047    1.3159145368
 C   -0.7131619811   -2.5887878380    1.3134963587
 C   -1.4775696979   -2.0819936994    0.0821264862
 C   -1.4166415072   -0.5537494772   -0.0312175396
 C    0.7294282452   -0.4125958494   -1.2734430693
 C    1.3293650289   -0.7038978786   -2.2746659232
 H    0.7974567333    1.7718185163   -0.1159927464
 H    1.8262659017   -0.2006854523    1.1675669241
 H    0.3154912012   -0.0894748333    2.0751231117
 H    1.2812608843   -2.5266682892    0.4740219077
 H    1.2527842872   -2.4000715036    2.2280261768
 H   -0.7319001044   -3.6837393513    1.3455867566
 H   -1.2204449765   -2.2399362122    2.2237501164
 H   -1.0481589833   -2.5281348726   -0.8236883748
 H   -2.5242292394   -2.4024002682    0.1234071765
 H   -1.9145429362   -0.0873020955    0.8275665851
 H   -1.9271595076   -0.2002431791   -0.9314956467
 H    1.8482997083   -0.9591086814   -3.1656817190