18

 C    0.0467505203    1.4998580355    0.0103560355
 C   -0.0143712819   -0.0315132462    0.0029778650
 C   -1.4734416920   -0.5119009737   -0.0189789626
 C    0.8074242468   -0.6400316773   -1.1788108204
 O    1.6813736404   -1.6031595815   -0.5581605812
 C    1.5184129703   -1.4169610409    0.7816545709
 N    2.2985235865   -2.2432884465    1.5458841180
 N    0.6621729998   -0.5709815479    1.1981670348
 H    1.0840976240    1.8445913866    0.0580421188
 H   -0.4169826308    1.9184267342   -0.8902521519
 H   -0.4806278882    1.8949724995    0.8831420638
 H   -2.0056486695   -0.1182624096   -0.8926316061
 H   -1.5198381290   -1.6049421737   -0.0498223167
 H   -1.9930454625   -0.1777711073    0.8833057139
 H    0.1924308664   -1.1622466631   -1.9166269571
 H    1.4247897788    0.1052776636   -1.6923882587
 H    3.1716894807   -2.5201031886    1.1241634692
 H    2.3656868300   -1.9610642933    2.5111824748