17

 O    0.0788273073    1.3119742140    0.2012928212
 C   -0.0122343280   -0.0998652232    0.0324708819
 C   -1.4909581416   -0.4554058245   -0.0516124644
 C   -2.1053702799    0.1304127714   -1.3266688989
 C   -1.3581512782   -0.2841738765   -2.5773471680
 O   -1.8553514042   -0.3754287039   -3.6768125398
 N    0.0000964950   -0.5497277027   -2.4010130192
 C    0.7461517687   -0.4963490956   -1.2281473514
 N    2.0008934242   -0.7006660041   -1.1375472099
 H    1.0167566792    1.5355596793    0.1925720272
 H    0.4702082860   -0.6226031328    0.8666470251
 H   -1.5967873218   -1.5459893906   -0.0398097058
 H   -2.0000577892   -0.0648596400    0.8335167906
 H   -3.1502696450   -0.1543760961   -1.4612640181
 H   -2.0660205997    1.2247034923   -1.2762236540
 H    0.4800243554   -0.7931112958   -3.2594617530
 H    2.4284695517   -0.8933539513   -2.0465293836