24

 C    0.2654470446    1.4855278991    0.2768174685
 C   -0.1936653676    0.0922665398   -0.1776219466
 C    0.5992429362   -0.4766478520   -1.3535258756
 C    0.4058499863    0.3272008400   -2.6314600143
 C    1.9743867240   -1.0548125643   -1.0747243719
 C    0.8390990801   -1.9854308164   -1.4509919323
 C    0.2962060862   -2.9267678128   -0.3854629321
 C    0.8751182104   -2.6628461300   -2.8132327337
 H    1.3296048078    1.4819764280    0.5362067868
 H    0.1144512872    2.2442481851   -0.4965647937
 H   -0.2941627284    1.8059629456    1.1614168288
 H   -0.1300275553   -0.5812433421    0.6803171807
 H   -1.2574186348    0.1338641821   -0.4504351052
 H    0.6646243821    1.3791396316   -2.4724807568
 H    1.0284279911   -0.0290283024   -3.4536023532
 H   -0.6388021431    0.2937873515   -2.9650278541
 H    2.7623263377   -0.8796620253   -1.8016622557
 H    2.3234590215   -1.0694736190   -0.0459435915
 H    0.3827464301   -2.5280136967    0.6268888933
 H   -0.7592526076   -3.1672081706   -0.5628193941
 H    0.8533630668   -3.8708985075   -0.4063448060
 H    1.4287015597   -3.6070617259   -2.7473022185
 H   -0.1357610592   -2.9020436177   -3.1656957823
 H    1.3608719741   -2.0585142300   -3.5809714608