23

 C    0.1650136494    1.5546893764    0.0844144569
 C   -0.0656623324    0.0471894733   -0.0513415678
 C    0.7174456153   -0.5770911278   -1.2107920763
 C    0.4947849569   -2.0879123060   -1.3516875801
 C    1.2873233972   -2.6889885354   -2.4973353542
 O    2.7374656635   -2.5314728319   -2.3613149357
 C    2.9233661897   -3.9230124686   -2.6271938135
 C    2.3188468754   -4.7599591721   -1.5471617492
 C    1.4406626477   -4.2039992086   -2.6536075235
 H    1.2244235757    1.7780253988    0.2523672637
 H   -0.1429304847    2.0855118539   -0.8234069229
 H   -0.4009804867    1.9731744103    0.9226521413
 H    0.2157091327   -0.4525229614    0.8852111463
 H   -1.1375457386   -0.1497073845   -0.1884072756
 H    0.4370317268   -0.0783011654   -2.1493046312
 H    1.7899384833   -0.3916870835   -1.0754096919
 H    0.7631545152   -2.5910889260   -0.4153723232
 H   -0.5694390741   -2.2972839373   -1.5296472218
 H    0.9812469143   -2.2315876376   -3.4486983781
 H    3.7394723337   -4.2120527204   -3.2789993837
 H    2.5009337923   -5.8275928245   -1.6253746103
 H    2.2696688699   -4.3752647550   -0.5329085592
 H    0.8526313776   -4.8318212367   -3.3089457602