23

 C   -0.4093195614    1.4867257565    0.3762630021
 C   -0.1465395951   -0.0044621356    0.1900457211
 C    0.3174457634   -0.3892693183   -1.2241368540
 C    1.6377437447   -0.9484157374   -0.6616579581
 C    1.2070879873   -0.5820331194    0.7670389338
 C    2.1460433001    0.3960717620    1.4659632064
 C    0.6654116455   -1.8529251558   -1.3568708906
 C   -0.0922046226   -2.9924297506   -0.7129449676
 O    1.1607757306   -2.1815042883   -2.6381162225
 H    0.4128000052    2.1000802880   -0.0048444063
 H   -1.3136917566    1.7783021808   -0.1693759839
 H   -0.5621494969    1.7407376327    1.4302732803
 H   -1.0313129657   -0.5547201942    0.5339362458
 H    0.1650964943    0.2109825152   -2.1154573651
 H    2.6415579518   -0.8440345928   -1.0583818239
 H    1.0610272343   -1.4481952819    1.4240567914
 H    2.3856518429    1.2578575305    0.8356649041
 H    1.7165105635    0.7686175720    2.4015988470
 H    3.0908584216   -0.1022330205    1.7095505701
 H   -0.4313570293   -2.7552786475    0.2975615491
 H   -0.9799608857   -3.2457770734   -1.3063255151
 H    0.5429995965   -3.8825181138   -0.6632335304
 H    0.4034289716   -2.2804321582   -3.2257626038