19

 O    0.2822336862    1.4228972756    0.1594861679
 C    0.0571000892    0.0472292198    0.2628924627
 C    0.0330476558   -0.6486299439    1.6685827772
 C   -1.3118305427   -1.2897501385    1.2990164338
 C   -2.3864039580   -0.2941431889    0.9689114016
 C   -2.7230712246    1.0102098936    1.6304342797
 C   -2.5857380306    1.2497495184    3.0757153360
 O   -1.6842681032    1.8542414050    2.1397136056
 C   -1.3208898328   -0.5636799016   -0.0637579368
 H   -0.2401584784    1.8523448750    0.8494806065
 H    0.8083753547   -0.4284368596   -0.3745261804
 H    0.8343193006   -1.3823909811    1.7827706722
 H    0.0444900466    0.0190176661    2.5314651904
 H   -1.5673797731   -2.3241191129    1.4971145742
 H   -3.3143693985   -0.7958643818    0.6919507401
 H   -3.5001844316    1.5722470108    1.1089922278
 H   -3.2499549409    1.9461711003    3.5836093580
 H   -2.1502184985    0.4711357634    3.6986369015
 H   -1.5949037402   -0.9536935295   -1.0379345279