19

 C    0.1108210124    1.4725224307    0.2759043460
 C   -0.0775393188    0.0050415143   -0.1466854050
 C   -1.5093896996   -0.4397469848   -0.1410325034
 C   -2.2265909135   -0.9214711287   -1.1725529422
 C   -3.5167988392   -1.4691284228   -0.6351125909
 O   -3.1322963295   -2.6776380507    0.1690863445
 C   -3.1228654329   -1.8680299657    1.3162841716
 C   -3.7878337400   -0.6986078825    0.6925581963
 C   -2.3424178661   -0.5128089464    1.0916214908
 H    1.1698010589    1.7476883465    0.2591017428
 H   -0.4270804872    2.1450723981   -0.3993093945
 H   -0.2627606227    1.6499903572    1.2895046066
 H    0.3426600148   -0.1455780301   -1.1469605433
 H    0.4997652633   -0.6371580421    0.5326874180
 H   -1.8627710970   -1.1013492951   -2.1762427331
 H   -4.3271181285   -1.7148043368   -1.3188132338
 H   -3.1792129952   -2.3515203929    2.2840979390
 H   -4.6290936771   -0.0746000399    0.9660847197
 H   -2.1008391520    0.0436363016    1.9896994110