27

 C    0.8349656476    0.8195613747   -0.8888397629
 C    0.2542253709   -0.4387092209   -0.2311910915
 C    0.8410881296   -0.7762711616    1.1639988660
 C   -0.0070238403   -0.2321451594    2.3312956537
 C   -0.1852232813    1.2887129762    2.3803598760
 C    1.0297493332   -2.2866163097    1.3231363327
 C    2.0527616009   -3.0281951513    0.4118888974
 C    2.4519923350   -3.9003578090    1.6319824587
 C    1.8049216157   -2.8363311547    2.5570463034
 H    1.9143642105    0.7127686825   -1.0444061524
 H    0.3766716488    1.0005712724   -1.8668953485
 H    0.6805603014    1.7139676818   -0.2790094606
 H   -0.8371445647   -0.3466679556   -0.1523958514
 H    0.4312958308   -1.2842567234   -0.9064458857
 H    1.8405229716   -0.3175026719    1.2316875231
 H   -0.9965318222   -0.7094958348    2.2940014872
 H    0.4492334521   -0.5613651498    3.2731441060
 H   -0.7457037298    1.6641230278    1.5187767213
 H   -0.7349105644    1.5846848252    3.2799071271
 H    0.7819067111    1.8036538197    2.3993965101
 H    0.0522464254   -2.7827618465    1.2534810709
 H    1.6766117201   -3.5391020892   -0.4780268544
 H    2.8671704033   -2.3608968535    0.1093951311
 H    1.8993660149   -4.8441960033    1.6522323990
 H    3.5129431432   -4.1194991442    1.7738382971
 H    2.5443070935   -2.1095841704    2.9120789236
 H    1.2269172331   -3.1878548211    3.4152645128