18

 C    0.0575357263    1.5032957917   -0.1274328495
 C   -0.0439564049    0.0116807665   -0.0399512021
 O    0.4502722705   -0.7246216525   -1.1688951552
 C   -0.2529456103   -1.8531237694   -0.5682136420
 C    0.6541825814   -2.1488317128    0.6417117059
 C    0.3609973941   -0.7879210816    1.3057957543
 C   -1.1554038455   -0.9155940639    1.6079093257
 C   -1.3102315651   -0.8763876888    0.0799255783
 H    1.1084572081    1.8102978079   -0.1649856514
 H   -0.4402076420    1.8757626920   -1.0276881300
 H   -0.4013409424    1.9754012431    0.7467432234
 H   -0.5084988394   -2.6398130123   -1.2763930785
 H    0.3421054985   -2.9966576625    1.2583612356
 H    1.6872002205   -2.2864775149    0.3168678548
 H    1.0665630893   -0.3910956184    2.0342050223
 H   -1.4873852865   -1.7991638814    2.1607717935
 H   -1.5797758403   -0.0176173326    2.0660386254
 H   -2.2384017922   -0.6852254101   -0.4567884805