27

 C    0.0153194837    1.5852024142    0.1659082852
 C   -0.0389737194    0.0592762118    0.0469684635
 C    0.6269430265   -0.4580734614   -1.2361249098
 C    0.6926934165   -1.9939930611   -1.3423435564
 C   -0.7108966509   -2.6228951431   -1.3801079717
 C    1.5814918166   -2.4990419002   -2.5159647194
 C    1.0062331354   -2.1622842611   -3.9002650067
 C    3.0245866825   -1.9809005349   -2.4027595409
 O    1.6035057077   -3.9261452400   -2.3438587343
 H    1.0496896253    1.9471203718    0.1720847561
 H   -0.4962252932    2.0664710227   -0.6753405246
 H   -0.4637099316    1.9314967069    1.0872005852
 H    0.4554147287   -0.3938843807    0.9167551850
 H   -1.0844943530   -0.2663198399    0.0871266381
 H    0.0886377775   -0.0501777165   -2.1031723838
 H    1.6386066883   -0.0386188339   -1.2800854817
 H    1.1948186744   -2.3689090130   -0.4392919897
 H   -0.6438588975   -3.6955931913   -1.5672400772
 H   -1.2297668674   -2.4769531947   -0.4289870592
 H   -1.3325182420   -2.1728755101   -2.1627860391
 H    0.9301173279   -1.0822152962   -4.0576231671
 H    1.6590648345   -2.5601236840   -4.6867660799
 H    0.0160887434   -2.6042900399   -4.0322064596
 H    3.4284725907   -2.1788003468   -1.4054510025
 H    3.6610955219   -2.4962351631   -3.1319388384
 H    3.1031330743   -0.9098910264   -2.6073297214
 H    2.1217040794   -4.2986028190   -3.0647945499