24

 C   -1.1551419256    1.7396246949   -0.7027171884
 C   -0.8063312183    0.2649361415   -0.4922030143
 C   -2.0152275016   -0.5779076097   -0.0656467934
 N   -1.6533037195   -1.9779174465    0.0282851692
 C   -1.8760136079   -2.6414829721    1.0837217023
 C   -2.5260707447   -2.1978194075    2.3763846052
 O   -1.5274986867   -3.9473159527    1.1642993769
 C   -0.9035699330   -4.5238842889    0.0101444255
 C   -0.6049827197   -5.9769229953    0.3320646825
 H   -0.2758236187    2.3165366527   -1.0049761668
 H   -1.9155144569    1.8608258708   -1.4826546693
 H   -1.5495234228    2.1932479663    0.2138225782
 H   -0.3932080334   -0.1653078084   -1.4114918743
 H   -0.0230301098    0.1681385141    0.2700078660
 H   -2.4361428466   -0.1622399441    0.8634728395
 H   -2.7980774325   -0.4783286066   -0.8317264728
 H   -3.5724598960   -1.9243574134    2.2105542337
 H   -2.4869971090   -3.0065549747    3.1060074635
 H   -2.0187212703   -1.3220811047    2.7901992263
 H   -1.5737698360   -4.4228416803   -0.8504222649
 H    0.0051279750   -3.9603877203   -0.2276446219
 H   -0.1255431156   -6.4580500800   -0.5257783608
 H    0.0666926920   -6.0568526593    1.1917565384
 H   -1.5240212725   -6.5229962160    0.5640213500