14

 N    0.0351572195    1.2180367876    0.0951196213
 C   -0.1136379561   -0.0307499646    0.2631919876
 N   -1.3265400071   -0.6829260800    0.0344110030
 C   -1.3912621844   -2.1468193507    0.1276530150
 C   -0.9596937513   -2.6609706303    1.4230416429
 C   -0.5863254208   -3.0880001045    2.4818784694
 C   -2.4836282402    0.0121395134   -0.2920960817
 O   -3.5430396651   -0.5240801650   -0.5220095415
 H    0.9849565257    1.4965010934    0.3298685552
 H    0.6593830376   -0.7269248233    0.6031779218
 H   -2.4359816562   -2.4052018293   -0.0663935976
 H   -0.7898695896   -2.5962435269   -0.6725033256
 H   -0.2724549833   -3.4700500916    3.4221053700
 H   -2.3139925688    1.0963421319   -0.3124678700