21

 C    0.1156560147    1.6379642360   -0.1794154823
 C    1.5135329882    1.8928459978    0.3871299044
 O    2.2751625670    0.7358239635    0.0612666566
 C    1.4072651773   -0.3967016405   -0.1527903289
 C   -0.0242926922    0.1281723157    0.0576565099
 C    1.7424304510   -0.9906467109   -1.5339926085
 C    3.0058365889   -1.7879710536   -1.2127426681
 O    2.7710577078   -2.3532712768    0.0769546314
 C    1.8286163814   -1.5501032241    0.7791693060
 H   -0.6603752266    2.2292223305    0.3126361493
 H    0.0915082468    1.8655414931   -1.2502503578
 H    2.0139364814    2.7657944072   -0.0434749106
 H    1.4711823835    2.0307215464    1.4797645591
 H   -0.3439021967   -0.0596747394    1.0895267875
 H   -0.7448723931   -0.3571776287   -0.6042479408
 H    0.9419215680   -1.6637432875   -1.8598269202
 H    1.8910236218   -0.2154461530   -2.2879384740
 H    3.2038099515   -2.6068379099   -1.9107943918
 H    3.8831009765   -1.1254552473   -1.1899143880
 H    2.2746954177   -1.1434626501    1.6949616200
 H    0.9665347250   -2.1735867984    1.0546828468