18

 C   -0.0709420267    1.3283327339    0.1177472008
 O    0.0031122768   -0.0719222304    0.0086605613
 C    0.6692957463   -0.4937979030   -1.1625179703
 C    0.6745482951   -2.0173144236   -1.1488376727
 C    1.3526947200   -2.6542223331   -2.3378676191
 N    1.8537422846   -1.8815793518   -3.2351186839
 O    2.4480469064   -2.5817350583   -4.2759778005
 C    1.3939625739   -4.0786951210   -2.3907332932
 C    1.3947916378   -5.2822988683   -2.3751187220
 H    0.9287990360    1.7901669127    0.1535756760
 H   -0.6228670472    1.7764681572   -0.7240409994
 H   -0.5985129972    1.5575092675    1.0469553753
 H    0.1592554921   -0.1160181924   -2.0621910535
 H    1.6981692848   -0.1028655719   -1.1915769911
 H    1.1625970116   -2.3686387873   -0.2315503103
 H   -0.3584502502   -2.3816188340   -1.0920419629
 H    2.7651552365   -1.8732992244   -4.8472722804
 H    1.4063951392   -6.3445243418   -2.3802065039