18

 C   -0.1021575484    1.5888654874   -0.0379572180
 C    0.0146499002    0.0638720592    0.0204696659
 C    0.8036974145   -0.5515001362   -1.1862182612
 C    1.4883703051   -1.8580910362   -0.6811830311
 C    1.6194503382   -1.5722412363    0.7866955573
 N    2.3125345339   -2.0853608748    1.7650828195
 O    1.9369771096   -1.3227288847    2.8837457396
 C    1.0328845805   -0.3881587314    2.5108956766
 C    0.7874767360   -0.4923907403    1.1840744634
 H    0.8881286192    2.0557827060   -0.0226249652
 H   -0.6138654875    1.9053706390   -0.9526891147
 H   -0.6713391618    1.9769743841    0.8127585133
 H   -1.0000619459   -0.3593786806    0.0295686465
 H    0.1630278142   -0.7205051452   -2.0555489640
 H    1.5794053532    0.1617629986   -1.4878152770
 H    0.8456077519   -2.7322159258   -0.8405752291
 H    2.4400422306   -2.0614254186   -1.1776821896
 H    0.6874249466    0.2553799157    3.3050439177