20

 C   -0.1140035775    1.5788162586    0.0037598223
 C   -0.0071562513    0.0518908907    0.0032386642
 C    0.7328866271   -0.4932369144   -1.2212289945
 C    0.7840269665   -2.0334285835   -1.2538176574
 O   -0.5252171984   -2.6074122242   -1.2320372689
 C    1.5669064895   -2.5196247978   -2.3932940194
 C    2.1766139297   -2.8969014947   -3.3615657532
 C    2.9252191927   -3.3684391443   -4.5176869313
 H    0.8759908323    2.0487311189   -0.0063101662
 H   -0.6572634570    1.9385904982   -0.8773902585
 H   -0.6443211077    1.9398415029    0.8905332576
 H    0.5100929458   -0.2807473411    0.9133154634
 H   -1.0052422362   -0.3969306621    0.0391372439
 H    0.2490893633   -0.1443869279   -2.1439492632
 H    1.7611057791   -0.1114411586   -1.2492565735
 H    1.2478119226   -2.3836597383   -0.3221576553
 H   -0.8911707076   -2.5096369803   -2.1181544356
 H    2.4723103646   -4.2717270783   -4.9410467701
 H    2.9613579308   -2.6118541417   -5.3091920224
 H    3.9577384116   -3.6139216622   -4.2457247720