16

 C   -0.0355948522    1.5374605688   -0.0256797283
 C   -0.0242000326    0.0055048732    0.0060637251
 C   -1.4612585591   -0.5602513829    0.0023397168
 O   -1.4810634234   -1.9688440255   -0.0277281634
 N    0.7195680879   -0.5605416214   -1.1311727239
 C    1.6576503368   -1.2422173184   -0.6199404814
 O    1.7844221525   -1.2865142752    0.7431213910
 C    0.7303016597   -0.5102313567    1.2358219958
 O    0.5505899392   -0.3363876170    2.3975543616
 H    0.9815522538    1.9356721113   -0.0604849613
 H   -0.5702552810    1.8872784963   -0.9122917367
 H   -0.5285109770    1.9237083760    0.8705614481
 H   -1.9585196612   -0.2554457752    0.9277033153
 H   -1.9999611024   -0.1199858273   -0.8487003876
 H   -1.1105168447   -2.2392724322   -0.8755415897
 H    2.4075510137   -1.8098898438   -1.1584640114