18

 C   -0.2546843909    1.3316672918   -0.4377177615
 O   -0.1261234609   -0.0275183345   -0.0884742669
 C    0.7171528017   -0.7504528287   -0.9631812539
 C    0.7074125000   -2.2033582448   -0.5130596754
 N   -0.6389198168   -2.7411874658   -0.5326867611
 C   -0.9632457315   -3.8993373093   -1.1712941932
 O   -0.1634207706   -4.6129269708   -1.7513731887
 C   -2.3847650812   -4.2206784929   -1.0975754273
 C   -3.5493712040   -4.5162954806   -1.0559932983
 H    0.7156695343    1.8507491055   -0.4102058124
 H   -0.6823168883    1.4547114112   -1.4447563933
 H   -0.9238174683    1.7949001213    0.2911361496
 H    0.3543388552   -0.6706821086   -2.0008708795
 H    1.7453671967   -0.3542701368   -0.9324910854
 H    1.3147700626   -2.8202574741   -1.1781668539
 H    1.1286067098   -2.2694027850    0.4982943442
 H   -1.3668588372   -2.1904236794   -0.1055310725
 H   -4.5758771206   -4.7895997483   -1.0265398605