20

 C   -0.1153748711    1.5178781200    0.0932002529
 C    0.0291249253   -0.0047692563    0.0168453678
 C    0.7069405545   -0.5670408707    1.2718251673
 O   -1.2631499367   -0.6118367286   -0.1460624751
 C    0.7704814992   -0.4883323263   -1.2790173734
 C    2.2593898710   -0.1314746913   -1.3253092361
 O    0.6838569160   -1.8981556174   -1.3670730257
 C    0.0997695855    0.1117494414   -2.4665212225
 N   -0.3939368133    0.5704512363   -3.4051726986
 H    0.8573994528    2.0121277577    0.1698396176
 H   -0.6412552833    1.9053607886   -0.7819026265
 H   -0.6898905149    1.7876242227    0.9861749530
 H    0.0626896807   -0.3948917038    2.1414411914
 H    0.8773865214   -1.6403221633    1.1686818474
 H    1.6608973724   -0.0736784640    1.4747371916
 H   -1.7654836981   -0.4892242662    0.6654128538
 H    2.7776276864   -0.6101411849   -0.4927919698
 H    2.6862369335   -0.5070234252   -2.2573326309
 H    2.4145030680    0.9482887729   -1.2825002724
 H   -0.2389125595   -2.1154538413   -1.1714981019