16

 C    0.0039601525    1.5613342421    0.1866396355
 C   -0.0456440599    0.0512321114   -0.1039918902
 C   -1.4311804403   -0.4938670284   -0.1684080156
 C   -2.1618063422   -1.0688846299   -1.1652894224
 C   -3.4439053666   -1.3739580134   -0.5978960828
 O   -4.5136493629   -1.9580298727   -1.2031647570
 C   -3.4039885790   -0.9640370141    0.6980535787
 O   -2.1728665973   -0.4241698026    0.9665865432
 H    1.0393285496    1.9102270248    0.2454758311
 H   -0.5050773617    2.1274558025   -0.5993117249
 H   -0.4878332988    1.7877493198    1.1364182809
 H    0.4465826451   -0.1662577693   -1.0573294430
 H    0.5203411318   -0.4835466454    0.6699841091
 H   -1.8318623783   -1.2551987701   -2.1766272666
 H   -4.2831452774   -2.1492693628   -2.1164125693
 H   -4.1137319046   -0.9832764218    1.5056474932