18

 C   -0.1508341048    1.3436270361   -0.0690823145
 O    0.3040760764    0.0166477887    0.0974859971
 C    0.7894917580   -0.5542098474   -1.0848791250
 C    1.1108191899   -2.0695036348   -0.9077428002
 C   -0.4235769794   -2.3196097613   -1.0761043745
 C   -0.2572780349   -1.1564729814   -2.0808378793
 O    0.5909877992   -1.6943873420   -3.1050245708
 C    1.5980059854   -2.3888174052   -2.3226322013
 H    0.6466017410    1.9968229235   -0.4548918796
 H   -1.0082303061    1.4052086472   -0.7547210907
 H   -0.4586207155    1.7044850896    0.9149743551
 H    1.5626697215    0.0772123195   -1.5478897447
 H    1.6891070770   -2.4401564514   -0.0628604806
 H   -0.7512088049   -3.2815715743   -1.4766155907
 H   -0.9853836224   -2.0389700638   -0.1871901510
 H   -1.0790000343   -0.6037411118   -2.5332523558
 H    2.5908660118   -1.9843728226   -2.5507373773
 H    1.5857067421   -3.4595691287   -2.5580743461