18

 C    0.0318238528    1.5637107426    0.0279144359
 C    0.0101951917    0.0218437312    0.0345477033
 C    0.7624452435   -0.4992431366    1.1724047386
 C    1.3993042472   -0.8982025596    2.1101380390
 C   -1.4521967925   -0.5528118932    0.0184199416
 C   -1.4663026596   -2.0841202484    0.0503047252
 O   -2.2024244992   -0.1255454122    1.1406505373
 C   -2.1107879608   -0.0866638995   -1.2294861231
 N   -2.6242231391    0.2988227845   -2.1906767005
 H    1.0618155558    1.9215090042   -0.0303191620
 H   -0.5208245964    1.9571034500   -0.8296944910
 H   -0.3981769536    1.9648024281    0.9508365393
 H    0.4854856620   -0.3300759523   -0.8905697888
 H    1.9617133763   -1.2573753469    2.9365198234
 H   -1.0022558207   -2.4192434931    0.9791980967
 H   -2.4963851851   -2.4431460488    0.0120937723
 H   -0.9136118420   -2.4946554410   -0.7980580146
 H   -2.3001271704    0.8325747510    1.1079989773