16

 C   -0.0447223356    1.4228381070   -0.0729825093
 O   -0.0196844422    0.0105701819    0.0108431357
 C    0.6181494440   -0.5435838088    1.0704758072
 C    1.2596867567    0.1371586906    2.0926579458
 C    1.8751476807   -0.5894572766    3.1216112897
 C    1.8217452425   -1.9682347827    3.0827124864
 N    1.2032180390   -2.6422189346    2.0976480109
 C    0.6256167668   -1.9585560676    1.1319489883
 O    0.0055240521   -2.6381461092    0.1445312646
 H    0.9677755833    1.8413108662   -0.1453328287
 H   -0.5989013181    1.6623960783   -0.9814704538
 H   -0.5542654755    1.8698186296    0.7907487277
 H    1.2879506574    1.2194801793    2.1007620161
 H    2.3820203598   -0.0761841323    3.9301569702
 H    2.2836634470   -2.5731569993    3.8571334966
 H    0.1214269920   -3.5729227720    0.3660761027