19

 O   -0.1348008349    1.4667563141    0.0936317765
 C   -0.1898640148    0.0965761531    0.4288739076
 C   -1.4168281395   -0.5654619941   -0.2094028586
 O   -1.4183377511   -0.2693815679   -1.6092437950
 C   -1.4578899632   -2.0697211814    0.0036379497
 O   -0.5665615234   -2.7689421372   -0.8368301232
 C   -1.6211828617   -2.6402207805    1.3914259950
 C   -2.7358055749   -2.7678550127    0.3736308339
 O   -3.8860962429   -1.9896939485    0.4956894100
 H   -0.4051477873    1.5099285540   -0.8331721931
 H    0.7174500383   -0.4408553848    0.1010988276
 H   -0.2379599659    0.0244245293    1.5203330720
 H   -2.3289604650   -0.1141029520    0.1883226061
 H   -0.6844770531   -0.7780769413   -1.9797081266
 H   -1.0541491118   -3.0186703198   -1.6297853862
 H   -1.0440097782   -3.5246756445    1.6346553763
 H   -1.7743726860   -1.9385863093    2.2049416499
 H   -2.8831127527   -3.7541040404   -0.0694209899
 H   -4.3679312117   -2.2849097263    1.2753880379