20

 C    0.0472735366    1.5472350662    0.0064761228
 C    0.0355304633    0.0489793915    0.0553046908
 C   -0.9011146054   -0.7576612381    0.9130277737
 C    0.5841105033   -0.9630433699    1.0747606301
 C    1.1855740222   -1.7209516086   -0.1088376788
 C    0.4321120008   -2.8710506409   -0.8341023707
 O   -0.4076954933   -3.6402511915   -0.0040072829
 C   -0.2043207728   -1.7651501633   -1.7379510363
 N    0.6373905439   -0.7100745957   -1.0790036558
 H    1.0349344371    1.9212559540   -0.2801190099
 H   -0.6765685796    1.9168859646   -0.7305035472
 H   -0.2212472197    1.9730837511    0.9784982434
 H   -1.3523804517   -0.1835704074    1.7172715745
 H   -1.5295617736   -1.5532016572    0.5328116946
 H    1.0933529631   -0.7916003221    2.0152719635
 H    2.2752922554   -1.8103986164   -0.0735466131
 H    1.1218957327   -3.5164433446   -1.3943240634
 H   -0.7839723549   -4.3508163035   -0.5328657768
 H    0.0184588022   -1.8521041942   -2.8058271697
 H   -1.2838450896   -1.6427532140   -1.6077616787