17

 C   -0.0710905013    1.5069184048    0.0612078701
 C    0.1307747652    0.0177725262    0.0211393263
 O   -0.7318603383   -0.7719703588    0.8521368170
 C    0.6960750300   -0.8113152501    1.1053903075
 C    1.3762989961   -1.9732967430    0.4670306473
 C    1.2366101292   -1.9180686228   -0.8602160965
 C    0.4661206477   -0.6860786757   -1.3093305666
 C   -0.7955823659   -1.0728461440   -2.0752278046
 O   -0.9385033359   -0.9235711304   -3.2608582983
 H    0.8106153528    2.0293271331   -0.3237053294
 H   -0.9294360360    1.8001656677   -0.5531998980
 H   -0.2580333451    1.8374354192    1.0857092510
 H    0.9970001760   -0.4135202406    2.0697802584
 H    1.8927121360   -2.7470679294    1.0209578061
 H    1.5851629899   -2.6594724988   -1.5697749289
 H    1.0660791729   -0.0519040003   -1.9713734778
 H   -1.5832499032   -1.5224566172   -1.4366029136