18

 C    0.1503564035    1.1742040304   -1.0466882414
 C    0.0071207815    0.0023196439   -0.1018476965
 C    1.1467714133   -0.8937961818    0.1551256061
 O    0.7594867783    0.0968285810    1.1122157561
 C   -1.3857221346   -0.5506414011    0.0510425767
 C   -1.8212272224   -1.1753440574    1.3376432938
 C   -2.4217481784    0.1584458025    0.9206488939
 C   -2.0952054618    1.3617749177    1.6338979172
 N   -1.8661402887    2.3489884242    2.1920902582
 H    1.1950610058    1.4857123783   -1.1153744578
 H   -0.2026047178    0.9086417844   -2.0491486877
 H   -0.4387570056    2.0247010021   -0.6907592245
 H    0.9666713334   -1.9252827886    0.4543059303
 H    2.0970306388   -0.7102030478   -0.3438149873
 H   -1.7949781999   -0.9619123425   -0.8678382336
 H   -2.4770422673   -2.0374903395    1.3155574318
 H   -1.1069230989   -1.1433217299    2.1514361208
 H   -3.4437330490    0.1415559740    0.5565262640