16

 O    0.0107780274    0.0028992117   -0.1530322997
 C   -0.0223191799    1.1989820373   -0.0042142174
 C   -1.2859518999    2.0712589118    0.0950457134
 C   -0.7469920604    3.4338115595    0.5336860255
 C   -0.0606554908    3.3221733240    1.9359980578
 C    1.2694289891    3.1257618436    1.2150940192
 C    0.6805141147    3.5563192483   -0.0995126916
 C    1.1516903847    2.1282090448    0.0455494266
 H   -1.7405810180    2.1194664812   -0.9028136046
 H   -2.0201948364    1.6310254730    0.7752934573
 H   -1.4341185255    4.2672252051    0.3986228221
 H   -0.0761140784    4.2772222527    2.4673059736
 H   -0.4160937292    2.5324227720    2.6072427166
 H    2.2568150922    3.3210849860    1.6161710091
 H    1.0328113859    4.2517102429   -0.8491602475
 H    2.0917803246    1.8011015859   -0.3808136904