15

 O   -0.2099190782    0.0369217127   -0.0409827274
 C   -0.0462430114    1.2256858770    0.0022210280
 N    1.1699369888    1.8914745849   -0.0012771669
 C    1.2695683822    3.3285183993    0.0268474191
 C    1.9532360099    3.9633886795    1.2199965201
 C    2.7416332076    3.6287139427   -0.0319051128
 N    3.3599780412    2.3427703651   -0.1192712090
 C    2.4671868148    1.2891650903   -0.0063322129
 O    2.7306529143    0.1226487048    0.0894978767
 H   -0.8803565447    1.9562519914    0.0446753262
 H    0.5358117086    3.8736149556   -0.5534704719
 H    1.7374385170    5.0109680154    1.3989287503
 H    2.1100938907    3.3583173156    2.1061344349
 H    3.1485567568    4.4128959803   -0.6594105138
 H    4.3211614824    2.1721106452    0.1280440993