15

 C    0.0089549070    1.4467478246   -0.0343998490
 O    0.0183741507    0.0159072933   -0.0303285654
 C    0.5950057828   -0.6348865602   -1.0399741156
 C    0.6416160614   -1.9848450731   -1.1055044363
 C    1.2812246886   -2.6589915124   -2.2250511256
 O    1.3588958667   -3.8736485249   -2.3481150508
 C    1.8383600888   -1.7197811540   -3.2204506223
 C    1.7367285009   -0.3983566821   -3.0576109417
 O    1.1224699212    0.1781266013   -1.9807451860
 H    1.0255320507    1.8494805528   -0.0255122733
 H   -0.5276294046    1.8366811457   -0.9037567049
 H   -0.5107628081    1.7301507879    0.8805518685
 H    0.1951816400   -2.5668771849   -0.3108866482
 H    2.3357384543   -2.1236734195   -4.0933709314
 H    2.1121238196    0.3617977554   -3.7297774780