20

 C   -0.1916631374    1.5264638392    0.0317529290
 C    0.0532214028    0.0136776640   -0.0221865966
 C    0.7982747264   -0.4465054784   -1.2900396394
 C    1.1129458043   -1.9674891677   -1.1873559355
 C    2.3239972751   -1.5301779595   -0.3199659163
 C    2.3310691938   -0.2066137800   -1.1340836904
 N    1.8572215204   -1.2535066215    1.0346290846
 C    0.7748199265   -0.4502145074    1.2627809870
 O    0.4045423073   -0.1320386229    2.3773110326
 H    0.7454877425    2.0864927226   -0.0568555937
 H   -0.8500489946    1.8400221658   -0.7842992283
 H   -0.6547644771    1.7923263678    0.9840389848
 H   -0.9252675035   -0.4856380639    0.0038355933
 H    0.3054884236   -0.0778355965   -2.1931656571
 H    0.3743103631   -2.6224857052   -0.7178379157
 H    1.4295682108   -2.3849325284   -2.1462769186
 H    3.2181518153   -2.1527140771   -0.2761176356
 H    2.8558444013   -0.3160463877   -2.0862109419
 H    2.6763811939    0.6934850217   -0.6195097803
 H    2.3873247856   -1.5475997449    1.8400783880