25

 C   -0.0274715009    1.3875684302   -0.0332049063
 O    0.0208040944   -0.0150243239    0.0428863128
 C   -1.2572121395   -0.6147270124   -0.0120511657
 C   -1.1066551163   -2.1316466816    0.1037703036
 C   -0.4686607912   -2.5245324351    1.4426183356
 C   -2.4538088238   -2.8203370507   -0.1049595520
 C   -3.1563381860   -2.7396455776   -1.4927969398
 C   -3.5920827067   -4.2186023200   -1.3171963094
 C   -2.4963673873   -4.3714661547   -0.2286365678
 H    1.0006613196    1.7558220262    0.0115029929
 H   -0.4868036112    1.7318718818   -0.9740635962
 H   -0.5976010362    1.8247111984    0.8025561256
 H   -1.8927824560   -0.2337823373    0.8084274373
 H   -1.7583404111   -0.3486219862   -0.9582691983
 H   -0.4341305757   -2.4469443960   -0.7071734897
 H   -0.2954525454   -3.6037570721    1.4966595475
 H    0.4869115527   -2.0132189172    1.5784117334
 H   -1.1218352787   -2.2488207658    2.2799278597
 H   -3.1526187438   -2.4988952846    0.6790168240
 H   -3.9386234338   -1.9890629611   -1.6314933868
 H   -2.4236243270   -2.6291196999   -2.2997489529
 H   -4.5973789210   -4.2966550040   -0.8929810302
 H   -3.5352997218   -4.8723854130   -2.1906703347
 H   -1.5618811865   -4.7579111947   -0.6498141587
 H   -2.7385670270   -4.9513915884    0.6651960761