16

 O    0.0810832325    0.0094204579    0.1027278260
 C    0.0054573538    1.2111677198    0.0355986090
 C   -1.3407151890    2.0205888482    0.0329582064
 C   -0.8762522988    3.4115345696   -0.4073226089
 C   -0.8439207130    4.8041714866    0.2737813193
 C   -0.0385846839    4.8683100399    1.5083457773
 N    0.7077123640    4.7959465792    0.2136114351
 C    0.5837493903    3.3977573066   -0.1162117748
 C    1.1338747810    2.1947102998    0.0722929670
 H   -2.0867567514    1.5431145655   -0.6050231408
 H   -1.7220594588    2.0153777966    1.0602262674
 H   -1.0639195059    3.5784326568   -1.4733182817
 H   -1.3963040100    5.6653310230   -0.0856660258
 H    0.0573269062    5.8384967748    1.9857534305
 H    0.0264829025    4.0184359439    2.1818037142
 H    2.1434236206    1.9215924419    0.3441585199