19

 C    0.0401476810    1.5073868324   -0.0618090022
 C    1.3611729920    0.7972431557    0.0375821995
 C    0.0530818992    0.0051354668    0.0366316207
 N    0.4194742520   -0.7182167205   -1.2055483373
 C   -0.0510704914   -0.1239121546   -2.5047908968
 C    1.2763322479    0.6465166870   -2.6317988001
 C    2.0780101053    0.8890253698   -3.8488451888
 N    1.5024151873    2.0146379959   -3.0830039566
 C    1.7026410350    0.0739091907   -1.2722517825
 H   -0.2713878552    1.9997745328    0.8543914179
 H   -0.2488218374    2.0383194124   -0.9615971215
 H    2.0613036967    0.9760903915    0.8432776959
 H   -0.4542798235   -0.5250065820    0.8350146840
 H   -0.2186880266   -0.8941546140   -3.2642274932
 H   -0.9528100729    0.4937253345   -2.4230761121
 H    3.1624640612    0.8218467800   -3.8125519185
 H    1.6386893361    0.6280417412   -4.8090006080
 H    0.6731609314    2.3691728292   -3.5552822678
 H    2.6286493917   -0.5077759289   -1.2492434124