19

 N   -0.0623858136    1.2821209740    0.0577752962
 C   -0.0336811955    0.0209240437   -0.0016384031
 O    1.1223813602   -0.7120656798   -0.0351091460
 C    0.8797498942   -2.1398102242   -0.0447550495
 C    0.1372915687   -2.5155017454    1.2438096803
 C   -1.2046662433   -1.7319901885    1.2743134907
 C   -1.2625096387   -0.8585992107   -0.0030784056
 N   -1.2104562733   -1.6823682013   -1.2249190834
 C    0.0423536362   -2.4643094861   -1.2834337049
 H    0.8893934621    1.6560618812    0.0748255208
 H    1.8672928498   -2.6008778585   -0.0998278231
 H   -0.0213171391   -3.5981875338    1.2700527258
 H    0.7657777016   -2.2602285059    2.1011497044
 H   -2.0649445356   -2.4095068399    1.2786484723
 H   -1.2823397134   -1.1069306426    2.1691358450
 H   -2.1488270469   -0.2254409296   -0.0290728013
 H   -2.0170770517   -2.2950418451   -1.2454677135
 H    0.6117338595   -2.1998097713   -2.1836293442
 H   -0.1503592012   -3.5435535361   -1.3214746310