16

 N    0.0586489834    1.3628835658    0.1817258689
 C   -0.0377965940    0.0099077890    0.0249666797
 C   -1.2240267226   -0.6520275133    0.0216214264
 C   -1.3397391801   -2.0947975782   -0.0831722677
 O   -2.4056404142   -2.6803825647   -0.1292556229
 C   -0.0236786787   -2.8962814074   -0.1168844212
 C    1.1375697758   -2.1116041637   -0.6760165038
 O    1.8974936627   -2.5331005504   -1.5129109224
 C    1.2858409740   -0.7048916540   -0.1002211157
 H    0.9066668809    1.8272140362   -0.0976284659
 H   -0.7805583003    1.9169289151    0.1162424041
 H   -2.1592044035   -0.1056617961    0.0995318157
 H    0.2118872281   -3.1533054475    0.9262921097
 H   -0.1687418952   -3.8250415120   -0.6697238163
 H    1.9821282322   -0.1455462624   -0.7334087633
 H    1.7479257214   -0.7842115866    0.8946138247