16

 C    0.0988573475    1.5555471671    0.0554985676
 C   -0.0178774094    0.0295415704   -0.0198810671
 C    0.7024681598   -0.5751110770   -1.2481859810
 C    1.9455354631   -1.2545443080   -0.6873757888
 O    2.8757783128   -1.7141552118   -1.2953834931
 C    1.8200290005   -1.2617920530    0.8268600017
 N    2.6419616427   -1.7488961088    1.6697746754
 N    0.6353885714   -0.6384640375    1.1073879146
 H    1.1478932013    1.8684589718    0.0243859549
 H   -0.4286054731    2.0235558999   -0.7820657980
 H   -0.3410247513    1.9349766435    0.9835918828
 H   -1.0805441282   -0.2401672304   -0.0303511919
 H    0.0909080009   -1.3371028495   -1.7430895473
 H    0.9690642136    0.1682262451   -2.0028956891
 H    3.4155102479   -2.1683470495    1.1495563559
 H    0.3973767604   -0.4111114123    2.0600058035