25

 C    0.0778961220    0.6372697739   -0.3958384903
 C    0.9172770623   -0.6052453476   -0.1311074029
 C    2.3595298035   -0.7310041132   -0.7118776268
 C    2.5754559112   -1.9091362497   -1.6559107323
 C    3.0022438630    0.5374427629   -1.2666149395
 O    2.8874980386   -1.0293233121    0.6119121018
 C    1.5970137071   -0.8270050176    1.2552485908
 C    1.6574104457    0.3681287157    2.2027611908
 C    1.1603649399   -2.0872966041    1.9947218306
 H    0.5998724779    1.5645491761   -0.1482458634
 H   -0.2095982946    0.6914673060   -1.4515280561
 H   -0.8464792237    0.6112799032    0.1914652021
 H    0.3260371631   -1.4855164592   -0.4032490538
 H    2.1011351276   -1.7217731075   -2.6260590086
 H    3.6447612035   -2.0736189956   -1.8260613771
 H    2.1534672884   -2.8264230930   -1.2362394734
 H    2.8826521367    1.3833123547   -0.5862048583
 H    4.0753240128    0.3707909968   -1.4059187892
 H    2.5717223122    0.8100201599   -2.2363723802
 H    1.9988807010    1.2720430525    1.6937500561
 H    0.6779300911    0.5715968130    2.6491866759
 H    2.3624887845    0.1551446371    3.0128116203
 H    1.8418457515   -2.3006095964    2.8250838167
 H    0.1510441518   -1.9672889965    2.4047736746
 H    1.1607678028   -2.9514026891    1.3246964021