20

 C   -0.1247889338    1.5137386316   -0.1161825233
 O   -0.0764154232    0.1518113097    0.2535109387
 C   -1.2995905083   -0.5205006160    0.1179582018
 C   -1.5708322680   -1.2523678113   -1.2324943217
 C   -0.5820239921   -1.0826534167   -2.3678783007
 O   -1.4426933569   -2.5404927002   -0.5840742272
 C   -1.2778245179   -1.9429334424    0.7242976272
 C   -0.0232868844   -2.4116734542    1.4326340110
 H    0.8627611817    1.9366062101    0.0827401701
 H   -0.3582777570    1.6483999863   -1.1816433517
 H   -0.8741440680    2.0624586469    0.4747931015
 H   -2.1241987346    0.1175446998    0.4635110265
 H   -2.5999524518   -1.1073679880   -1.5918188082
 H    0.4431966268   -1.0723495094   -1.9910053181
 H   -0.6898797304   -1.9152927394   -3.0698910102
 H   -0.7669665302   -0.1521209874   -2.9154730840
 H   -2.1616404947   -2.1418547732    1.3471494411
 H    0.8695127733   -2.1590254033    0.8579524531
 H    0.0564649081   -1.9463791012    2.4203389467
 H   -0.0651966185   -3.4972771518    1.5648974674