21

 C    0.0009688748    1.5491654391    0.0207786054
 C    0.0529618094    0.0473357441    0.0052528741
 C   -0.8475420177   -0.8136764859    0.8441811453
 C    0.6429962271   -0.9511300822    1.0173388092
 C    1.2889966860   -1.7717829087   -0.1213553046
 C    0.4755856692   -2.9266059985   -0.7820280690
 C   -0.1028381671   -1.9229719953   -1.8351283307
 C    0.6928836559   -0.7651888133   -1.1546204246
 O    1.4702119124    0.0788261521   -1.9539995486
 H    0.9471877685    1.9791987961   -0.3176817850
 H   -0.7910672261    1.9289480049   -0.6360340302
 H   -0.2048193358    1.9150304651    1.0323573963
 H   -1.3471407189   -0.2803757108    1.6480197097
 H   -1.4517841478   -1.6118078150    0.4238967678
 H    1.1141975762   -0.7517435791    1.9733421360
 H    2.3688712331   -1.8973574707   -0.0343594434
 H    1.1039665155   -3.7037346076   -1.2235967761
 H   -0.2598453164   -3.4134047947   -0.1377639967
 H    0.2573800319   -2.1151633262   -2.8513574926
 H   -1.1899620609   -1.8158699174   -1.8788455683
 H    1.9896735509   -0.4662289761   -2.5541428339