19

 C    0.2293806119    1.4748145703    0.1498683064
 C    0.0288160639   -0.0081145694    0.0496850115
 C    1.1034840679   -0.9451302782   -0.3667962711
 C    0.5612985556   -1.1098689601    1.0387107398
 C    1.3914631827   -0.8554015842    2.2213889084
 O    2.4106553568   -0.1948819292    2.2013127506
 C   -0.7916610389   -1.8180591669    0.9925554892
 O   -1.3887555803   -1.7919308671    2.2722645280
 C   -1.3289343420   -0.7262086741    0.0074801698
 H    1.2360295934    1.7001420625    0.5137861328
 H    0.1055801130    1.9520091220   -0.8298664249
 H   -0.4917644530    1.9285832762    0.8376465189
 H    0.9094367305   -1.7335046184   -1.0913508576
 H    2.1072502020   -0.5336544739   -0.3899639532
 H    1.0031024587   -1.2849936145    3.1664929659
 H   -0.7657171230   -2.8428086865    0.5921582274
 H   -2.2681449315   -2.1770307120    2.2032649178
 H   -2.1200662173   -0.1510780819    0.4948586211
 H   -1.6703302305   -1.0559663547   -0.9798717309