16

 C   -0.5913014847    1.1798594127    0.2349509704
 C    0.2667489237   -0.0515587053    0.0470269559
 C    0.9138478413   -0.2982206534   -1.3344785033
 C    2.2582519542   -0.2504835944   -0.5568906544
 O    1.5776989053    0.0889062164    0.6694088134
 C    2.9952331916   -1.5026095622   -0.4712354782
 C    3.6067005209   -2.5430061754   -0.4034136827
 C    4.2930885997   -3.7206622672   -0.3315674466
 N    4.8763308526   -4.7238029499   -0.2744950982
 H   -0.0993121000    2.0656895949   -0.1783932068
 H   -1.5574846253    1.0495794104   -0.2646336504
 H   -0.7784504487    1.3543126496    1.2988901865
 H   -0.2406146769   -0.9388448142    0.4468081617
 H    0.6815992965   -1.2441447918   -1.8220130112
 H    0.7953276999    0.5232440524   -2.0426674993
 H    2.9449511798    0.5481827475   -0.8641481267