20

 N    0.0073027260   -1.1366287427   -0.2686402641
 C   -0.0221272951    0.0085043232   -0.1145456555
 C   -0.0284689935    1.4577237683    0.0778644894
 C    1.3885827307    2.0471017461    0.0840994040
 C    2.2286638659    2.0436356796   -1.2273618891
 C    2.6484094832    3.5197012401   -0.9558986061
 C    1.8579844268    4.5737257428   -1.7618095920
 C    0.6970755908    4.4841900298   -0.7248665566
 C    1.5769263944    3.5814969709    0.1947078765
 H   -0.6325385707    1.9051980700   -0.7193348436
 H   -0.5374539463    1.6816486243    1.0233003278
 H    1.9571501153    1.5629647016    0.8841741782
 H    3.0360250715    1.3099409157   -1.2581230090
 H    1.6321428523    1.9259661469   -2.1381987717
 H    3.7122465761    3.6877848903   -0.7859275448
 H    2.3394742944    5.5552922984   -1.7570452146
 H    1.6216699278    4.3140184248   -2.7981622479
 H    0.4170417373    5.4382704328   -0.2734565197
 H   -0.2192669301    4.0185681907   -1.0985203770
 H    1.7798328133    3.9820395865    1.1892259658