18

 O    0.0174681145    1.3618300341    0.3213326033
 C   -0.0809303517   -0.0491176764    0.4121742090
 C   -1.2923146855   -0.4739344801   -0.4151803539
 C   -1.4593468595   -1.9726316080   -0.4287014016
 O   -1.9449133878   -2.6013235959    0.7698041993
 C   -2.7433230227   -2.6910973699   -0.4046145076
 C   -4.0947772384   -1.9929705650   -0.3810779194
 C   -5.1295178435   -2.8254880175    0.2333518423
 N   -5.9433749506   -3.4935228607    0.7083845185
 H    0.7390353885    1.6517304618    0.8869043728
 H    0.8255824765   -0.5419502052    0.0238044725
 H   -0.2179841384   -0.3826791633    1.4514471588
 H   -2.1769968782    0.0240457634   -0.0096630113
 H   -1.1585467629   -0.1166464988   -1.4436762921
 H   -0.6244209792   -2.5114507971   -0.8831620701
 H   -2.7744588393   -3.6861271594   -0.8505981369
 H   -4.0285532264   -1.0513281580    0.1692439077
 H   -4.4044286456   -1.7561536841   -1.4063213715