17

 C   -0.1933374488    1.5789710556    0.0241348472
 C   -0.0261420283    0.0766063499   -0.0549355134
 C    0.9099972813   -0.5761984236   -1.0686758047
 C    2.1514842044   -0.2051647956   -0.1795566713
 N    1.0301352712   -0.5380362094    0.8763559629
 C    1.1127012200   -1.7786980105   -0.0817395517
 C    2.5968336606   -1.6379841170   -0.1502996693
 N    3.5967712531   -2.4050607092   -0.1855719143
 O    4.7981263178   -1.6682632305   -0.2815892616
 H    0.7528510979    2.1090293865   -0.1195210586
 H   -0.8937628221    1.9266738225   -0.7428396730
 H   -0.5966405252    1.8642024039    1.0012133667
 H   -0.9923696657   -0.4266910783    0.0753689240
 H    0.8762076072   -0.6221193050   -2.1621820605
 H    2.7220362510    0.7177833469   -0.1393454478
 H    0.4733416142   -2.6464699405    0.0671317227
 H    5.4598590514   -2.3679445458   -0.2786075672