11

 O    0.0194254691    0.0128787573    0.2062120835
 C    0.0251342915    1.1889842603   -0.0027941195
 O   -1.1144511915    1.9181189777   -0.1867353705
 C   -0.8345105836    3.2549175027   -0.6369310016
 C    0.6648543291    3.4259787026   -0.5123637948
 O    1.1129142244    3.2011919113    0.8203877924
 C    1.2066170194    2.1205353714   -0.1254561005
 H   -1.1676999259    3.3551786889   -1.6756651514
 H   -1.3909084480    3.9542860390   -0.0068215411
 H    1.2071426784    4.1606664901   -1.0987912153
 H    2.1949454772    1.7370062687   -0.3482203311