12

 O   -0.0409806856   -0.1487354605    0.0019835417
 C   -0.0549993366    1.0581761065    0.0059151837
 C    1.2210212277    1.9160966442   -0.0004805624
 C    2.4469824454    1.1280394208   -0.0137189728
 N    3.4332859727    0.5286574943   -0.0242908887
 C   -1.2758824852    1.8290530394    0.0168822634
 C   -2.3041263048    2.4728120184    0.0259589407
 C   -3.4545697058    3.1920081629    0.0363530709
 C   -4.4781083335    3.8326263130    0.0448274073
 H    1.1922419832    2.5802831894   -0.8728922034
 H    1.2060364810    2.5721315137    0.8784582241
 H   -5.3801901285    4.3947229379    0.0529503855