19

 O   -0.2359506101    1.5327486427   -0.1615027839
 C    0.0098929218    0.1385602481   -0.0226425464
 C   -1.3949205114   -0.4916518288    0.1360170314
 O   -1.4465792914   -1.8938450305   -0.0149082701
 C   -0.7152279868   -2.6854190391    0.8889150552
 O    0.4071368666   -3.2997076870    0.3232118983
 C    1.5412854723   -2.4641720453    0.0853641422
 C    1.4280639408   -1.5933658183   -1.1472143749
 C    0.7641550564   -0.4389775854   -1.1876025137
 H    0.6128864322    1.9855629597   -0.1637002898
 H    0.5728037875   -0.0497809679    0.9047830239
 H   -1.8043413834   -0.1769042677    1.1069843307
 H   -2.0386045614   -0.0821523038   -0.6477921558
 H   -0.4358193834   -2.0941490561    1.7787964034
 H   -1.3610692991   -3.5166548289    1.1877904032
 H    1.7335277167   -1.8484429687    0.9782284821
 H    2.3810860761   -3.1555231817   -0.0215809616
 H    1.8961784723   -1.9712470006   -2.0521498858
 H    0.6785038342    0.1209265695   -2.1166905482