20

 C   -0.0326207089    1.5960751956    0.0336239986
 C   -0.0021722564    0.0656409840    0.0078909860
 C    0.7034240770   -0.4986871818   -1.2303321514
 C    0.7349090831   -2.0292899962   -1.2578206053
 C    1.4502940163   -2.5753422417   -2.5138696921
 C    1.4920216557   -4.0264666088   -2.5609248201
 C    1.5135845102   -5.2349119808   -2.5765060265
 C    1.5400184677   -6.5992828918   -2.5980388374
 N    1.5622562050   -7.7609173946   -2.6159978722
 H    0.9807714036    2.0125585386    0.0290607736
 H   -0.5579184547    1.9965703479   -0.8405095982
 H   -0.5416201271    1.9691432034    0.9274279014
 H    0.4990987764   -0.3078725992    0.9103073748
 H   -1.0278202671   -0.3237450775    0.0474303992
 H    0.2026364558   -0.1273359664   -2.1353739828
 H    1.7310906923   -0.1114086620   -1.2716522293
 H    1.2432580234   -2.4117111562   -0.3653291861
 H   -0.2857277599   -2.4276506959   -1.2292427839
 H    0.9485130380   -2.2037367812   -3.4171389591
 H    2.4769427596   -2.1877978455   -2.5535513092