19

 O    0.3624538947    1.3508472295   -0.0334946602
 C    0.2490532362   -0.0570367374   -0.0907631286
 C   -1.1969043685   -0.5537487048   -0.0058678662
 C   -2.0904592878    0.0539614251   -1.0974707901
 C   -2.2750335231    1.5525950836   -0.9589451506
 O   -2.0165920745    2.3457345578   -1.8328981775
 C   -1.3245405906   -2.0852116558    0.1892181456
 C   -1.9568054146   -1.7191407003    1.5463081036
 O   -1.7691993098   -0.3085221022    1.3081383293
 H    0.2084015450    1.7186749450   -0.9097038985
 H    0.7140098437   -0.4752336249   -0.9975202273
 H    0.7953885087   -0.4490364342    0.7735608836
 H   -1.6949032571   -0.1629299744   -2.0954781234
 H   -3.0848063820   -0.4037002763   -1.0113832540
 H   -2.6968255216    1.8760702490    0.0135588012
 H   -1.9743622911   -2.5975367218   -0.5217200183
 H   -0.3707416760   -2.6141960465    0.2482124147
 H   -3.0165978917   -1.9768649125    1.6602677850
 H   -1.4141228598   -2.0591228090    2.4355407317