21

 C    0.1151789025    1.5689926366    0.0090977298
 C   -0.0223764540    0.0429286144   -0.0055239178
 C   -1.4690100847   -0.5223935596   -0.0138752156
 C   -2.2444778042   -0.0405105075   -1.2566944331
 C   -1.4432875633   -2.0715033412    0.0806471951
 C   -2.1441205009   -2.4400752524    1.3978473558
 O   -2.3039105887   -3.5576308775    1.8303180506
 C   -2.5794591592   -1.1669705050    2.0168644169
 C   -2.2164366911   -0.1331660030    1.2508312967
 H    1.1720583103    1.8517003646    0.0313072741
 H   -0.3259984996    2.0309117506   -0.8790291593
 H   -0.3579716444    2.0156973983    0.8895152807
 H    0.4942910935   -0.3553368717   -0.8883518503
 H    0.4979725154   -0.3714214434    0.8667962471
 H   -1.7054207654   -0.3041985525   -2.1731206097
 H   -3.2344866783   -0.5049593899   -1.2994653058
 H   -2.3881343464    1.0441126536   -1.2511555841
 H   -1.9702516702   -2.5514176525   -0.7497813751
 H   -0.4281130018   -2.4799568578    0.0862978409
 H   -3.1151749898   -1.1296713008    2.9570709291
 H   -2.4279442295    0.9076382766    1.4762786139