14

 C   -0.0405915210    1.3285082764    0.0614831008
 O    0.0360475319   -0.1022292554   -0.0557758777
 C    0.6463702460   -0.5482427211   -1.1286809249
 N    1.1929030441    0.1326061404   -2.1029960075
 C    1.6716398636   -0.8540725672   -2.9365110887
 C    1.3901691356   -2.0874983161   -2.4239293194
 O    0.7135388299   -1.8776707609   -1.2307691490
 C    1.6627701242   -3.4297920929   -2.8887290918
 O    1.3497722217   -4.4540310416   -2.3236984589
 H    0.9624410995    1.7603248443    0.0935621388
 H   -0.5877585026    1.7493461743   -0.7853051081
 H   -0.5708885646    1.5132404480    0.9946188284
 H    2.1894175638   -0.6199403732   -3.8544742789
 H    2.2102022878   -3.4313051351   -3.8570614931