16

 C   -0.1506439108    1.4249869160    0.1048993477
 C   -0.0492057572   -0.0225219374    0.0298396521
 C    0.0318761151   -1.2253831004   -0.0318420169
 C    0.1498244451   -2.6199330014   -0.1084853552
 C    1.1793378538   -3.4775708453   -0.3606230570
 N    0.7247243385   -4.7816730707   -0.3112841920
 C   -0.5408794027   -4.6778826103   -0.0363466197
 C   -1.5384431289   -5.7645121359    0.1373090997
 O   -0.9710904465   -3.4007986375    0.1028639435
 H    0.5041699208    1.8315587057    0.8838477565
 H    0.1277370180    1.8949177982   -0.8451107795
 H   -1.1760195042    1.7307262732    0.3393619634
 H    2.2081539019   -3.2347762150   -0.5720685411
 H   -1.9833906902   -5.7337176834    1.1372949017
 H   -2.3530297000   -5.6701379035   -0.5882535766
 H   -1.0427359027   -6.7249463724   -0.0042684167