25

 C   -0.5769337645   -0.6043649121    0.6151971353
 C    0.9434309873   -0.7980629304    0.5349465502
 C    1.4659078905   -0.9549313545   -0.8885104220
 O    2.6121729871   -1.8206906948   -1.0246847054
 C    1.3628249043   -2.2673413160   -1.5664567979
 C    0.7555613777   -3.5187678441   -0.9792973748
 C    1.5803404868    0.3569082852   -1.6812399560
 C    2.8177034890    1.1423673336   -1.2078949281
 C    1.6291077478    0.1778866146   -3.2038042312
 H   -0.9040803753    0.2868762457    0.0698590382
 H   -1.1112461127   -1.4626606962    0.1957429031
 H   -0.8970766944   -0.4866953978    1.6549488157
 H    1.4435495502    0.0548601082    1.0079000665
 H    1.2420390780   -1.6758255068    1.1137023689
 H    1.3454154541   -2.2597982620   -2.6559235405
 H    0.7333260343   -3.5041777556    0.1113373058
 H   -0.2673339121   -3.6523984221   -1.3482598578
 H    1.3368910637   -4.3927644156   -1.2926174232
 H    0.6879302841    0.9507713840   -1.4433315410
 H    3.7251051479    0.5650375625   -1.4078879900
 H    2.8921230116    2.0973202450   -1.7371816385
 H    2.7883487478    1.3598175753   -0.1363400067
 H    1.7506714851    1.1498912074   -3.6921700582
 H    2.4794759608   -0.4469607744   -3.4968241848
 H    0.7144784508   -0.2770993289   -3.5956118376