10

 O    0.0274181306   -0.0728311105    0.0030380354
 C   -0.0343095425    1.1188265997    0.0072690510
 C    1.1381326615    1.9921030983    0.0015007253
 N    2.1269088423    2.5888283988   -0.0037807384
 N   -1.2615205114    1.8328237166    0.0181664225
 N   -2.4630850053    1.2466754043    0.0248539170
 C   -3.2561922591    2.2944496700    0.0337165323
 N   -2.5719793146    3.4848719191    0.0325853746
 N   -1.3193201003    3.1854547242    0.0227230345
 H   -4.3320311412    2.2275748595    0.0411422557