21

 C    0.9343497310   -0.2034149733   -1.2549120359
 C    0.0127713635   -0.0929928680   -0.0399100964
 C    0.6253106409   -0.6778043855    1.2541424742
 C   -0.2427916621   -0.3617055318    2.4842918062
 O   -0.2786595109    1.0486620088    2.6342210374
 C    0.8456008140   -2.1195028819    1.1558872491
 C    0.9851662473   -3.3150875908    1.0838324417
 C    1.2260905029   -4.7554707836    1.0000235148
 O    2.2123606368   -5.2209911897    1.9123432526
 H    1.1861177701   -1.2470097559   -1.4673258927
 H    0.4588600940    0.2177828215   -2.1459160107
 H    1.8717620838    0.3399292528   -1.0907647753
 H   -0.2296514779    0.9544197854    0.1605032065
 H   -0.9341425430   -0.6097153518   -0.2397741177
 H    1.5942474789   -0.1852348972    1.4216243453
 H   -1.2498186749   -0.7802954135    2.3330182544
 H    0.1921648503   -0.8490241523    3.3686478055
 H   -0.8672230655    1.2602390233    3.3641590344
 H    0.3119796486   -5.3075351512    1.2459085462
 H    1.4851618162   -5.0210882673   -0.0376928333
 H    2.9886670358   -4.6619598481    1.8031592836