23

 C   -0.6056910068    1.4823227019    0.7303283528
 C   -0.0417987042    0.1952057102    0.1152866465
 C    0.8787494591   -0.5471778348    1.0646058308
 C    0.3021374548   -1.4483863700    2.1364298666
 C    1.1353636788   -2.0455723074    1.0166514393
 C    0.5313697227   -2.9694979962   -0.0089110341
 O    2.4378762841   -2.4642380560    1.3290947533
 O    1.9884071919    0.1931502639    1.5360808272
 C    2.9010859707    0.5868987601    0.5171832114
 H    0.1981123097    2.1667510046    1.0155152430
 H   -1.2619155230    1.9998036180    0.0242348660
 H   -1.1842583665    1.2620967731    1.6332742452
 H   -0.8640481994   -0.4703472165   -0.1647412517
 H    0.4844639317    0.4266561825   -0.8193303976
 H    0.7610488397   -1.3968509339    3.1183251187
 H   -0.7717495640   -1.6073137748    2.1418286213
 H   -0.4994452996   -2.6966332307   -0.2437246475
 H    1.1165102474   -2.9574303879   -0.9341208360
 H    0.5312710595   -3.9949303795    0.3752958759
 H    2.8437263623   -1.7387605192    1.8208342842
 H    3.2126565021   -0.2679130404   -0.0957423500
 H    2.4777578886    1.3603450414   -0.1361262212
 H    3.7740239503    1.0037052016    1.0256220957