20

 C   -0.1189337783    1.5575545172    0.1370658625
 C    0.0875075040    0.0779830972    0.0369264135
 N   -0.8183679251   -0.8875369371    0.7252453539
 C    0.6417608586   -0.9147710988    1.0036344521
 C    1.2760106046   -1.7444992134   -0.1193911675
 C    0.6853509083   -0.7197357600   -1.1181710064
 C    0.0923707356   -0.9621286714   -2.4812756247
 C    1.3802511717   -0.1850214521   -2.3262243599
 O    1.3788741415    1.2029673341   -2.5161185641
 H    0.7689539653    2.1008366575   -0.1931165412
 H   -0.9558288873    1.8852491797   -0.4902490122
 H   -0.3438598532    1.8405990507    1.1718361352
 H   -1.2513295947   -0.3735810343    1.4943008928
 H    1.0177019328   -0.7668688810    2.0090663850
 H    2.3694951396   -1.7321030914   -0.1033864166
 H    0.9142965727   -2.7733478952   -0.2000347736
 H    0.1304796143   -1.9631737515   -2.8992865752
 H   -0.7951748266   -0.3922707761   -2.7392351892
 H    2.3076832177   -0.6801315902   -2.6204849754
 H    1.2480276885    1.3722991162   -3.4549601189