20

 C   -0.1656354393    1.5779156135    0.0279563647
 C    0.0551476132    0.0704453978   -0.0010688998
 C    1.1723884671   -0.5351745204   -0.9246548805
 C    1.7631614542   -1.2808763076    0.2832993031
 C    2.2945923858   -2.6840863555    0.2647700212
 C    2.1838497185   -0.2497964324    1.3123953375
 C    0.7297469453   -0.6235774566    1.1900792178
 O    0.0331930711   -1.2156707534    2.2331664115
 H    0.7645937170    2.1184249564    0.2336655065
 H   -0.5517848758    1.9391968284   -0.9314987087
 H   -0.8916595661    1.8557344635    0.8007060060
 H   -0.8923429506   -0.4393895068   -0.2040638069
 H    0.7728544352   -1.1982912838   -1.6963552136
 H    1.8404224924    0.1923247553   -1.3994213609
 H    3.2789316039   -2.7357027538   -0.2161179559
 H    2.3986512128   -3.0760659665    1.2815704161
 H    1.6225874409   -3.3548156063   -0.2830003188
 H    2.6671554347   -0.6678310495    2.1908592397
 H    2.5607289140    0.7265115450    1.0135053978
 H    0.0060799758   -0.5985348874    2.9720719031