17

 O    0.1104541013    1.3915614783    0.2026048080
 C   -0.0059491887    0.0019385572    0.0417403418
 C   -1.4461069290   -0.5280984304   -0.1359830105
 C   -2.0460783306    0.1479207247   -1.3731866005
 O   -1.2987061634   -0.4187486368   -2.4773798481
 C   -0.3924404305   -1.3945083815   -1.9171726604
 C   -1.1560858297   -1.9390423803   -0.7078140785
 C    0.6582518007   -0.4897186378   -1.2633045416
 O    1.7046912444   -0.0771850857   -1.6920326507
 H    0.9269595201    1.6488809005   -0.2477771422
 H    0.4634338332   -0.5331076722    0.8859808923
 H   -2.0653312406   -0.4767159049    0.7588920512
 H   -3.1094573907   -0.0845701489   -1.5019990252
 H   -1.9076865417    1.2319352633   -1.3613132376
 H   -0.0540840023   -2.0654424907   -2.7037966853
 H   -0.5457929820   -2.5635188056   -0.0491663110
 H   -2.0579570606   -2.4836221292   -0.9953178718