17

 C   -0.4457377184    1.0090948715   -0.0930529013
 N    0.3354160963   -0.2000172768    0.0673592394
 C    0.6089582092   -0.8543627981   -0.9678381563
 O    1.3532701614   -1.9897694375   -0.8800276096
 C    1.5428180758   -2.6779643980   -2.0967766316
 C    1.8727157868   -4.1385943067   -1.9367781083
 C    0.5013721734   -3.7215377579   -2.4178332119
 O   -0.6205232708   -3.8387004235   -1.6029609724
 H    0.1172611535    1.8629476954    0.3002778347
 H   -0.7246441846    1.2282574704   -1.1364089649
 H   -1.3637674542    0.9332209942    0.5002855199
 H    0.3023050516   -0.5950338055   -1.9916356735
 H    2.0215708395   -2.0899024626   -2.8757161558
 H    2.5701737276   -4.5885656289   -2.6343636618
 H    1.9477164813   -4.4991310524   -0.9160941826
 H    0.2401595985   -3.8961338913   -3.4561707420
 H   -0.4008016269   -3.4597756422   -0.7428837518