19

 O   -0.0307874540    1.4403994057    0.0115747225
 C   -0.0324125726    0.0169434950    0.0022002376
 C   -1.4035754774   -0.4738896272    0.0127268777
 C   -2.5283019388   -0.9066233731    0.0211225102
 C   -3.8705970094   -1.4129696520    0.0310846074
 C   -4.9940547026   -1.1709279185   -1.0342724341
 C   -5.6372756487   -2.0871575205    0.0440967023
 C   -4.3212267421   -2.9143451715    0.0302455369
 C   -4.9755992299   -1.1776996808    1.1170551966
 H    0.8890131405    1.7246027387    0.0043359174
 H    0.4830418702   -0.3750915980   -0.8902527583
 H    0.5008171551   -0.3867626430    0.8788631700
 H   -5.3728355331   -0.1483164967   -1.1073185095
 H   -4.8229735962   -1.6099886880   -2.0205816579
 H   -6.6548520325   -2.4755569865    0.0516057294
 H   -4.1008247729   -3.4812059249   -0.8780813426
 H   -4.0853559956   -3.4868089111    0.9311404950
 H   -4.7876751081   -1.6229729608    2.0974961641
 H   -5.3529578120   -0.1555728667    1.2030447652