21

 C   -0.0977869397    1.7116550177    0.0024613311
 C    0.0232433424    0.1956701602    0.0145963556
 C    1.1205224922   -0.5551375501   -0.8057813876
 C    2.4358850008    0.0327594074   -0.2616165885
 C    2.1018006683    0.0183499460    1.2683075870
 C    0.6816622755   -0.5740928477    1.2040091464
 C    0.9008542790   -1.7542795316    0.1878387624
 C   -0.2408538856   -2.6074329239   -0.0695334753
 C   -1.1708139741   -3.3417646320   -0.2792990860
 H    0.8463944900    2.2214822287    0.2135082987
 H   -0.4493345488    2.0619300394   -0.9745285334
 H   -0.8260333307    2.0456617627    0.7500462399
 H   -0.9510129300   -0.2495865363   -0.2023433239
 H    1.0341584980   -0.7015322133   -1.8826653158
 H    3.2980237048   -0.5928333126   -0.5095921894
 H    2.6356508205    1.0364252491   -0.6454243953
 H    2.7845693968   -0.6149723884    1.8417802641
 H    2.1194561226    1.0141617874    1.7184272932
 H    0.1548762933   -0.7395119445    2.1440634304
 H    1.7885090856   -2.3686248799    0.3758754800
 H   -1.9938240006   -3.9863150883   -0.4643539136