17

 O    0.0703086774    1.3554883511   -0.1351577277
 C   -0.0084759405   -0.0198196069    0.0098457654
 C   -0.4105329678   -0.7088521380    1.2674132139
 C   -1.1547158127    0.1318722889    2.2894812215
 O   -2.0904910547    0.9107544116    1.5389456427
 C   -2.5443559040    0.1156065129    0.4337844787
 C   -1.3605663532   -0.7527256682    0.0484507941
 C   -1.5690304463   -1.9656252248   -0.7547901025
 O   -2.6366282828   -2.3058917753   -1.2095155205
 H   -0.6204783076    1.7466376712    0.4207016531
 H    0.7613500322   -0.5049159839   -0.5830225023
 H    0.1120677182   -1.5994019212    1.5989812197
 H   -1.6670327518   -0.5133115445    3.0179749608
 H   -0.5149913661    0.8339241190    2.8334337129
 H   -3.3995487956   -0.5138443172    0.7117357308
 H   -2.8609536499    0.8080190869   -0.3507320894
 H   -0.6481348347   -2.5675265116   -0.9344677814