17

 O    0.4631120788    1.5032871900    0.2315352470
 C    0.0329405187    0.1933569143   -0.1057891452
 C    0.5714188091   -0.2864896829   -1.4630269155
 C    0.1478567609    0.6607269421   -2.5954641265
 N    0.6339919994    0.2316085711   -3.8967474809
 C    0.0376154290   -0.7767471069   -4.5857210274
 O   -0.9246370909   -1.4008735035   -4.1895101288
 C    0.3801350572   -0.7661686632    0.9613261941
 N    0.6949387351   -1.5036858299    1.7933166809
 H    1.4079553324    1.4706612537    0.4221336165
 H   -1.0604198658    0.2568647921   -0.1556767884
 H    1.6649734604   -0.3580561696   -1.4141799772
 H    0.1856129125   -1.2885596276   -1.6718778207
 H   -0.9455472915    0.7010812846   -2.6407153419
 H    0.5130796889    1.6709176530   -2.4006763714
 H    1.4431423275    0.6780342441   -4.2961353162
 H    0.5269919283   -0.9651250815   -5.5614840183