21

 C   -0.1009397612    1.5169595737   -0.0624165903
 C    0.0150845569    0.0270377988   -0.0276293659
 C    0.1551226993   -0.8196992393   -1.0440113746
 C    0.1886975902   -2.2348848926   -0.5485087753
 O    0.1048059195   -2.1306382554    0.8708021802
 C   -0.0492106710   -0.7624299179    1.2630242332
 C    1.0208180461   -0.3954449330    2.2975322810
 C    0.9435506635   -1.2608973180    3.5571502541
 O    1.8978818073   -0.8819099235    4.5390908297
 H    0.7157856848    1.9979661885    0.4888443301
 H   -0.0841720107    1.8935908297   -1.0881617231
 H   -1.0344746254    1.8509050952    0.4079914514
 H    0.2196921826   -0.5576762821   -2.0931985830
 H   -0.6536920550   -2.8328509009   -0.9337588306
 H    1.1119302643   -2.7673541789   -0.8254431722
 H   -1.0417830400   -0.6380992123    1.7351942574
 H    2.0098211734   -0.5042941225    1.8320511206
 H    0.9075438241    0.6560590490    2.5874112702
 H   -0.0355422380   -1.1356407490    4.0338246233
 H    1.0399785649   -2.3200608805    3.2837158660
 H    2.7713657343   -1.0823558589    4.1884921776