11

 C   -0.0323961465    1.4548375224   -0.0345005550
 C   -0.0622030788   -0.0291633771    0.0253533613
 N   -1.0280157589   -0.8321942710   -0.3160438754
 C   -0.4779359359   -2.0602839735   -0.0401182937
 O   -1.1399406502   -3.1976342916   -0.2457894388
 N    0.7392018932   -2.0490350300    0.4384875249
 O    1.0188108860   -0.6654882593    0.4816708106
 H    0.7828866745    1.7962322560   -0.6792406042
 H   -0.9811750021    1.8199692042   -0.4266680651
 H    0.1350403111    1.8754158174    0.9615115754
 H   -2.0064421824   -2.9605577075   -0.5983073502