14

 N   -0.0135042956    1.4470998059    0.1462931187
 C    0.0315049841    0.0548487451    0.0369847661
 C   -1.0220048250   -0.8290480145   -0.0663059602
 O   -0.5784110935   -2.1637034938   -0.0618968852
 C    0.7368884972   -2.0489982401    0.0480167438
 C    1.1806258376   -0.7878570199    0.1233782957
 O    2.5661880944   -0.7756590857   -0.0018602140
 C    2.8791272991   -2.1604019826    0.2132256903
 O    1.7178991935   -2.9709602058   -0.1275735138
 H    0.7867547940    1.8986533569   -0.2767987553
 H   -0.8648421995    1.8462646935   -0.2260925426
 H   -2.0884626707   -0.7047591212   -0.0059405169
 H    3.7118872345   -2.4534147332   -0.4262712211
 H    3.0976825900   -2.3214278746    1.2795671446