17

 O   -0.0708302051    1.3319687257   -0.0977837277
 C    0.0031596964   -0.0672270179    0.0288320353
 C    0.6879430137   -0.6903422181   -1.2081660532
 N    0.0036444165   -0.1877224787   -2.3967937151
 C    0.7278878452   -0.3540750474   -3.6515005048
 C    0.0815425465    0.4650642103   -4.7593067385
 O    0.0848648360    0.1516176579   -5.9188356446
 C    0.7494025547   -0.4111903038    1.2483419784
 N    1.3364993632   -0.7247820165    2.1919050385
 H   -0.2053247534    1.4737254539   -1.0488957718
 H   -1.0042427385   -0.5084260483    0.1329195585
 H    1.7252069890   -0.3424970318   -1.2395141363
 H    0.7019911165   -1.7868739323   -1.1218490421
 H   -0.9128181074   -0.6205071424   -2.4717506535
 H    1.7418950811    0.0488867490   -3.5157012435
 H    0.8366682774   -1.3937102195   -3.9935878025
 H   -0.3923618018    1.4060710999   -4.3985328872