19

 C   -0.1014318071    1.5006172771   -0.0306458686
 C    0.0235015427   -0.0299214306    0.0425740022
 C    0.7547282097   -0.4774794160    1.3090871092
 N   -1.2651915775   -0.7232942679   -0.0253711092
 C   -2.0042305238   -0.6899345248   -1.2006626539
 C   -1.6343633243   -0.3997741702   -2.4830500911
 O   -2.6802624916   -0.5864865027   -3.3240099956
 N   -3.7761027714   -0.9987194286   -2.5983140898
 C   -3.3758885121   -1.0603275449   -1.3528391358
 H    0.8860794484    1.9716513191   -0.0695073211
 H   -0.6622702364    1.8108273441   -0.9164336064
 H   -0.6232021275    1.8856310303    0.8532784051
 H    0.6001930880   -0.3774888194   -0.8247354812
 H    0.1979426155   -0.1760164430    2.2051194829
 H    0.8695385033   -1.5641527470    1.3289774891
 H    1.7449403018   -0.0170345436    1.3677807655
 H   -1.8301832715   -0.5782297257    0.8011724915
 H   -0.7172001085   -0.0722682815   -2.9422159823
 H   -4.0721666378   -1.3705451447   -0.5857350006