19

 C    0.0928105164    1.5992353579   -0.1102567829
 C    0.0359467939    0.0625229619   -0.0135534334
 C   -1.3453927802   -0.5007269274    0.0515554269
 C   -2.1351436066   -0.8682646708    1.1257978748
 N   -1.8162193596   -0.8561500462    2.4899040913
 N   -3.3175075824   -1.3524091876    0.6665062909
 N   -3.3129286079   -1.3111790981   -0.6410827407
 N   -2.1369521446   -0.7868902652   -1.0235889447
 C   -1.8535668524   -0.6293549993   -2.4333008466
 H    1.1300532842    1.9478931889   -0.1240654087
 H   -0.3963979395    1.9621198203   -1.0196681795
 H   -0.4113835373    2.0653124417    0.7418508681
 H    0.5793025171   -0.3741625232   -0.8605880534
 H    0.5652800618   -0.2640028032    0.8887139031
 H   -1.5620444616    0.0630561026    2.8308093525
 H   -2.6060914748   -1.1975871091    3.0254984712
 H   -1.7063090216    0.4237952256   -2.6907366328
 H   -0.9601410379   -1.1936627594   -2.7173735812
 H   -2.7144909971   -1.0186863894   -2.9764638549