14

 N   -0.0212467698    1.4120693221    0.1532638058
 C   -0.0333187600    0.0296329673    0.0567212151
 C   -1.1718328026   -0.7382931556    0.0265384521
 O   -2.3759212903   -0.1160916941    0.0245468036
 N   -1.1924156961   -2.0982876277   -0.0052030677
 C   -0.0458273055   -2.7032658427   -0.0166243060
 N    1.1357371017   -2.0374673100   -0.0065148421
 C    1.2470762823   -0.6365294218    0.0157912214
 O    2.3381824977   -0.0822177609   -0.0067608904
 H    0.8686699007    1.8018292631   -0.1292492366
 H   -0.8226071604    1.8757804005   -0.2482803891
 H   -3.0435040981   -0.8135671096   -0.0065980019
 H    0.0021989544   -3.7868307650   -0.0363212113
 H    2.0131194258   -2.5390695355   -0.0325824729