19

 C    0.0111270477    1.5647726951    0.0634681917
 C    0.1964658607    0.0519439241    0.1187632896
 N    0.5356643814   -0.4710123911   -1.2059835046
 C    0.6685865416   -1.9249810055   -1.2614536966
 C    0.8745783638   -2.3641377605   -2.7376102252
 C   -0.2756825899   -2.0223012054   -3.5707754565
 N   -1.1990740790   -1.7328597371   -4.2030644949
 C    1.8099017094   -2.3871284658   -0.4673831175
 C    2.7462188679   -2.7982122457    0.1630200064
 H    0.9165324854    2.0504840295   -0.3109738822
 H   -0.8184793672    1.8382831438   -0.5986491066
 H   -0.2136812399    1.9620556910    1.0574173105
 H    1.0181543175   -0.2002425882    0.7976958819
 H   -0.7120469645   -0.4223589963    0.5340849976
 H   -0.1907818731   -0.1970184253   -1.8631225673
 H   -0.2329269199   -2.4446859251   -0.8839563772
 H    1.7659886996   -1.8667889999   -3.1310631854
 H    1.0423787340   -3.4437650797   -2.7798127084
 H    3.5702085146   -3.1528827477    0.7320901148