16

 C    0.1735194872    1.4903464202    0.1813338226
 C   -0.0917866283    0.0337575589    0.0476020933
 C   -1.2216295836   -0.7221070062    0.1054039210
 C   -0.8224616218   -2.0878215765   -0.1046545925
 C   -1.6905562527   -3.3112190928   -0.1337707517
 O   -1.0652086731   -4.4165602561   -0.7671403231
 C    0.5256707243   -2.0486516644   -0.2761409157
 O    0.9851828969   -0.7679707839   -0.1896077627
 H    0.6306350191    1.9008839906   -0.7261874075
 H   -0.7621816322    2.0229778231    0.3644047323
 H    0.8555695413    1.6995212541    1.0133054136
 H   -2.2230412441   -0.3559924657    0.2751688704
 H   -1.9168347263   -3.6511827085    0.8841821249
 H   -2.6581653678   -3.0695073568   -0.6031032462
 H   -0.8310762004   -4.1360091326   -1.6584852770
 H    1.2672196516   -2.8086637034   -0.4535295418