21

 C   -0.0298669731    1.5764648386   -0.1011727844
 C    1.5132004076    1.5244147270    0.0672951679
 C    1.3811015291    0.0713038617    0.5939844922
 C   -0.0606700528    0.0273614813    0.0157897583
 C    2.4552213867   -1.0004910678    0.2400030263
 C    2.8493342112   -1.3806493503    1.6812274373
 C    1.4909758275   -1.5774996561    2.3889062230
 C    1.4950056266   -0.0555735726    2.1297409767
 O    2.9449920480   -0.0661239889    2.3231054023
 H   -0.5231115248    2.0632132340    0.7446441366
 H   -0.4186008314    2.0151563836   -1.0227111252
 H    2.0326197429    1.5610867979   -0.8953834845
 H    1.9849083229    2.2461615461    0.7396180024
 H   -0.8376460260   -0.4180892159    0.6453052723
 H   -0.0931790498   -0.4603118925   -0.9633505648
 H    2.0535915334   -1.8427607134   -0.3321725000
 H    3.2993581838   -0.5748968720   -0.3088288681
 H    3.7146455861   -2.0218570412    1.8488173788
 H    0.7269349423   -2.2019247119    1.9181934757
 H    1.6077225753   -1.8116935633    3.4473555090
 H    0.9655346348    0.6659102855    2.7539498380