17

 N    0.2436689009    1.2599395577   -0.5094422132
 C    0.0444683618   -0.0622477190    0.0196955502
 C   -0.1492775866   -0.3357656377    1.5343356405
 O   -1.3678792753   -1.0765525008    1.2872329142
 C   -1.3879458626   -0.6901888817   -0.1131363904
 C   -2.5518363562    0.2763049792   -0.3536020490
 O   -3.7659529393   -0.3222604583    0.0298686191
 C   -1.4783197342   -1.8657014047   -0.9847497883
 N   -1.4972850299   -2.7783334308   -1.6933835222
 H   -0.1199691550    1.9822638045    0.1012077959
 H    1.2231598231    1.4541151199   -0.6736326554
 H    0.7861092922   -0.7305229070   -0.4196146513
 H    0.6043220672   -0.9507356117    2.0360152107
 H   -0.3349456905    0.5685303144    2.1297353676
 H   -2.3572053400    1.2021643343    0.2092503876
 H   -2.6236253454    0.5349359013   -1.4128351563
 H   -3.6369366504   -0.6529904897    0.9280771404