22

 C   -0.0056959989    1.5843794223    0.0536287928
 C    0.0341554146    0.0545720385    0.0135969602
 C    0.6427296006   -0.4895948236   -1.2819966876
 C    0.7086701488   -2.0158359781   -1.3399008145
 C    1.3258362110   -2.5298699441   -2.6479539460
 O    2.6789805593   -2.1346662152   -2.7620919230
 O    1.5270082442   -2.4538583552   -0.2479281596
 C    1.2425304337   -3.7555818329    0.2204306765
 H    1.0014861199    2.0078189573   -0.0288640104
 H   -0.6011585251    1.9901901344   -0.7721771239
 H   -0.4435283518    1.9477505156    0.9886857028
 H    0.6123680071   -0.3264834208    0.8615961065
 H   -0.9839267717   -0.3416083708    0.1317556434
 H    0.0566253162   -0.1445614529   -2.1439322290
 H    1.6561206574   -0.0964084342   -1.4211505805
 H   -0.3051316154   -2.4341354878   -1.2273060685
 H    1.2268545319   -3.6268248837   -2.7001600587
 H    0.7880547180   -2.1148524152   -3.5072753947
 H    3.0653214634   -2.2958858768   -1.8915426803
 H    0.2054675469   -3.8342354530    0.5786780164
 H    1.4012882250   -4.5267021386   -0.5468680912
 H    1.9199830250   -3.9520997050    1.0553007093