16

 C    0.0179919505    1.5951636392   -0.0366751004
 C    0.0801913310    0.0784777125    0.0340755587
 N    0.6855712999   -0.6286992487   -1.1250718993
 C   -0.2061306391   -1.2540321235   -2.0781647086
 C    1.5073036544   -1.5118859841   -0.2682111930
 C    1.1538992718   -0.5913686280    0.9082904814
 O    1.5606426336   -0.4299386006    2.0190209634
 H    0.9952109946    2.0072803574   -0.3014514017
 H   -0.7082731694    1.9226945848   -0.7874382803
 H   -0.2852929986    2.0037650393    0.9321861535
 H   -0.9090656320   -0.3353013940    0.3070469652
 H   -0.8134454749   -0.4905919861   -2.5747080574
 H    0.3741963271   -1.7701990941   -2.8495810958
 H   -0.8909971131   -1.9902351570   -1.6146304057
 H    1.0910218340   -2.5235544504   -0.1205277919
 H    2.5618492600   -1.6003599468   -0.5499508078