25

 C   -0.0875830608    1.5684928017    0.0072198829
 C    0.1456798045    0.0566824051   -0.0864243788
 C    0.7035354907   -0.5421874923    1.2027724119
 C   -0.2076950467   -0.6284297239    2.4766020218
 C    0.0889754317   -2.1326025655    2.5724378955
 C    0.3120130821   -2.8798990953    3.8562416820
 C   -0.3812473069   -2.7921655411    1.3028025410
 C    0.9399711978   -2.0614620262    1.2930077979
 C    2.2370425149   -2.7356853735    0.9427172291
 H    0.8454689366    2.1000179936    0.2264412652
 H   -0.4870092400    1.9702584240   -0.9293405397
 H   -0.7995209641    1.8121576547    0.8034320244
 H   -0.7954912935   -0.4415672039   -0.3501661459
 H    0.8421155305   -0.1551779875   -0.9088865410
 H    1.6325296601   -0.0180742148    1.4605137961
 H    0.1836923558   -0.0512050767    3.3185248620
 H   -1.2628640721   -0.3635693142    2.3378811991
 H   -0.6256153577   -3.0056464293    4.4123150125
 H    0.7173463519   -3.8804204948    3.6705041703
 H    1.0142710108   -2.3515127588    4.5119945794
 H   -0.2970545184   -3.8754436894    1.2874035654
 H   -1.2496902779   -2.4159608636    0.7655612046
 H    2.3950854157   -2.7632788460   -0.1427656213
 H    3.0924060715   -2.2119113300    1.3863051805
 H    2.2593506435   -3.7710465622    1.2995492352