15

 O   -0.0264531197    1.3872821153   -0.2157559390
 C    0.0295239239   -0.0013253212    0.0854121887
 C   -1.3831538081   -0.5439957672    0.0075277317
 C   -2.0821920122   -0.5954731372   -1.4016860461
 C   -2.2140877233   -2.1133578539   -1.2253335067
 O   -0.8903773647   -2.6375070687   -1.0543303494
 C   -1.5486044474   -2.0731218354    0.0869190572
 H    0.8745070800    1.7185325644   -0.2706385502
 H    0.6615246113   -0.5456588112   -0.6299178740
 H    0.4387388666   -0.1745296613    1.0949604398
 H   -2.0210465522   -0.0332463112    0.7348505086
 H   -3.0386500367   -0.0688692879   -1.4128937780
 H   -1.4799056105   -0.2771101637   -2.2553429148
 H   -2.9640745041   -2.7924895535   -1.6138294549
 H   -1.6529777829   -2.7076726873    0.9599231970