16

 C    0.0515538121    1.3448993494   -0.2385747011
 C    1.5216151225    1.5147319503    0.2073708669
 C    1.3286600304    0.1177857709    0.7815574063
 O   -0.0044635669   -0.0050568958    0.2916514576
 C    2.1820896423   -1.1222142406    0.8259209620
 C    3.5604345418   -0.7495526621    1.3526252175
 O    2.9879272832   -0.0555728891    2.4984381424
 C    1.6734225035   -0.4616275536    2.1091666870
 H   -0.6705979623    2.0009820210    0.2596846801
 H   -0.1304174064    1.3571865102   -1.3180777544
 H    2.2446693327    1.5882677771   -0.6074945493
 H    1.7169550961    2.2969973151    0.9415935707
 H    1.8901659809   -2.0406869247    0.3346286200
 H    4.1556543912   -1.6080093130    1.6842881362
 H    4.1805563491   -0.0882804837    0.7349534569
 H    0.9652823199   -0.7647002115    2.8724230412