21

 C   -0.3551125693    1.5689902763    0.1172849850
 C   -0.4570678072    0.0807753886   -0.2027738633
 O    0.8525463054   -0.4764635193   -0.4346178248
 C   -1.2220785579   -0.7070604994    0.8723409234
 C   -1.3539649524   -2.1801961691    0.5347091928
 O   -0.1510665851   -2.8955320200    0.5089447575
 C   -2.5305495744   -2.9743659132    1.0374735287
 C   -2.4238951705   -2.6162242347   -0.4337855453
 O   -3.2578843743   -1.6267928052   -0.9713958562
 H    0.2171656608    2.0873925818   -0.6569305916
 H   -1.3482016933    2.0243375007    0.1799325971
 H    0.1453191318    1.7283448079    1.0810767703
 H   -0.9748419218   -0.0531021313   -1.1580315932
 H    1.3870494831   -0.2910902226    0.3469694812
 H   -0.7102306187   -0.6047330734    1.8398402305
 H   -2.2168498991   -0.2654243337    0.9766364393
 H    0.4509082960   -2.3697241553   -0.0406514125
 H   -2.3450624847   -4.0036147631    1.3236747678
 H   -3.2774481595   -2.4508107642    1.6252938034
 H   -2.1453083327   -3.4179353882   -1.1164446914
 H   -4.1510219463   -1.9835923827   -1.0225935086