15

 O    0.5662041599    0.3490333097    0.9397990777
 C    0.6602504361    1.5181858604    0.7260398131
 O    0.5923986802    2.0329682060   -0.5214660935
 C    0.7613948761    3.4572260333   -0.6387803993
 C    2.1604362665    3.8590354429   -0.6542230980
 C    3.3187289541    4.1889016207   -0.6523637317
 C    4.7094178043    4.5519478512   -0.6664372450
 C    5.1421229534    5.9614856372   -0.5771529646
 O    5.2651778518    5.0949041864    0.5414868940
 H    0.7981459829    2.2914793261    1.5062618580
 H    0.2664991639    3.7245441833   -1.5761831328
 H    0.2274928555    3.9673713577    0.1737980852
 H    5.3663999480    3.8510798380   -1.1797243600
 H    6.0750850067    6.2561376133   -1.0554959827
 H    4.3870406806    6.7401728437   -0.4894629203