18

 C    0.3663996620    1.0407742590   -0.7137913711
 C   -0.0686228236    0.0957997599    0.4048809674
 O    0.0140034037    0.7296453085    1.6873408647
 C   -1.4321858578   -0.5068643992    0.2117777655
 C   -2.3034986566   -0.3588414884   -0.7837009957
 C   -3.5377373570   -1.1721214569   -0.5171406131
 O   -3.3206143670   -1.7790122332    0.7526739059
 C   -2.0259241045   -1.4402445390    1.2403431862
 H    1.3505654241    1.4543803631   -0.4808011624
 H    0.4246137721    0.5189572676   -1.6738052766
 H   -0.3398225319    1.8720020847   -0.8208934698
 H    0.6619281213   -0.7218284768    0.4773001864
 H   -0.6339601569    1.4436623327    1.6942129297
 H   -2.1748765514    0.2367336965   -1.6784742962
 H   -4.4510530572   -0.5566578082   -0.4845908036
 H   -3.7013037931   -1.9456383647   -1.2859343485
 H   -1.4151346621   -2.3500459772    1.3658360299
 H   -2.1071076040   -0.9704710886    2.2302989010