14

 C    0.1925403226    1.4362368444    0.0791239627
 C   -0.0706975671   -0.0815056313   -0.0269753018
 C   -1.5616619192   -0.4209890458   -0.0465038084
 C    0.6300754034   -0.6423097254   -1.2503239514
 O    0.0900904590   -1.1628678384   -2.1927018890
 C    2.1096026465   -0.5131029087   -1.2352362042
 N    3.2620542777   -0.4199433861   -1.2120659383
 H    1.2617423052    1.6647566468    0.0920432309
 H   -0.2646473505    1.9678512899   -0.7614259905
 H   -0.2469417059    1.8200669274    1.0034282851
 H    0.4115144746   -0.5596162547    0.8386461433
 H   -2.0543890850    0.0411595095   -0.9063408132
 H   -1.7246296415   -1.4994028541   -0.1130252449
 H   -2.0402771599   -0.0521582436    0.8647494098