19

 C   -0.2710260026    1.5015832688    0.0633942121
 C    0.0336337408    0.0103163154   -0.0260178488
 C   -1.1774624756   -0.8746424114   -0.2074139640
 C   -1.2665001975   -1.8334030888    0.7154362100
 C   -0.1350535101   -1.7941917927    1.7154445272
 C    0.8228468022   -0.7461657017    1.1177577074
 C    1.8485385949   -1.2763394926    0.0681731338
 C    1.1766906920   -0.3878310653   -0.9904264273
 O    1.4673757051   -0.0492723351   -2.1009218663
 H    0.6367290081    2.0800311100    0.2634268018
 H   -0.6907327750    1.8623208419   -0.8811422199
 H   -0.9940145413    1.7071791482    0.8592033047
 H   -1.8808414875   -0.7114455988   -1.0169409763
 H   -2.0656321705   -2.5652875748    0.7693189060
 H   -0.4983432675   -1.5154032179    2.7136329495
 H    0.3550933768   -2.7697052011    1.8326063120
 H    1.2802833300   -0.0939583056    1.8628761940
 H    2.9022629669   -1.0430844614    0.2432444086
 H    1.7637744307   -2.3466076072   -0.1467410247