17

 C   -0.0811783105    1.5007894684    0.0112604470
 C    0.0581838149   -0.0164103225   -0.0043448658
 N    0.6627160624   -0.4645037957   -1.2595374645
 C    0.8168675348   -1.8161754656   -1.4624521946
 N    0.3183734398   -2.7602143761   -0.7094792561
 O    0.6776147017   -3.9464676315   -1.3207428112
 N    1.4063415365   -3.7176184759   -2.4663273923
 C    1.5043385985   -2.4235099092   -2.5682981441
 N    2.2195089247   -1.7458490648   -3.5454283690
 H    0.8970247691    1.9912734340   -0.0574841304
 H   -0.6953781482    1.8468364134   -0.8251511179
 H   -0.5486850945    1.8289953284    0.9433834057
 H    0.6408002333   -0.3620218693    0.8626906937
 H   -0.9225416789   -0.4957477808    0.0725826329
 H    1.4854933419    0.0621192890   -1.5273408245
 H    2.5653446101   -2.3671603327   -4.2662705390
 H    1.6933865242   -0.9837541990   -3.9569125098