18

 C   -0.6182678929    1.5440679368    0.1978575837
 C   -0.1240726161    0.1120387216    0.1518940346
 C    0.8304020433   -0.4169885703   -0.9654085671
 O    1.5676367863    0.5076566805   -1.7376626056
 C    1.6683618986   -1.0115105538    0.1574329118
 C    2.1697098313    0.0438458115    1.0625335339
 C    2.7618806344    1.3602595004    0.6340654857
 O    2.2794843432    2.4580107058    0.7320828822
 N    0.7842666055   -0.4062109881    1.2500383956
 H    0.1828713279    2.2725283256    0.0886636922
 H   -1.3671098764    1.7004267798   -0.5882245238
 H   -1.1097872848    1.7279841193    1.1589250336
 H   -0.9881731764   -0.5596866780    0.1905395005
 H    0.3583633413   -1.1748956899   -1.6030790137
 H    0.9506938067    1.0521442168   -2.2384569171
 H    2.0191274001   -2.0366408521    0.2054737162
 H    2.7974042517   -0.3630963527    1.8606677782
 H    3.8089139264    1.2241808168    0.2795685092