21

 C   -0.1581204065    1.5834227689   -0.0068282107
 C    0.0207694842    0.0725482045    0.0137065195
 C    1.1839608859   -0.6389529014   -0.7503933711
 C    2.1622656732   -0.1548642314    0.3583210821
 C    0.8864573984   -0.6495863503    1.1058315872
 C    0.6331699504   -0.6497454190    2.6043061523
 C    1.6333811191   -1.4043879421    3.3516889550
 C    2.4726245567   -2.0305556314    3.9420629870
 C    0.9099262563   -1.8780064005    0.1487324356
 H    0.7727738336    2.1357635961    0.1433445390
 H   -0.5791829975    1.9028532213   -0.9666788368
 H   -0.8597522500    1.8995078404    0.7736941604
 H   -0.9511448647   -0.4124803221   -0.1428984512
 H    1.3579595844   -0.6370835364   -1.8271232522
 H    3.0624984287   -0.7563054794    0.5062732751
 H    2.3974045806    0.9096238690    0.4042079224
 H    0.6099836097    0.3865694505    2.9678522347
 H   -0.3647058894   -1.0644816376    2.8014738210
 H    3.2072350846   -2.5809527209    4.4754250410
 H   -0.0412993471   -2.3972192727   -0.0035705910
 H    1.7367691293   -2.5793572255    0.2829523804