19

 C   -0.0438997659    1.4952075820    0.0483232593
 C    0.0789645658   -0.0084036155    0.0138573685
 O   -0.6533081287   -0.6966858008    1.0683126018
 C    0.7784127650   -0.7307829898    1.0897324325
 C    1.4265396316   -2.0693508129    0.8126319735
 O    1.5100274203   -2.8606433048    1.9920052718
 C    0.7247732831   -2.8319512428   -0.3280205626
 C    0.3354679422   -1.9509928784   -1.4859185315
 C    0.0296945405   -0.6636265620   -1.3250224603
 H    0.7639955708    1.9627371389   -0.5249193784
 H   -0.9951527659    1.8124174294   -0.3929000070
 H   -0.0036848137    1.8630424150    1.0760065326
 H    1.2355130045   -0.1610846687    1.9004110754
 H    2.4692955475   -1.8758786738    0.5305016346
 H    0.6105143672   -2.9720180890    2.3215292198
 H    1.3655630934   -3.6562904701   -0.6543784394
 H   -0.1835837486   -3.2927660398    0.0850027676
 H    0.2681210958   -2.4080517123   -2.4692382945
 H   -0.2738099049   -0.0498925246   -2.1681562837