18

 C   -0.1498699308    1.7754961334    0.3401483092
 C   -0.1420962790    0.2838910514    0.1072816142
 O    0.8090934901   -0.2030384366   -0.8440357945
 C    1.0054254319   -0.5535176228    0.5455746667
 C    2.1631285833   -0.0190508566    1.2069659123
 C    3.1308103354    0.3978312102    1.7858935286
 C   -1.4972348339   -0.3678109011    0.0113973193
 C   -2.1767024898   -0.4416048001   -1.3062435927
 N   -1.6451478572   -1.6591218568   -0.6652150361
 H    0.8649502376    2.1593206884    0.4553117184
 H   -0.6291059799    2.2822790612   -0.5031327415
 H   -0.7187937006    2.0148744573    1.2447170096
 H    0.7979422833   -1.6010883959    0.7617397347
 H    3.9881729449    0.7685509930    2.2917146927
 H   -2.1053874065   -0.2563817550    0.9071095750
 H   -3.2593804783   -0.3825008244   -1.3651572446
 H   -1.6443394895   -0.0472557290   -2.1677200841
 H   -0.7559822009   -1.8787140967   -1.1139849071