17

 N    0.2738766205    1.4191955780   -0.1613557424
 C    0.0633781085    0.0250076049   -0.0346923877
 C   -0.1638771353   -0.8885671015   -1.1961801069
 C   -1.1580687457   -0.9362822898   -0.0637401522
 C   -0.5680840520   -1.7637778947    1.0737682832
 C    0.6686543450   -0.7776561754    1.1279545960
 O    1.9513694817   -1.2883561000    0.8523716903
 C    0.6725890646    0.0009336859    2.3772335116
 N    0.6767668437    0.5914654220    3.3712635841
 H    0.0392563836    1.7688345674   -1.0807523146
 H   -0.2248553987    1.9580476889    0.5380752310
 H   -0.5100314434   -0.3780740731   -2.0905467933
 H    0.5028425195   -1.7241421406   -1.3916923654
 H   -2.2074550659   -0.7101510162   -0.2008067754
 H   -1.1549768455   -1.7577118262    1.9934493129
 H   -0.2813793875   -2.7909631762    0.8270080840
 H    2.2872825970   -1.7344491133    1.6382332548