21

 C    0.0066438723    1.2534501877   -0.2453050222
 O   -0.1506181079   -0.1416610943   -0.0560749570
 C   -1.4712331204   -0.5902796557    0.2091324030
 C   -2.0469452320    0.0320017393    1.4816359514
 O   -2.3475911089   -0.2746540398   -0.8724309214
 C   -2.5636096262   -1.4280786865   -1.6750004705
 C   -2.0078750719   -2.5834491435   -0.8805574386
 C   -2.1390583611   -3.9999410243   -1.3362698427
 C   -1.4080485494   -2.0982823290    0.2016038866
 H    1.0165861802    1.4011728860   -0.6359309491
 H   -0.7181291607    1.6425535567   -0.9696910719
 H   -0.0872020913    1.8179829044    0.6929258155
 H   -2.2277629119    1.1008746315    1.3442770091
 H   -2.9998411625   -0.4430692702    1.7254245131
 H   -1.3546769682   -0.1056178022    2.3170426898
 H   -3.6412228336   -1.5251880115   -1.8694401113
 H   -2.0629042899   -1.3327602817   -2.6521813711
 H   -3.1922705348   -4.2888873960   -1.4410007138
 H   -1.6763578117   -4.1406651379   -2.3211311941
 H   -1.6633391528   -4.6915418676   -0.6367976428
 H   -0.8821089974   -2.6569597554    0.9646721480