19

 O   -0.0962874583    1.4831796016    0.3149938543
 C   -0.0505445665    0.1389329631   -0.0686844599
 C   -0.5070875464   -0.9180989337    0.9011308235
 C   -1.3650526341   -0.5534485888   -0.2979660920
 C   -2.6530341597    0.1810401973   -0.0849089348
 O   -3.1681207169    0.7849641929   -1.3026115754
 C   -4.4202530285    0.0862698267   -1.1879085090
 C   -3.9436697779   -0.6635205573    0.0748961033
 O   -3.7051302779   -2.0454484761   -0.0654439810
 H    0.5975569056    1.6272994375    0.9664971507
 H    0.7611110902   -0.1116669794   -0.7513906994
 H   -0.0175882654   -1.8852975615    0.9136666292
 H   -0.8459722053   -0.5666230168    1.8708013284
 H   -1.3957229950   -1.2743882586   -1.1066827065
 H   -2.5283616293    0.9408487302    0.6943141304
 H   -5.2667134346    0.7713450726   -1.0464054914
 H   -4.6159242529   -0.5653339956   -2.0493462445
 H   -4.5173811610   -0.4486324732    0.9852806955
 H   -4.5525738862   -2.5010194909   -0.0477962213