19

 C   -0.0598840636    1.4704977193    0.1159628119
 C    1.4262108766    1.5802946345   -0.3421552633
 C    1.4244717416    0.0631298867   -0.6645933018
 C    0.0206446070   -0.0804477642    0.0691162974
 C   -0.5401038524   -0.7850050170   -1.2175329096
 O   -1.6743246503   -0.3706155803   -1.9534231613
 C   -1.2047452974   -0.0205746447   -3.2719773518
 C    0.2875681076    0.2524416127   -3.1127748456
 C    0.6528514462   -0.2560449443   -1.9415697096
 H   -0.2722364210    1.8877024422    1.1017444105
 H   -0.7855424359    1.8741448646   -0.5935703933
 H    1.6541785741    2.2580763939   -1.1684574528
 H    2.0942288505    1.8089536582    0.4934090868
 H    2.2973659520   -0.5413556112   -0.4167641938
 H   -0.1005455896   -0.6108928392    1.0141567322
 H   -0.5573915430   -1.8741061825   -1.0508779157
 H   -1.4284140784   -0.8358640556   -3.9797075902
 H   -1.7488587373    0.8696583205   -3.6115822655
 H    0.8488973033    0.8731780564   -3.7998859943