17

 C    0.6708800041    0.2150658782   -0.4951774768
 C   -0.3766841791    0.1727312126    0.6014603276
 O   -0.3377071088    0.9072018961    1.5599723527
 C   -1.5164691893   -0.8423658510    0.4291835306
 C   -1.0642360628   -2.2275245996    0.0778514100
 N   -1.1827178079   -2.6859700944   -1.1689512629
 N   -0.6649167210   -3.9284375303   -1.1236575668
 C   -0.2246888814   -4.2771828702    0.1086128171
 C   -0.4642818847   -3.1930087458    0.9238223991
 H    1.2829356240    1.1107629458   -0.3840687966
 H    1.3102223652   -0.6716271097   -0.4216295820
 H    0.2073813917    0.1822909434   -1.4859856604
 H   -2.0971425557   -0.8315032450    1.3548881339
 H   -2.1584341198   -0.4776198873   -0.3818702493
 H   -0.6615327380   -4.4850351366   -1.9612592320
 H    0.2088347856   -5.2452906519    0.3040444061
 H   -0.2455781322   -3.1067628643    1.9758997097