17

 O   -0.1001218715    1.3995140678   -0.0388323970
 C    0.0423353405    0.0247739923   -0.0037593225
 C   -0.8433112759   -0.8160740179    0.8559693639
 C    0.6589727537   -0.9306402221    1.0274965726
 C    1.2528925948   -1.7857106684   -0.1061641177
 C    0.6354328537   -0.8067331949   -1.1269842993
 C    0.1399497940   -0.9765991716   -2.5063821314
 N    1.4018341627   -0.2415972003   -2.2333530016
 H    0.7794110487    1.7941417592   -0.0508372485
 H   -1.3449812471   -0.2598360350    1.6415654783
 H   -1.4224895896   -1.6363301840    0.4371201949
 H    1.1371792583   -0.7132914146    1.9742619364
 H    2.3443688373   -1.7623774876   -0.1476637730
 H    0.9092316612   -2.8242556736   -0.1526961202
 H    0.2745166159   -1.9219496536   -3.0251495004
 H   -0.7359744573   -0.4087540856   -2.8105106680
 H    1.2132339106    0.7589794098   -2.2891560964