16

 C    0.2451401118    1.4788384406    0.1420266361
 C    0.0678728193    0.0054563761    0.0013825422
 C   -0.0712579383   -0.8161472620   -1.0944857567
 N   -0.2133031415   -2.1044358625   -0.6790596307
 N   -0.1684793352   -2.1363133405    0.6182194333
 N    0.0005324111   -0.8618765099    1.0476751425
 C    0.0847695500   -0.6034711167    2.4777138956
 C    1.3960822264   -0.1258901547    2.9089580747
 C    2.4667218517    0.2770928258    3.2737266377
 H    1.1628097449    1.7238536357    0.6860657122
 H    0.2966455999    1.9407989561   -0.8459407687
 H   -0.5902926678    1.9397651113    0.6822912827
 H   -0.0776644993   -0.5516903607   -2.1400071013
 H   -0.6902087018    0.1181066157    2.7626798594
 H   -0.1580122263   -1.5548981556    2.9592946843
 H    3.4181523953    0.6199337914    3.5992650566