25

 C   -0.0743811327    1.5666481437   -0.0373743108
 C    0.0111184192    0.0382628693   -0.0273717924
 C    0.7198748583   -0.5375060515   -1.2508586058
 C    0.8772575898   -2.0614615950   -1.1967830963
 C    1.4860174872   -2.5902950700   -2.5026783408
 C    0.6999047779   -2.0623763381   -3.7099392624
 C    0.5536307009   -0.5375883670   -3.6335572678
 C   -0.3182297458    0.0391822509   -4.7392575860
 O   -0.0360686570   -0.1545083952   -2.3956200903
 H    0.9241602062    2.0184237592   -0.0289182127
 H   -0.5917212582    1.9147285146   -0.9345669865
 H   -0.6147432615    1.9376934610    0.8388512769
 H    0.5412241746   -0.3056326385    0.8693614396
 H   -0.9970251905   -0.3922860236    0.0168760773
 H    1.7275546506   -0.0850999384   -1.3265546935
 H    1.4996887545   -2.3379559696   -0.3378759829
 H   -0.1130843892   -2.5082966008   -1.0387307423
 H    2.5305326988   -2.2571527539   -2.5767148703
 H    1.5076593646   -3.6854056409   -2.5035283265
 H    1.1937342593   -2.3402816115   -4.6483396895
 H   -0.3041555301   -2.5063010846   -3.7260125922
 H    1.5628568597   -0.0894068944   -3.6965145088
 H   -1.3260401174   -0.3851330536   -4.6900222786
 H   -0.3992128162    1.1246110130   -4.6354831493
 H    0.1059634370   -0.1868889550   -5.7223648581