15

 O   -0.0053065224   -0.0295028274   -0.0861681449
 C   -0.0561622948    1.1537419557   -0.0338514338
 C   -1.2536293730    2.2132751780    0.1943692165
 C   -0.1926888456    2.9632276175    1.0404336143
 C    0.8932170513    4.1142783436    0.9937197404
 O    1.9226984444    3.0274397494    1.0292644265
 C    0.8979760262    2.3702228338    0.1608294936
 C    0.9183090915    3.3209661484   -1.0669328328
 C    0.9243171829    4.5158397410   -0.4797005037
 H   -1.5408617975    2.6905292760   -0.7439606364
 H   -2.1279735804    1.8137834337    0.7099928257
 H   -0.1458634689    2.5109668370    2.0345994848
 H    1.0173548432    4.8441817259    1.7922301269
 H    0.9520510080    3.0246706336   -2.1045480628
 H    0.9672684051    5.5155420338   -0.8850599343