19

 C   -0.0712582941    1.5445445196   -0.1312096279
 C    0.0757258918    0.0455931840    0.0363234098
 C    1.3614981634   -0.7415377918   -0.1755154955
 C    2.5435142331   -0.0442063173    0.4516724507
 O    3.0197496691   -0.8386559362    1.5555064268
 C    1.8877678580    0.0361391987    1.7736351882
 C    1.9751678045    1.0211890769    2.8949337654
 C    0.6640614536   -0.6710791087    1.2133038189
 O   -0.0674492609   -1.6327735097    1.8787179323
 H    0.8041150022    2.0873360993    0.2333667771
 H   -0.2037366866    1.7999425489   -1.1881672224
 H   -0.9478275410    1.9138335503    0.4121756162
 H   -0.7804933279   -0.5133841990   -0.3406148749
 H    1.4147326051   -1.5953052015   -0.8396963458
 H    3.2512148535    0.6496011797    0.0127381152
 H    2.9675282201    1.4776928844    2.9292573684
 H    1.2235600788    1.8083645586    2.7822419342
 H    1.7954993209    0.5253783109    3.8553520571
 H    0.5557331662   -2.2961871571    2.1996574364