17

 C    0.1034215451    0.8943787193   -1.2277102194
 C   -0.0302685481   -0.2886828122   -0.3899656848
 C   -0.1275663971   -1.2636500117    0.3098885515
 C   -0.2836647353   -2.4419008038    1.1522072903
 C   -1.6408518307   -3.1406143734    0.9817612287
 O   -2.3007303564   -3.4754486881    1.9348462917
 C   -2.1011327486   -3.4341949681   -0.4429877815
 C   -2.6243762493   -4.8574918815   -0.5758545034
 O   -2.4057628001   -5.5592467850   -1.5270531337
 H    0.9536531839    0.8036738913   -1.9122643270
 H   -0.7951098305    1.0551957356   -1.8333109987
 H    0.2586341707    1.7927827627   -0.6206051735
 H    0.4899522051   -3.1858584260    0.9067521255
 H   -0.1747482610   -2.2025598148    2.2144124929
 H   -2.9482099408   -2.7621209075   -0.6418982664
 H   -1.3363002984   -3.2377839827   -1.1956942339
 H   -3.2331229285   -5.1982158841    0.2861188817