19

 C   -0.1119041625    1.6418713159    0.0200166952
 C   -0.0611796628    0.1302512360   -0.0015881644
 C   -1.3113726496   -0.5494355766   -0.5154258229
 O   -1.5107675677   -0.1541625316   -1.8646995256
 C    1.2481969512   -0.5612206199   -0.2783748625
 O    2.4026224299    0.1802325187   -0.4917914842
 C    0.6541575970   -0.6304797967    1.1293864098
 C    1.3438279281    0.0675413547    2.1691153342
 C    1.9920651700    0.6464442889    3.0037788363
 H    0.8742121520    2.0684043499    0.2051809381
 H   -0.4656948170    2.0013762334   -0.9495301153
 H   -0.7975699414    2.0019926443    0.7947122401
 H   -1.2000885585   -1.6436070642   -0.4375455639
 H   -2.1687118190   -0.2620759387    0.1146595199
 H   -2.3803371656   -0.4566903160   -2.1421023780
 H    1.2187426283   -1.4790281186   -0.8621772628
 H    2.8413213086    0.3103903007    0.3592080185
 H    0.2160282667   -1.5795237491    1.4262848287
 H    2.5226581821    1.1632426887    3.7648017687