12

 O   -0.0681251405   -0.0325305520    0.0052306261
 C    0.0522296006    1.1531829913    0.0084023625
 O   -1.0620689052    2.0030565145    0.0287573341
 C   -0.7096006994    3.4000514909    0.0302726685
 C    0.7723077597    3.3246394478    0.0088879987
 C    1.2128811566    2.0556574536   -0.0033746622
 N    2.6009639943    2.0412595674   -0.0227877235
 C    2.8983874059    3.2979375792   -0.0205783915
 O    1.8196857511    4.1680141407   -0.0021565679
 H   -1.1467742190    3.8814283598   -0.8517588848
 H   -1.1214524458    3.8731487180    0.9288186494
 H    3.8713980718    3.7628717589   -0.0318907093