18

 O   -0.6351104504    0.5794995879    0.0217731900
 C   -0.1088686628    1.6622201056    0.0530975337
 C    1.3852702280    1.8944434114   -0.0031521630
 C    1.7965168387    2.7776815648   -1.2272013189
 C    2.2126053879    4.1331906950   -0.6768407035
 C    1.2168584916    4.8892483293    0.1672131593
 C    2.2818383903    4.0514090516    0.8300648651
 C    1.9110455025    2.6423723914    1.2665523042
 H   -0.7278180538    2.5873688394    0.1285248244
 H    1.8337421194    0.9012640750   -0.0774340923
 H    2.6417618675    2.3082911414   -1.7400024190
 H    0.9881866356    2.8525034554   -1.9648854707
 H    2.9403890241    4.7058019102   -1.2410678098
 H    1.3285426508    5.9667146506    0.2205417499
 H    0.1832358479    4.5582662649    0.1967746430
 H    3.0610125050    4.5632963656    1.3839297976
 H    1.1739456865    2.6330368016    2.0787945142
 H    2.7972788713    2.1244684287    1.6461477557