19

 C   -0.0598240444    1.5777444236    0.0327463932
 C    0.0413248282    0.0452305549   -0.0181214963
 C    0.7054946371   -0.4401641543   -1.2871602215
 C    1.5176310541   -1.4924564815   -1.3575022388
 C    1.8832613397   -2.3440621700   -0.1677591573
 C    1.0266014470   -2.0141846108    1.0447908530
 O    0.6073070863   -2.8479647902    1.8123454778
 C    0.7506754016   -0.5183692245    1.2263938495
 O    1.9985635748    0.1599211044    1.3758896327
 H    0.9332312200    2.0314457451    0.0394421151
 H   -0.6084760020    1.9514427818   -0.8374510258
 H   -0.5909771576    1.9046405696    0.9323673731
 H   -0.9835896261   -0.3564241308    0.0059866201
 H    0.4790768891    0.1220534766   -2.1902241098
 H    1.9526791309   -1.7810578466   -2.3107461245
 H    1.7853357220   -3.4135972590   -0.3796399966
 H    2.9357614067   -2.1718270941    0.1014677743
 H    0.1184536182   -0.3879163832    2.1142470111
 H    2.3611493542   -0.0781876511    2.2352020008