21

 C   -1.2002602034    1.1331565399   -0.0467791939
 C   -0.1092040003    0.0579512792    0.1516160498
 C    1.1154703072    0.6208842934    0.8801911572
 C   -0.7184709181   -1.1046216989    0.9301580690
 O   -0.7257226799   -1.1565078764    2.1398862627
 C   -1.3257108807   -2.2462064301    0.1210611131
 C   -2.6435791849   -2.8601576761    0.6288177930
 C   -3.1962179940   -2.4434770116   -0.7495242328
 O   -1.9356608684   -1.8333410614   -1.1241771174
 H   -0.7936623132    1.9789217082   -0.6099189837
 H   -2.0504021440    0.7288240579   -0.6003689823
 H   -1.5513636881    1.5054057017    0.9211474206
 H    0.1750014386   -0.3115931489   -0.8407475444
 H    1.5164627494    1.4847095186    0.3413506199
 H    0.8455002788    0.9336173380    1.8920240183
 H    1.9104236016   -0.1265224097    0.9647756675
 H   -0.5192718164   -2.9757587725   -0.0578568734
 H   -2.6224014284   -3.9310229807    0.8301248437
 H   -3.0638842154   -2.3386880905    1.4890022551
 H   -3.4535919315   -3.2702577339   -1.4214147600
 H   -4.0146141988   -1.7150363562   -0.7483185621