21

 C   -0.7345933197    1.2975340332   -0.0174086798
 C    0.1886196465    0.0812192782    0.0081827641
 C    1.1930749989    0.0070232931   -1.1690448525
 C    2.3928920012   -0.7090621788   -0.5906733783
 C    3.4613980230   -1.2423767542   -1.4901225462
 C    2.3259186222   -0.7255054591    0.7581689658
 C    1.0825670539   -0.0292866160    1.2681605303
 C    3.3147970724   -1.2900526595    1.6726200257
 O    3.2192085778   -1.2415091058    2.8825761549
 H   -0.1575890949    2.2288860524    0.0207838896
 H   -1.3438300972    1.3193223445   -0.9274383190
 H   -1.4167378011    1.2942095029    0.8390602682
 H   -0.4275944932   -0.8257908508   -0.0359514525
 H    0.7864522791   -0.4961844746   -2.0546328122
 H    1.4944798690    1.0127566350   -1.5034006879
 H    3.8727419890   -0.4365657068   -2.1115872817
 H    4.2871506210   -1.7115433259   -0.9531331037
 H    3.0408122679   -1.9802963527   -2.1848418133
 H    1.3397249370    0.9628180862    1.6658662015
 H    0.6068216307   -0.5722149483    2.0897191494
 H    4.1882241967   -1.7878729730    1.1989505175