17

 C   -0.2272140855    1.1961397711   -0.3305683196
 C    1.1924751885    1.1020829515    0.1011390095
 N    0.3225740135   -0.0821091144    0.1230603858
 C   -0.0945485077   -0.5451807726    1.3875181352
 C   -1.4783750814   -1.0030541090    1.8528972252
 C   -0.7992299998   -2.0475278981    2.7715088079
 C    0.5474140231   -1.6070341437    2.3222520525
 N   -0.0740723452   -0.9720443101    3.5384063285
 C   -0.7288446595    0.0663924165    2.6286356757
 H   -0.9119649398    1.7239340174    0.3299277209
 H   -0.4836046520    1.2419952255   -1.3844877545
 H    1.9884542254    1.0751114462   -0.6361958538
 H    1.4524141366    1.5516604917    1.0562378387
 H   -2.4211820863   -0.9657061292    1.3259550156
 H   -1.1392228780   -2.9656233396    3.2366402581
 H    1.5187757036   -2.0861631271    2.3492319137
 H   -1.0058103752    1.0670689439    2.9373661507