17

 C    0.0017231693    1.4744615204   -0.0289680981
 C    0.0404623723   -0.0234867251   -0.0871093040
 C    0.5552623722   -0.9729824310   -1.1919460265
 C    0.0654080547   -1.9658558679   -0.1073961996
 C    0.0775493534   -3.3943918365   -0.1088300218
 C    0.0934992634   -4.5974625856   -0.1227509670
 C    0.5040750677   -0.9951024544    1.0518045835
 O   -0.7842073226   -1.0101362979    1.7267228368
 C   -1.1123975508   -1.0081140351    0.3097930011
 H    1.0075439687    1.9007941685   -0.1068081570
 H   -0.6003529965    1.8878626768   -0.8451156489
 H   -0.4365714187    1.8006281375    0.9198507436
 H   -0.0009647305   -0.9798714537   -2.1334952207
 H    1.6318472474   -0.9667312290   -1.3839815541
 H    0.1042308548   -5.6591909306   -0.1275024483
 H    1.4154130999   -1.0078965264    1.6498738229
 H   -2.1597494347   -1.0366817300    0.0087535380