20

 C    0.0970386910    1.3637837909   -0.0623280373
 O   -0.2191221521   -0.0025104006    0.1037246568
 C    0.5491623530   -0.6371917272    1.0901401831
 C    0.2115144829   -2.0608879159    1.4460689067
 C    1.0382726800   -2.9904777223    0.6184437317
 C    1.9079469489   -2.1973690630   -0.3455301003
 C    1.4497868163   -1.8305630382   -1.7515321562
 C    1.9761613257   -1.1824331440    0.8210023111
 N    1.6499931195   -2.3389718835    1.8258715444
 H    1.1231529182    1.5091736625   -0.4309441110
 H   -0.6005834089    1.7717276905   -0.7971085691
 H   -0.0133553118    1.9202993735    0.8811561385
 H    0.5708305724   -0.0278957745    2.0066555771
 H   -0.6073775294   -2.4098188718    2.0641950913
 H    0.8328704625   -4.0557524877    0.6092504054
 H    2.8824147350   -2.6985437252   -0.3870356093
 H    0.4594975189   -1.3750118896   -1.7445302545
 H    2.1488858377   -1.1249562599   -2.2149092242
 H    1.4221054529   -2.7238076477   -2.3854794564
 H    2.8583711873   -0.5665058062    0.9863072123