25

 C   -0.4448655244    1.4062093493   -0.1521784388
 C   -0.0114874069   -0.0340987659    0.0639946380
 O    0.6424845823   -0.4954540502   -1.1154969895
 C    1.3939219537   -1.6747011993   -0.8090770768
 C    2.7104163171   -1.6086185964   -1.5755205951
 C    1.4715404272   -1.7395629606    0.7524336175
 C    2.7904635945   -2.2383440787    1.3430930260
 C    0.9944479336   -0.3303833824    1.1955708081
 C    2.1031534307    0.7207229360    1.3211617147
 H    0.4098922596    2.0465486495   -0.3833764645
 H   -1.1464162495    1.4643067452   -0.9891226135
 H   -0.9450978971    1.7950514638    0.7406248134
 H   -0.9138142238   -0.6464571820    0.2460234877
 H    0.8341471260   -2.5518625041   -1.1706844742
 H    3.3333168651   -0.7740514131   -1.2415726439
 H    3.2805164742   -2.5357689396   -1.4614900723
 H    2.5013453569   -1.4670125236   -2.6397671284
 H    0.6903955681   -2.4394089195    1.0739347551
 H    3.6417364986   -1.6183912987    1.0506310658
 H    2.7440180939   -2.2465489215    2.4373152684
 H    3.0012866884   -3.2627755112    1.0180498810
 H    0.4709449295   -0.4022712944    2.1560545596
 H    2.6137362035    0.8885222272    0.3681091834
 H    1.6940471139    1.6801131051    1.6518659992
 H    2.8535274248    0.4177540750    2.0570581493