22

 C   -0.1609032830    1.4501933854    0.1955210335
 O    0.3306300144    0.1565637487   -0.0774465531
 C    0.7505734091   -0.5326807854    1.0735571446
 C   -0.3016785603   -1.1806870862    2.0382540356
 C    0.4040425855   -2.5285222240    1.8112509721
 N    0.4223807969   -2.9221868447    0.4240218733
 C   -0.6889624841   -2.7118273557   -0.4964330730
 C    1.3806605796   -1.9125872256    0.8184835362
 C    2.8422938503   -2.1405265173    0.5614731810
 H    0.6011731344    2.0763197262    0.6859895934
 H   -0.4306581710    1.9057926880   -0.7602763054
 H   -1.0519446131    1.4263269492    0.8406344804
 H    1.4452490370    0.0974875639    1.6515374507
 H   -0.2204244239   -0.8125332695    3.0632483211
 H   -1.3480099391   -1.1289886860    1.7250572842
 H    0.5869195949   -3.2819245760    2.5709483503
 H   -1.2061296661   -1.7521287783   -0.3958764675
 H   -0.3049178494   -2.7758543648   -1.5189776565
 H   -1.4098794877   -3.5238713065   -0.3542008655
 H    3.1136301555   -1.8158591552   -0.4499832944
 H    3.4633946118   -1.5797172866    1.2684618837
 H    3.0810772083   -3.2033846097    0.6485417752