16

 C   -0.0117579805    1.5483463575   -0.0326604683
 C   -0.0168716750    0.0509886764   -0.0067353751
 C    0.4943540172   -1.0507821825   -0.9099350141
 O    1.1368621376   -1.7750989890    0.1389065917
 C    0.4734844889   -0.9092057386    1.1127871105
 C   -0.7810133299   -1.6378845119    1.5661481168
 O   -1.5330531492   -1.8132878968    0.3570511905
 C   -0.9915384477   -0.9288632981   -0.5955414164
 H    0.9906618483    1.9514419092    0.1496311863
 H   -0.3479734382    1.9214300831   -1.0053257918
 H   -0.6855034708    1.9621566954    0.7270115469
 H    0.9513989299   -1.0544031858   -1.8936800541
 H    1.1514128497   -0.5506272110    1.8890690833
 H   -0.5566405252   -2.6229473259    1.9854821880
 H   -1.3538549697   -1.0491761245    2.3006389706
 H   -1.6882460653   -0.6416899175   -1.3747797047