18

 C    0.2407104319    1.5737910768    0.0524004574
 C   -0.2038297110    0.1204044655   -0.0922251032
 N    0.5358974139   -0.5128150905   -1.1828793256
 C    1.7623626086   -1.2246114499   -0.8833746070
 C    0.5363565644   -1.9759568798   -1.3230788613
 C   -0.1857796134   -2.9045071003   -0.3588596645
 C    0.4647119905   -2.4156480263   -2.7064891396
 N    0.4048908289   -2.7986780969   -3.7956070305
 H    1.3024873590    1.6338671238    0.3124439945
 H    0.0901187385    2.1164289002   -0.8843711581
 H   -0.3298991784    2.0706291664    0.8426540658
 H   -0.0757701690   -0.4008738463    0.8698226050
 H   -1.2686413098    0.0769419322   -0.3464976493
 H    2.5915289571   -1.0718308933   -1.5680342376
 H    2.0425578319   -1.3600504023    0.1617651883
 H   -0.0288041404   -2.6040343842    0.6779906568
 H   -1.2609851850   -2.9180376183   -0.5612257353
 H    0.1901478722   -3.9247164766   -0.4760784457