27

 C   -0.1728804872    1.5760477264    0.0780913457
 C    0.0175900751    0.0588309242    0.0014368115
 C    0.6762770968   -0.5317421150    1.2528396582
 C    0.8744358099   -2.0494688642    1.1830790697
 C    1.5295115797   -2.6395632692    2.4362404840
 C    1.7385503236   -4.1575793240    2.3585390423
 C    2.3842884947   -4.7387659749    3.5988293153
 C    1.5422936053   -5.1195381917    4.7915373636
 C    2.1999301366   -6.1912837701    3.9551832479
 H    0.7871964585    2.0898298270    0.2011778541
 H   -0.6456408153    1.9676658479   -0.8281900413
 H   -0.8050798390    1.8531431739    0.9292770833
 H   -0.9553165073   -0.4252366378   -0.1574823083
 H    0.6254859714   -0.1905475072   -0.8785406380
 H    1.6487335270   -0.0452769738    1.4141647973
 H    0.0671646584   -0.2841880298    2.1337748821
 H   -0.0978984499   -2.5352069959    1.0186737216
 H    1.4855409970   -2.2956571639    0.3031549760
 H    2.4990105722   -2.1498590624    2.6042365961
 H    0.9165842274   -2.4044224105    3.3166754563
 H    0.7707203160   -4.6509987703    2.1925717023
 H    2.3531941485   -4.3945826212    1.4786087988
 H    3.3608882759   -4.3186984634    3.8300654565
 H    1.9297548887   -4.9313712784    5.7868075908
 H    0.4663413359   -5.0027777783    4.7066376687
 H    1.5643316145   -6.7923572460    3.3126553392
 H    3.0388244658   -6.7329269415    4.3784117560