13

 O    0.0015332363    0.0154114306   -0.0061697338
 C   -0.0146399972    1.1990847644    0.0185889205
 O   -1.1449208163    1.9711629679    0.0488145716
 C   -0.7893048924    3.3280300195    0.0544174716
 C    0.7010528887    3.3488125825    0.0343090073
 O    1.0940806241    2.0023867016    0.0186107834
 C   -0.0679246128    3.8525668706   -1.1881926788
 C   -0.0745289436    3.1330271430   -2.4229782733
 C   -0.0799767024    2.5106390852   -3.4509066723
 H   -1.4451644373    3.9502369539    0.6482877568
 H    1.3550921321    3.9892905990    0.6104997600
 H   -0.0840174986    4.9374151397   -1.2595851067
 H   -0.0858697506    1.9588768121   -4.3585685962