19

 C   -0.0645802955    1.4880894380   -0.1986275361
 O    1.1376149249    2.0214757865    0.3592292809
 C    1.8994413535    1.0211726551    1.0185622153
 O    1.8649154030    1.2091873059    2.4166215973
 C    0.5374267543    1.2429307724    2.9240286398
 C   -0.2278090965   -0.0656455560    2.6586086644
 C    0.0658053636   -0.6905241342    1.3031394853
 C    0.0041843841   -0.0216841234   -0.0560382589
 C    1.3360502529   -0.3289778684    0.5770523750
 H   -0.9317232850    1.9361418095    0.3058629928
 H   -0.1123660361    1.7682567055   -1.2582099751
 H    2.9509923944    1.1506284147    0.7498504290
 H    0.6329526248    1.4111943229    3.9995151141
 H    0.0066726715    2.1033355788    2.4994502144
 H    0.0660683650   -0.8014915592    3.4163712042
 H   -1.3025268227    0.1085733651    2.7918145676
 H   -0.1993500626   -1.7438409049    1.2584298596
 H   -0.3711442513   -0.6167155186   -0.8808345282
 H    2.0216269977   -1.0806654997    0.2062342686