19

 C   -0.7176735005    1.2326690547   -0.0432015697
 C    0.0889830639   -0.0454607489    0.0328370342
 O    1.2608546909   -0.0320469460   -0.8324829247
 C    2.1114717104   -0.5676198248    0.2185580893
 C    2.8565043294   -1.8113691749   -0.1739735141
 C    0.9505561607   -0.3918796403    1.2635259707
 C    1.7020900535    0.7927702424    1.9281921152
 C    2.8378965466    0.6244900259    0.8945423034
 O    3.8801441856    1.1764820814    0.7020225656
 H   -0.1142152748    2.1094731679    0.2044722088
 H   -1.1030786102    1.3678479161   -1.0586634747
 H   -1.5719451286    1.1861437981    0.6408512313
 H   -0.5484298208   -0.8981288002   -0.2428264495
 H    3.5573100334   -1.5784530947   -0.9821697264
 H    3.4316194764   -2.2056445272    0.6699751229
 H    2.1676032314   -2.5851349184   -0.5254178416
 H    0.6048968364   -1.1882265210    1.9198123721
 H    1.2120651872    1.7682731214    1.9676447674
 H    2.0611772392    0.5540299284    2.9351060398