19

 C    0.3472473862    1.5325002444    0.0610688347
 C   -0.0038666029    0.0708858459   -0.0287604527
 C   -0.0571537331   -0.5345945547   -1.2257412497
 C   -0.4831916894   -1.9028060616   -1.5942136421
 O   -0.6851333966   -2.1456167478   -2.7778141772
 C   -0.6598393773   -3.0079566327   -0.6198153513
 C   -0.3004507426   -3.0691232579    0.6663214494
 C    0.2889808702   -1.9769367967    1.5146938418
 C   -0.3188438534   -0.5852382020    1.2976627749
 H    1.2477138273    1.6785352980    0.6716144772
 H    0.5175582991    1.9764205758   -0.9218806924
 H   -0.4553482825    2.0915341540    0.5598951276
 H    0.1554672446    0.0549616771   -2.1141547461
 H   -1.0647799048   -3.8953158098   -1.0986570329
 H   -0.4315273290   -4.0258489259    1.1686955174
 H    0.1616674694   -2.2481318047    2.5683378892
 H    1.3753568053   -1.9313671976    1.3490212178
 H    0.0302903970    0.0715155809    2.1019233354
 H   -1.4098977375   -0.6479439546    1.4153729489