19

 C   -0.0181023096    1.5301847672   -0.0464095493
 C    1.4085038535    2.0931928512    0.0124646468
 C    2.0728627376    1.7260893125    1.3491970987
 C    1.8679693159    0.2796196423    1.6798016452
 N    2.5447366092   -0.4364638508    2.5541281303
 C    1.9690155553   -1.6849802055    2.5285271484
 C    0.9360193765   -1.7219427459    1.6313016816
 N    0.8711062200   -0.4536586600    1.0920549991
 C   -0.0037998977    0.0007357640    0.0185211794
 H   -0.6031166776    1.9270523498    0.7925940307
 H   -0.5257028890    1.8370683910   -0.9662048927
 H    1.9948882024    1.6840009551   -0.8203860201
 H    1.3951883761    3.1800283524   -0.1136164904
 H    3.1451636596    1.9407015341    1.3375960171
 H    1.6451283097    2.3451719531    2.1502302981
 H    2.3290520230   -2.4839252914    3.1591920975
 H    0.2570514201   -2.5010757201    1.3252565778
 H   -1.0102734522   -0.3940379202    0.1905252416
 H    0.3504849273   -0.4114276489   -0.9359185699