17

 O    0.0313232267   -0.0096143610    0.1373165788
 C   -0.0219232145    1.1926119047    0.0670194648
 C   -1.2262144631    2.1384911204   -0.0337289678
 N   -0.6897731675    3.4963632372   -0.0883942261
 C    0.5872580547    3.3875912581   -0.0321737667
 N    1.0547612267    2.0743374363    0.0590198960
 C    1.5427625754    4.5108119805   -0.0571568907
 C    1.1982081377    5.7354136201   -0.8878336657
 C    1.1392040413    5.8187952154    0.6021421786
 H   -1.8181404897    1.9050715082   -0.9263305593
 H   -1.8882849681    2.0032225490    0.8293482062
 H    2.0168816462    1.7822693695    0.1158496145
 H    2.5884639082    4.2290149683   -0.0000414666
 H    2.0123847539    6.2260864939   -1.4088331650
 H    0.2584771656    5.6871386217   -1.4248529761
 H    0.1598394077    5.8265350596    1.0653912219
 H    1.9119126590    6.3680800582    1.1277828431