22

 C   -0.1213751809    1.5915353119   -0.0921796278
 C   -0.0959338417    0.0618835523   -0.1309273017
 C    0.8743259624   -0.5005498978   -1.1788742665
 O    2.2115564424   -0.0493794453   -0.9649242656
 C    0.8122671018   -2.0056027831   -1.2500238714
 C    1.4296728650   -2.9987628742   -0.2437669889
 C    1.6941326792   -3.9849103397   -1.4308539765
 C    1.0664025902   -2.9595773964   -2.3840864390
 N   -0.2948865308   -2.6207665545   -1.9741595233
 H    0.8794892977    1.9931402535    0.0877021759
 H   -0.4738361614    2.0000769227   -1.0455654976
 H   -0.7870171193    1.9573711351    0.6953491306
 H    0.1842369504   -0.3347269301    0.8570280346
 H   -1.0955196844   -0.3321604303   -0.3475567927
 H    0.5957792449   -0.1116136994   -2.1652818905
 H    2.4430065002   -0.2481269445   -0.0510399813
 H    2.3641066764   -2.6419786170    0.1972002206
 H    0.7690906920   -3.3394956595    0.5607987180
 H    2.7606893715   -4.1435394580   -1.6051425818
 H    1.1970936478   -4.9602030831   -1.3908507572
 H    1.3500519126   -2.7663203525   -3.4125895512
 H   -0.7481740563   -3.3705717101   -1.4538319167