15

 C    0.1185403467    1.6413538408   -0.2035165348
 C   -0.0190037972    0.1269547171   -0.1069552570
 C   -1.3647116763   -0.3646763120   -0.5885621824
 O   -1.9947563602   -1.2428999034   -0.0558102081
 C    1.2367220207   -0.7028634038   -0.5845679260
 O    1.9477204150   -0.2482958435    0.6307772983
 C    0.5834908373   -0.5630357837    1.1532430061
 C    0.7716266694   -1.8710296005    0.3370653962
 O    0.7932590583   -3.0486343415    0.4360295985
 H    1.1198815506    1.9504798755    0.0982496661
 H   -0.0598533636    1.9807816491   -1.2292542686
 H   -0.6109800622    2.1392469520    0.4434221928
 H   -1.7464033376    0.1480817686   -1.5002744876
 H    1.7720840155   -0.6617389201   -1.5313185426
 H    0.3877852737   -0.3760737846    2.2063521893