20

 O    0.2067684324   -0.0195242849    0.6357170152
 C    0.1611888041    1.1815041780    0.4569941179
 N    1.1590204643    1.9139526982   -0.0783479769
 C    2.4914759969    1.5127738838   -0.5245700727
 C    2.7671264284    3.0062010278   -0.8965069600
 C    1.3447203098    3.3427176177   -0.3370637315
 C    3.9354498746    3.6728431568   -0.2273879477
 C    5.2857022332    3.6992277834   -0.9006765913
 C    4.4860365635    4.9710392729   -0.7659281690
 H   -0.7192466646    1.8074473212    0.7142247098
 H    3.1193648774    1.1128618781    0.2795386951
 H    2.4852751240    0.7981807978   -1.3533547465
 H    2.8223154620    3.1543572141   -1.9781436840
 H    0.6381415841    3.7700153428   -1.0569242405
 H    1.3509582374    3.9643868924    0.5664886346
 H    3.9477467637    3.5643454390    0.8551223215
 H    6.1696227960    3.5772897335   -0.2850541757
 H    5.3687192958    3.2554712959   -1.8874295565
 H    4.0324772411    5.3807877472   -1.6626200967
 H    4.8229420259    5.7203172844   -0.0585367152