19

 C    0.3467244628    1.4104300672   -0.0561126632
 N    0.1504771830   -0.0283587328   -0.0047398367
 C    0.0588252877   -0.6468807673    1.3029690388
 C   -0.0435910387   -0.7091968473   -1.1849053922
 O    0.0918961034   -0.1926758712   -2.2844301892
 N   -0.3761380488   -2.0522904196   -1.0482019998
 C   -0.6990020190   -2.8310224035   -2.2245305013
 C    0.1701060318   -4.0714972637   -2.3380946755
 O   -0.2004106163   -5.1213782111   -2.7928463481
 H    1.2734222202    1.6923823824    0.4582442263
 H    0.4116885511    1.7063950850   -1.1014902751
 H   -0.4869231854    1.9435941456    0.4199977023
 H   -0.9763911570   -0.7453961491    1.6649295855
 H    0.5302905377   -1.6341195552    1.3044361754
 H    0.6003994794   -0.0294063712    2.0240831771
 H   -0.7669467760   -2.3660001828   -0.1764645969
 H   -1.7536700343   -3.1254578031   -2.2680779759
 H   -0.4900140815   -2.1857153924   -3.0874981349
 H    1.2081897600   -3.9216572398   -1.9610611865