17

 N    0.0677115480   -1.1784362771    0.0089882684
 C   -0.0061880046   -0.0220924578    0.0084396655
 C   -0.0482034119    1.4072995509    0.0082408314
 C   -1.2294764107    2.0439743677    0.0263734203
 C   -1.3647463722    3.5391025983    0.0577507142
 C   -0.0422451434    4.2444724682    0.3908546302
 C    1.1213221948    3.6113686408   -0.3809540243
 C    1.2860119865    2.1309851722   -0.0128140915
 H   -2.1444029405    1.4581753817    0.0175471993
 H   -1.7441202650    3.8774010973   -0.9185189493
 H   -2.1438461922    3.8150373536    0.7792005851
 H   -0.1206628485    5.3127695751    0.1665743522
 H    0.1507360535    4.1607811991    1.4678623776
 H    0.9310808022    3.6972991653   -1.4583902866
 H    2.0550894295    4.1464180891   -0.1817147483
 H    1.7612609058    2.0306902972    0.9725018853
 H    1.9572612686    1.6301974284   -0.7188328196