16

 N    0.0110570633   -1.0855996345   -0.0715146934
 C   -0.0061321790    0.0708377247   -0.0409207811
 C    0.0017387723    1.4979331005   -0.0083882440
 O   -1.0754181616    2.1965238007    0.6099150497
 C   -0.8046868065    3.3485541971   -0.2701442298
 C   -0.0012739589    4.3588419386    0.5380983114
 C    1.2620732638    3.5461546925    0.9473835961
 C    1.2688683079    2.3573114666   -0.0149441110
 C    0.2188536687    2.5257241139   -1.0857405123
 H   -1.7172546209    3.6972763632   -0.7531907805
 H    0.2596667534    5.2186442389   -0.0896186047
 H   -0.5674986997    4.7236565235    1.3987476581
 H    2.1785027826    4.1318520075    0.8387713779
 H    1.2038434131    3.2143948017    1.9870606702
 H    2.1900314756    1.8417510931   -0.2601125364
 H    0.3290416859    2.4228163920   -2.1552077101