14

 N    0.0281361791    1.1640263378    0.4423462264
 C   -0.0244234623    0.0380329608   -0.3079513644
 O    0.8590028466   -0.3243691130   -1.0565394385
 C   -1.3044173658   -0.8235590946   -0.1768778376
 C   -0.9140779086   -2.3001329692    0.1203716346
 O   -2.0209052351   -3.1639411088    0.0599473404
 C   -2.2589470850   -0.3388178089    0.8147899581
 N   -2.9893048714    0.0385154685    1.6290661340
 H    0.8506012515    1.7410114319    0.3724435784
 H   -0.7164718033    1.4392117629    1.0604250733
 H   -1.7914239553   -0.8115902267   -1.1584372836
 H   -0.2129145488   -2.6037347771   -0.6579606103
 H   -0.3971112590   -2.3487870278    1.0889174136
 H   -2.5785581827   -3.0057347757    0.8296232955