15

 C   -0.0236993446    1.5463723984    0.0153014461
 C    0.0912484497    0.0406575219    0.0896747442
 C    1.3525312764   -0.7358335677   -0.1418355467
 O    2.4866479213    0.0032620468    0.3976182415
 C    1.9719536485   -0.1177384619    1.6885464382
 N    2.4911880222    0.1166250512    2.8041853674
 C    0.6920244059   -0.7506578482    1.2404944840
 O   -0.0642906384   -1.6447904203    1.9488861325
 H    0.9068496140    2.0278539179    0.3235271054
 H   -0.2431300390    1.8628234476   -1.0096289085
 H   -0.8296288349    1.9067143946    0.6615215579
 H   -0.7732246239   -0.5082111679   -0.2846514385
 H    1.5649305379   -1.4928697563   -0.8837571563
 H    3.4374802133    0.4884431384    2.7070284901
 H    0.5312596815   -2.1887807446    2.4785847927