16

 N   -0.1656748247    1.3093008758    0.0110905520
 C   -0.0662609651   -0.0344609016    0.2227510242
 O    0.7721107354   -0.5835068745    0.8958925279
 O   -1.0875420343   -0.6772926978   -0.4127034116
 C   -1.0662135995   -2.0906635237   -0.2896136161
 C   -1.5746240159   -2.7818853350    0.9991232976
 C   -3.0106649384   -2.2848578814    0.7017387858
 C   -2.3861381929   -2.8212086671   -0.6097708291
 O   -1.8383855603   -3.9684363962    0.1488130113
 H    0.6288270538    1.8642900031    0.2779426930
 H   -0.7571696694    1.6470582761   -0.7285763304
 H   -0.1626096479   -2.5245709249   -0.7164547627
 H   -1.0595009865   -2.9378974538    1.9444382056
 H   -3.8042285798   -2.9066769168    1.1165642075
 H   -3.2116675446   -1.2152403572    0.7745561036
 H   -2.8470632399   -3.0265182151   -1.5755818987