15

 C    0.1635395653    1.5514179754   -0.0073004330
 O    1.5594893818    1.4401822103    0.3367829027
 C    1.4896759770   -0.0040420768    0.4250090202
 C   -0.0384649168    0.0206365862    0.0452766187
 N    0.3365939675   -0.6993357332   -1.1838212461
 C    0.1837677631   -1.0019335215   -2.5153859703
 C    1.4809456336   -1.2413573693   -2.9376371801
 N    2.4182689166   -1.0243111159   -1.9411932967
 C    1.6702682066   -0.7039124136   -0.9135493162
 H   -0.3900167613    2.0902693601    0.7699964495
 H   -0.0032978207    2.0225826415   -0.9813044597
 H    1.9342320530   -0.3938526715    1.3399444381
 H   -0.8605180047   -0.4025416602    0.6191029655
 H   -0.7656090219   -1.0939698518   -3.0148468705
 H    1.7876669709   -1.5827329694   -3.9157199722