20

 C   -0.0193178522    1.6551773562    0.0416660119
 C    0.0571658826    0.1372862841   -0.1407825524
 O    1.0243604306   -0.4286215039    0.7315966862
 C   -1.2980951235   -0.5659859343    0.0362279109
 C   -2.4084988648   -0.0358874286   -0.8517866854
 C   -1.2258103673   -2.1089201712    0.1724604689
 C   -1.6747451182   -1.8608852327    1.5925591834
 N   -1.9500041835   -2.5860425068    2.5772987678
 O   -1.6957179568   -0.4829551668    1.4675111928
 H    0.9914391504    2.0693893924    0.0178054769
 H   -0.6060579365    2.1358905576   -0.7457438236
 H   -0.4743522360    1.9027525918    1.0069730069
 H    0.4156906011   -0.0941610156   -1.1518549599
 H    0.7214969929   -0.2585392237    1.6318646280
 H   -2.1234935026   -0.1151908729   -1.9065527172
 H   -3.3257250528   -0.6118528048   -0.7015768777
 H   -2.6272473087    1.0117807689   -0.6320620270
 H   -1.9254133666   -2.6756416131   -0.4436258035
 H   -0.2228744344   -2.5279432438    0.0977754575
 H   -2.2266075737   -2.0244111226    3.3847007556