22

 C   -0.0424741306    1.5385609538   -0.0285192929
 C   -0.1076561663    0.0727577582    0.4113591145
 C   -1.4232165281   -0.5755398563    0.0160718645
 O   -1.6265918531   -0.5934739774   -1.4213587994
 C   -1.7436658954   -2.0286254666   -1.4434125396
 C   -1.5509109092   -2.1241506022    0.0823322927
 N   -0.3630261534   -2.8445154758    0.4932903843
 C   -0.3189003441   -3.2876858377    1.8847305362
 C   -0.5456964545   -4.2647966197    0.7861911566
 H    0.9224122749    1.9850617702    0.2295388881
 H   -0.1774354493    1.6169273042   -1.1108851399
 H   -0.8265934769    2.1354032090    0.4513189090
 H    0.7141834437   -0.4985663451   -0.0300177097
 H    0.0028038856   -0.0034533695    1.5011604642
 H   -2.2603880948   -0.0555689387    0.5051423262
 H   -2.7182425952   -2.3567493680   -1.8253063624
 H   -0.9441262118   -2.5033309453   -2.0245281794
 H   -2.4488402671   -2.4623505769    0.6238749363
 H    0.6494449918   -3.2173641829    2.3710233725
 H   -1.1688982306   -3.0515837852    2.5232659692
 H   -1.5472404516   -4.6814368871    0.6905904890
 H    0.2539840262   -4.9207853711    0.4554225102