25

 C   -0.4364691019    0.9199115930   -1.6249791588
 C    0.0058139681   -0.2629736614   -0.7881422382
 C    1.4612195150   -0.6042108080   -0.5396419691
 C    2.6101389234    0.2055821970   -1.1047713435
 C    0.5899418442   -0.1201658548    0.6073584107
 C    0.7839081312    1.2058240663    1.2926125010
 C   -0.3648353886    1.7619799241    2.1880145385
 C    0.7083769707    2.2607359620    3.1920491971
 C    1.7152238887    1.2753314514    2.5410001785
 H    0.2064682905    1.7941089828   -1.5000675037
 H   -0.4355018982    0.6647053430   -2.6908382797
 H   -1.4552251770    1.2248730740   -1.3605156184
 H   -0.6433069806   -1.1265896664   -0.9155475616
 H    1.6761677582   -1.6704260607   -0.5195231360
 H    2.4067941407    1.2786813098   -1.1222182316
 H    3.5199255226    0.0565407781   -0.5124246051
 H    2.8332157302   -0.1003313427   -2.1332882416
 H    0.2879763807   -0.8988186857    1.3068505626
 H    1.0856594003    1.9799652507    0.5815075381
 H   -1.0451308048    2.4965045203    1.7491091324
 H   -0.9617412133    0.9464820681    2.6101123739
 H    0.9839225305    3.3029940676    3.0052293192
 H    0.5004675679    2.1455870378    4.2584619652
 H    1.7357206527    0.3153912301    3.0678702160
 H    2.7453025388    1.6096928338    2.3923165142