18

 C    0.1667566171    1.0053052033    0.3926876341
 O   -0.1199149631   -0.0586298001   -0.4965083059
 C   -1.3608916029   -0.6324736742   -0.2797645417
 C   -1.5375730501   -2.0635186040   -0.7056525970
 C   -0.2823417621   -2.8778963158   -0.9676827209
 C    0.4851962163   -2.8802679500    0.3649251221
 O    1.6022268743   -3.2945895784    0.5674730833
 N   -0.3406664337   -2.3042410725    1.3086555740
 C   -1.5302970945   -1.7164087836    0.7777897607
 H    1.1617138494    1.3758652572    0.1383253607
 H   -0.5602497831    1.8237399227    0.2853042475
 H    0.1620642945    0.6696843016    1.4387341813
 H   -2.2116645856    0.0362163228   -0.4266066293
 H   -2.4596694850   -2.3395702900   -1.2016578390
 H   -0.5183336778   -3.9069186780   -1.2546089096
 H    0.3632877111   -2.4539176976   -1.7398972968
 H    0.0542363310   -2.0294411327    2.1946485584
 H   -2.4217414660   -1.7654577506    1.3935089180