18

 O    0.0122809399    1.2903165469   -0.3155387338
 C    0.0425963515   -0.1141642652   -0.1027291493
 C   -1.3965195820   -0.5694235674    0.0501345831
 C   -2.3148251084   -0.5074048313   -1.2135332398
 C   -2.6439685654   -2.0191553020   -1.0435785030
 N   -2.0467156345   -2.8940180252   -2.0627247864
 C   -0.9658176976   -3.3201541777   -1.5569757646
 O   -0.6029821663   -2.9525689376   -0.2972162443
 C   -1.6687427801   -2.0905070472    0.1716599133
 H    0.9069218590    1.5842838279   -0.5096848320
 H    0.5152080223   -0.6363255623   -0.9471609461
 H    0.6144779163   -0.3734817577    0.8027504193
 H   -1.8379881253   -0.0339843756    0.8963627843
 H   -3.1673829342    0.1690743245   -1.1302635173
 H   -1.7860780356   -0.2909073977   -2.1442025880
 H   -3.6952572854   -2.2684080978   -0.8883714247
 H   -0.2607571070   -3.9856606055   -2.0430152444
 H   -1.9962507973   -2.4660964190    1.1424811937