18

 C    0.1784408014    1.4765225602   -0.4429321709
 C    1.2262081361    2.2556778872    0.3905963153
 N    2.2700248575    1.4748502269    1.0599162809
 C    2.2029483662    0.2183861307    0.9397938098
 N    2.9864704749   -0.7066386132    1.6386064458
 C    2.2931302284   -1.9151379082    1.6050381562
 N    1.2757417470   -1.9737676894    0.8327473411
 C    1.2090256568   -0.6529931980    0.1813634591
 C   -0.1272867511    0.0817342689    0.1324066914
 H   -0.7353692132    2.0756670623   -0.5117736292
 H    0.5453766335    1.3523038678   -1.4696833526
 H    1.7104067930    3.0099673137   -0.2413552788
 H    0.7187603353    2.8223136011    1.1836126117
 H    3.5842599325   -0.4231921057    2.3995395108
 H    2.6478546143   -2.7452151018    2.2077777751
 H    1.5646373135   -0.7873738876   -0.8517970807
 H   -0.5456417511    0.1556289052    1.1430804839
 H   -0.8523877652   -0.4543145102   -0.4862268288