15

 C   -0.0134177504    1.4803431850    0.0357002018
 C    0.0054289151    0.0262312523    0.0089646212
 C    0.0354197903   -1.1766753602   -0.0118280632
 C    0.0032659907   -2.6529866787   -0.0372776750
 N   -1.3604152152   -3.2230948471   -0.1213064202
 C    0.7920859495   -3.1522294438   -1.1774043040
 C    1.4180106335   -3.5471678891   -2.1209809584
 C    0.6105487216   -3.1584182060    1.2253434978
 N    1.0706872960   -3.5302055152    2.2165406752
 H    0.5777878251    1.8959630138   -0.7870070142
 H   -1.0346275191    1.8650812848   -0.0565085505
 H    0.4042060178    1.8590803448    0.9744240227
 H   -1.9264606523   -2.8018237004    0.6117733116
 H   -1.7612256647   -2.9305123179   -1.0088445563
 H    1.9793740923   -3.9006335922   -2.9510186186