19

 C    0.0024288255    1.5827534601    0.0286263605
 C    0.0147554008    0.0531072745   -0.0130363008
 C    0.6979932625   -0.4988229387   -1.2701689972
 C    0.6022388518   -2.0274250296   -1.3104985285
 C    0.9720102656   -2.7231332332   -0.0042340723
 O    1.2817621799   -3.8999221811    0.0379890013
 N    0.8772756585   -1.9652014311    1.1322778096
 C    0.7176522749   -0.5199282352    1.2215491828
 H    1.0213752586    1.9858041918    0.0018559770
 H   -0.5397025463    1.9917511200   -0.8294206166
 H   -0.4806097628    1.9559407365    0.9380003561
 H   -1.0234713849   -0.3078481440   -0.0049571067
 H    0.2473600300   -0.0692377485   -2.1717735993
 H    1.7517112160   -0.1869892835   -1.2702160598
 H   -0.4271333603   -2.3323903120   -1.5402758467
 H    1.2310232818   -2.4617182971   -2.0914876950
 H    1.1582421905   -2.4620980880    1.9658208144
 H    1.6978404045   -0.0281464898    1.3344558017
 H    0.1414672535   -0.2872499111    2.1247896296