18

 O   -0.0862476768    1.3877624215    0.0088147611
 C   -0.0125971652    0.0021290689    0.0226238779
 C    0.3213178540   -0.8210694123    1.3120297146
 C   -0.4316604773   -1.9356085325    0.5203113586
 C   -1.3404122305   -0.7918665915   -0.0358462643
 C    0.5315662785   -2.1881862490   -0.6730856767
 C    0.8450904169   -0.7077424495   -1.0469190200
 C   -0.9871727649   -3.0918532929    1.1821477498
 N   -1.4279946429   -4.0219153439    1.7096729825
 H    0.8043146946    1.7452113103   -0.0751979711
 H    1.3675184521   -1.0077050800    1.5691306820
 H   -0.2405321934   -0.4722069814    2.1792963767
 H   -2.0653384594   -0.4419101220    0.7000731148
 H   -1.8132606812   -0.9478982632   -1.0084417227
 H    1.4145021262   -2.7520927088   -0.3640368967
 H    0.0390959295   -2.7378764967   -1.4781613114
 H    0.5253435195   -0.4438831331   -2.0583112456
 H    1.9079791403   -0.4638952339   -0.9478428995