17

 C    0.5224077359    1.5431156796   -0.2746698176
 C    0.0476985795    0.1240678370    0.0491333684
 N    0.2797987289   -0.8174900103   -1.0358429577
 C    1.3904219088   -1.6134526154   -0.9114936923
 O    1.8300627285   -2.3643859923   -1.7497295457
 C    1.9630036656   -1.3523281491    0.4865156255
 C    0.8317015273   -0.5861750583    1.2074647757
 C    1.2828646565    0.3124908835    2.2623309249
 N    1.6430305537    1.0218115164    3.1007960417
 H    1.5947834308    1.5643236426   -0.4920225892
 H   -0.0078060246    1.9228504357   -1.1534145172
 H    0.3261397932    2.2200323443    0.5610477100
 H   -1.0176826159    0.1508561675    0.3014582056
 H   -0.1682727020   -0.7243307853   -1.9346837588
 H    2.2384879831   -2.2848216037    0.9794639670
 H    2.8693895516   -0.7476591491    0.3863078880
 H    0.1542232491   -1.3166663530    1.6619947817