17

 C    0.0900447735    1.3040010950    0.2750588321
 O   -0.3306697192    0.0312331976   -0.1718254038
 C    0.4485020071   -0.4760226354   -1.1960087993
 C    1.7277040976   -1.3109756947   -0.8515825532
 O    0.8574596245   -2.3572328457   -0.2844131291
 C    0.1976376515   -1.9578329097   -1.5429627805
 C    1.5992559357   -2.0230216816   -2.2381965528
 C    1.8786461266   -1.3466649705   -3.4856630622
 C    2.1218565509   -0.7993511395   -4.5288001278
 H    1.0912394661    1.2680256134    0.7283814752
 H    0.1064212167    2.0369281585   -0.5461018494
 H   -0.6273012971    1.6323686147    1.0298759154
 H    0.5434393773    0.2231488052   -2.0370734179
 H    2.6349594092   -1.0493469721   -0.3074997743
 H   -0.7269459822   -2.4629858561   -1.8204887792
 H    2.0074102907   -3.0340755531   -2.1991734639
 H    2.3346677413   -0.3155548360   -5.4500175192