10

 N    0.0028207465    1.3192828914    0.0081774083
 C   -0.0522669076   -0.0169633631    0.0010049774
 N   -1.1833946850   -0.6529904883    0.0038428789
 C   -1.1316190326   -2.0167646544   -0.0040430860
 O   -2.0448009253   -2.7806442366   -0.0033557564
 O    0.1774366792   -2.6064322805   -0.0146412442
 N    1.3256857962   -1.8430348548   -0.0169032710
 N    1.2357731626   -0.6043505031   -0.0095371023
 H    0.8958564252    1.7810721249    0.0057294072
 H   -0.8525255891    1.8491215144    0.0159793680