14

 O   -0.0562089663    1.4641308457    0.0990652833
 C    0.0262465403    0.0516862475    0.0135584336
 C   -1.3948621867   -0.4890163339   -0.0850768213
 C   -1.4354119373   -2.0220081744   -0.1767255582
 C   -2.8521340225   -2.5493927240   -0.1476428813
 O   -3.3328529693   -3.2888495125   -0.9662734474
 H    0.8370582733    1.8186602233    0.1301373339
 H    0.6058746511   -0.2648786628   -0.8686881338
 H    0.5231833753   -0.3766981550    0.9000976039
 H   -1.9576767703   -0.1470899660    0.7919773961
 H   -1.8785308183   -0.0453742773   -0.9625243055
 H   -0.9450455255   -2.3926870744   -1.0817474637
 H   -0.9123643412   -2.4504495745    0.6919197171
 H   -3.4523934626   -2.1904082617    0.7221886233