15

 O   -0.2280290304    1.3600214640    0.0590806929
 N   -0.0513405996   -0.0342419798    0.1512881271
 C   -1.1680335778   -0.6325533926    0.1382915866
 C   -1.5160588696   -2.0663465958    0.0805187139
 C   -2.8739463824   -2.2023799034    0.7112804431
 C   -3.3389916017   -0.8278251793    1.1880926729
 O   -3.0227368138   -0.3186685172    2.4462642800
 C   -2.6235687546   -0.3048831199   -0.0869620169
 N   -2.7797979793   -1.7442563655   -0.7080727621
 H    0.6809605818    1.6772859177    0.0295887121
 H   -0.8871324229   -2.9151747215   -0.1528347699
 H   -3.2777672183   -3.1779638185    0.9592578786
 H   -4.4228764467   -0.7467917514    1.0759817748
 H   -2.0627304478   -0.3103018155    2.5392125438
 H   -2.9408330268    0.5793788088   -0.6308631266