19

 O    0.0491653651    1.4135361424    0.2466926412
 C    0.0494681383    0.0179971595    0.1041801155
 C   -0.3945412183   -0.7649968299    1.3216978175
 C   -1.2459732688   -0.7225252709    0.0873360085
 C   -2.6737859961   -0.2392844411   -0.1389884637
 C   -2.6692700070   -0.7383655972   -1.6314830348
 C   -3.9811532814   -1.5256855758   -1.4500425368
 C   -3.2339643323   -1.7096345821   -0.1148465435
 C   -1.8324190740   -1.7977004219   -0.8229956696
 H   -0.2459601204    1.7938526671   -0.5871507963
 H    0.8882784544   -0.3845463264   -0.4666110409
 H    0.1452560560   -1.6727209884    1.5727947990
 H   -0.7128265344   -0.1719479689    2.1732805966
 H   -3.1748372457    0.6491448804    0.2468658288
 H   -2.3159203219   -0.1716587956   -2.4950669304
 H   -4.9065628147   -0.9414356075   -1.4204653024
 H   -4.1106524235   -2.4185507321   -2.0702290512
 H   -3.5318963166   -2.2613955769    0.7776568317
 H   -1.3674364387   -2.6984490647   -1.2265662392