21

 C   -0.0547025003    1.4229937980    0.2968869562
 C   -0.0852478381    0.0012303172   -0.2740923969
 C   -1.4630339497   -0.6166976666   -0.2002074297
 C   -1.6237198482   -2.0820477728   -0.0615099423
 N   -1.8284452823   -1.1505164598    1.1266646174
 C   -3.3057247096   -1.4621239770    1.0668133576
 C   -3.0851878331   -2.4619212894   -0.0720926878
 C   -3.9261878115   -2.9330078243   -1.1932726582
 N   -3.6260643940   -3.8134840078   -0.0408148263
 H    0.9530198898    1.8464565166    0.2501074318
 H   -0.7220764491    2.0892493466   -0.2612026140
 H   -0.3778669493    1.4200825003    1.3418034963
 H    0.2472927333    0.0049100962   -1.3200911937
 H    0.6143248625   -0.6354077557    0.2793622256
 H   -2.2386961774   -0.0758272562   -0.7459542632
 H   -0.7867281297   -2.7745903955   -0.1101140022
 H   -3.6315505225   -1.9464068332    1.9896589595
 H   -3.9309590461   -0.5855189274    0.8655132187
 H   -4.9655797138   -2.6240725427   -1.2672972712
 H   -3.4425776174   -3.1307315740   -2.1471181443
 H   -2.9079709234   -4.4892368827   -0.2933068333