19

 C    0.9052039482    1.3776604891   -1.0640122934
 C    0.0681086437    0.1076970961   -0.8426461196
 C    0.8832221948   -1.1344145395   -0.5271497672
 O    0.6671839714   -1.8184435361    0.4442855939
 C    2.0417820438   -1.5174264288   -1.4705048516
 C    1.6321780700   -1.6810293843   -2.9209215053
 O    1.0728086367   -0.8440678103   -3.5881461164
 O    1.9767171418   -2.8947635113   -3.3836798391
 C    1.6375161844   -3.1482351126   -4.7552698089
 H    1.5655247315    1.5793618854   -0.2139996622
 H    1.5084634677    1.2958591158   -1.9712051594
 H    0.2454246922    2.2414955570   -1.1833097201
 H   -0.6353088007    0.2326463246   -0.0155396077
 H   -0.5053077620   -0.0931735566   -1.7548539787
 H    2.7816944966   -0.7084382269   -1.4418914754
 H    2.4982323577   -2.4297239837   -1.0902510691
 H    1.9900644091   -4.1579422320   -4.9637745762
 H    0.5568484395   -3.0803661655   -4.9014715564
 H    2.1278402337   -2.4256905603   -5.4120930973