14

 C   -0.1469508482    1.4108234311   -0.0378105303
 N   -0.0354709452   -0.0351937307    0.0281185306
 N   -0.1261269319   -0.7374017165   -1.1210848960
 C   -0.0085939686   -1.9917868376   -0.6865174884
 O   -0.0453689184   -3.0148416342   -1.5429467171
 N    0.1472945724   -2.1404225037    0.6400587365
 C    0.1252503743   -0.8809824822    1.0795552753
 C    0.2555215341   -0.4574334772    2.4833641318
 O    0.3936135018   -1.2238995955    3.4038178235
 H    0.0829708222    1.8467665068    0.9329168490
 H    0.5581651040    1.7863324333   -0.7817479817
 H   -1.1604389882    1.6931987639   -0.3343079906
 H    0.0586784246   -3.8200342931   -1.0205694388
 H    0.2168856170    0.6395502156    2.6483792262