21

 C    0.0224506230    1.4281835235    0.7132454113
 O   -0.1237520583    0.0564062583    0.9914127463
 C    0.7848652552   -0.7519128720    0.2751255056
 C    0.5305003984   -2.2250270603    0.6374284269
 C   -0.8837809365   -2.6525085536    0.2310110275
 O    1.4970788124   -3.0031685330   -0.0923441586
 C    2.3328557745   -3.7372133163    0.7987767316
 C    1.8576368186   -3.3666082745    2.1753324864
 C    0.8451591770   -2.5138408034    2.0859763125
 H   -0.1461260051    1.6478528050   -0.3528322958
 H   -0.7215518474    1.9652717294    1.3067998286
 H    1.0254321735    1.7948343032    0.9831016055
 H    0.6594905563   -0.6173635196   -0.8121550656
 H    1.8254639066   -0.4939722578    0.5278279588
 H   -1.0007328295   -2.5630366105   -0.8534758692
 H   -1.0639034723   -3.6926041048    0.5149175025
 H   -1.6273156883   -2.0140298787    0.7145011878
 H    2.2410529844   -4.8164817375    0.5976733015
 H    3.3876996401   -3.4685046268    0.6305264964
 H    2.3020822748   -3.7601949881    3.0810221555
 H    0.2933628524   -2.0571712823    2.8962975745