12

 C   -0.0313130781    1.3806513912    0.0409397330
 O    0.0242792496   -0.0530064783   -0.0314838170
 C    0.6363858620   -0.5430346216   -1.1055712215
 O    1.1326797848    0.1006229752   -1.9941537113
 C    0.6394408461   -2.0862413873   -1.0826500927
 O    0.1403634432   -2.7207525415   -0.1860078402
 C    1.2892832903   -2.6898540300   -2.2233347685
 C    1.8184908900   -3.2438193090   -3.1512291765
 H    0.9777828310    1.7993139508    0.0629199823
 H   -0.5641455894    1.7845046811   -0.8232935800
 H   -0.5634771084    1.6078207505    0.9636260259
 H    2.2895172890   -3.7231916311   -3.9751403137