25

 C   -1.8580160037    1.6865371269   -1.2518378276
 C   -1.8292886053    0.1615448972   -1.3602550844
 O   -0.8715610115   -0.2661393003   -2.3311481989
 C   -1.5911018493   -0.5083192077    0.0001367091
 C   -1.5951991393   -2.0491349287   -0.0296939586
 C   -0.8675761233   -2.6092138659    1.2019416156
 C   -3.0388132050   -2.5930458192   -0.1573756004
 C   -3.1122282750   -4.0943189252   -0.4421292744
 O   -3.8405440268   -2.2434127458    0.9729159260
 H   -2.0026006406    2.1351360157   -2.2384663862
 H   -2.6658330732    2.0217802856   -0.5935404039
 H   -0.9139381275    2.0648849912   -0.8388622095
 H   -2.7884457502   -0.1742759914   -1.7719365331
 H   -0.0079425000    0.0500311365   -2.0420438083
 H   -0.6219229763   -0.1541537725    0.3817841989
 H   -2.3497594767   -0.1658049051    0.7137930296
 H   -1.0516133864   -2.3633219436   -0.9290605491
 H    0.1642491781   -2.2461476588    1.2368335025
 H   -1.3520004942   -2.2854462728    2.1310125338
 H   -0.8264717849   -3.7028021617    1.2027100266
 H   -3.5219553705   -2.0728116404   -0.9923374641
 H   -2.6879948708   -4.6830011481    0.3794038573
 H   -4.1544387643   -4.3997817807   -0.5694750895
 H   -2.5618865773   -4.3495142037   -1.3534013698
 H   -3.5539007959   -2.7870455014    1.7142440482