17

 C   -0.0089933085    1.4076408298    0.1250589243
 N    0.0774998278   -0.0311130721    0.0222026675
 C    0.5767373410   -0.5824609923   -1.0084769973
 C    1.1559730210   -0.0395371835   -2.2682239301
 C    1.5449757056   -1.0624121285   -3.0349975778
 C    1.2448436279   -2.3456044738   -2.3256085243
 O    1.4505763443   -3.4800113150   -2.6975276915
 N    0.6654134498   -1.9721444714   -1.1187165155
 C    0.2169166153   -2.9067950218   -0.1097576689
 H    0.5306231905    1.7342665570    1.0218635290
 H    0.3809586811    1.9710369297   -0.7332763922
 H   -1.0574265245    1.6922365036    0.2729863184
 H    1.2324781159    1.0139446754   -2.4899786028
 H    2.0055768357   -1.0430892607   -4.0121535517
 H    0.4225759635   -3.9098492582   -0.4861564186
 H    0.7487743302   -2.7461066580    0.8322514262
 H   -0.8544147767   -2.7917284302    0.0774393254