20

 C   -0.1378220602    1.5103239672    0.0028950604
 C    0.0832287256   -0.0133960892    0.0077954572
 C    0.7759192856   -0.5133617804    1.2367163184
 N    2.0773947059   -0.7432742276    1.3089448341
 C    2.3214678782   -1.1428322013    2.5966129113
 N    3.6310317164   -1.4069475670    3.0113236750
 C    1.1554942417   -1.1611424625    3.3210518693
 N    0.1650338543   -0.7572046288    2.4311702142
 C   -1.2319571668   -0.6038009592    2.7744329795
 H    0.8164890964    2.0332047586    0.1110319642
 H   -0.6028521162    1.8322957976   -0.9342420471
 H   -0.7870391796    1.8262185651    0.8260751304
 H   -0.8751948373   -0.5274813569   -0.1349038503
 H    0.7168297440   -0.2920351480   -0.8383745974
 H    4.2200922570   -1.5995407670    2.2110892012
 H    3.6972894059   -2.1605941832    3.6822793950
 H    0.9283344925   -1.4132421639    4.3430753280
 H   -1.3942596344    0.2717136348    3.4137064059
 H   -1.8255655942   -0.4844976352    1.8675664039
 H   -1.5898140348   -1.4915122131    3.3052380870