17

 C    0.0734519773    1.4651799160   -0.2166372216
 C    0.1409084148   -0.0372964069   -0.4098164978
 O    1.1218448326   -0.6061552870   -0.8150224776
 C   -1.1548528363   -0.7925272313   -0.0654782225
 N   -1.0192617699   -2.2249427708   -0.0382622998
 C   -0.7510221955   -3.0602724319   -1.1032139367
 C   -0.7154049671   -4.3238227326   -0.5791142849
 N   -0.9502776298   -4.2945449727    0.7774593935
 C   -1.1238384685   -3.0279827795    1.0651100029
 H    0.9519619885    1.9335235838   -0.6609841076
 H   -0.8385596119    1.8818396213   -0.6575134342
 H    0.0459618762    1.6974277323    0.8546963191
 H   -1.5203582221   -0.4552519984    0.9100759911
 H   -1.9167567795   -0.4898396093   -0.7975991937
 H   -0.5950205250   -2.6756538903   -2.0966217109
 H   -0.5318008825   -5.2519662338   -1.0984355169
 H   -1.3388888715   -2.6193061189    2.0422413076