19

 C    0.3560737950    1.3987639222   -0.4680036589
 N   -0.1357329559    0.1182672398    0.0374507089
 C    0.5351533791   -0.2759715608    1.2813080781
 C    1.9644751378   -0.5180379622    1.0995302506
 C    3.1419890004   -0.7169719639    0.9675756731
 C   -1.5891815800    0.1148163806    0.1695172464
 C   -2.3310413197   -0.0760742161   -1.1627853163
 N   -1.5999625392   -0.7167921628   -2.1104719915
 O   -3.4832481522    0.2820980096   -1.3056057041
 H    1.4362529593    1.3434926654   -0.6195707016
 H   -0.1190146812    1.6191687305   -1.4271513579
 H    0.1412420507    2.2332251819    0.2237362808
 H    0.3994388145    0.4788369531    2.0799071676
 H    0.0629652525   -1.1970691367    1.6425289902
 H    4.1821522014   -0.8974995593    0.8515636982
 H   -1.8860728991   -0.7266967582    0.8063797178
 H   -1.9930656480    1.0269916729    0.6365246150
 H   -0.6442322373   -0.9635406571   -1.9092411315
 H   -2.0142665482   -0.9110454588   -3.0060315148