21

 C    0.0891802641    1.5142222251   -0.1601551591
 C    0.2409753370    0.0145370041   -0.0646911685
 N    1.6016446058   -0.5204104672    0.0914430279
 C    0.6259624969   -0.7330617732    1.1720844916
 C    0.9332909206   -0.0349466891    2.4823730192
 C    0.0591757850   -2.1489504846    1.3334417745
 C    1.1790096601   -3.1678418703    1.5312453480
 N    1.3334657833   -3.6552683792    2.7948459264
 O    1.8996680166   -3.5058667024    0.6084929079
 H    0.7914219071    2.0317130775    0.4964822727
 H    0.2878244006    1.8489524851   -1.1842075482
 H   -0.9285460031    1.8242278859    0.1023204025
 H   -0.4267129261   -0.5323649097   -0.7317617774
 H    1.7425357410   -1.3883570263   -0.4214871664
 H    1.4265794072    0.9227295844    2.3122760073
 H    0.0190753990    0.1401378005    3.0620118432
 H    1.6086749180   -0.6459502502    3.0925284807
 H   -0.6642567871   -2.1730627672    2.1561008537
 H   -0.4625902802   -2.4485503142    0.4206742614
 H    0.7647794481   -3.3494454489    3.5637970307
 H    2.0992819462   -4.2841499000    2.9754442718