17

 N    0.0183479039   -1.2359804111    0.2500260973
 C   -0.0171638013   -0.0873303070    0.1318598190
 C   -0.0554912487    1.3644666427   -0.0378931911
 C    1.3388475051    1.9935649241   -0.0240595771
 C    1.4976858175    3.5048234977    0.1182636281
 C    1.2601180925    3.3903241837    1.6566155398
 C    2.5614410024    4.1056375347    2.0259294551
 C    2.8799942269    3.2544759530    0.7961077793
 N    2.0278559795    2.0700675180    1.3351473925
 H   -0.5446867671    1.5872325869   -0.9940203915
 H   -0.6854171209    1.7945913840    0.7477379984
 H    1.9766670859    1.5087912411   -0.7720051957
 H    1.2107186020    4.3203430329   -0.5544786129
 H    0.3124991956    3.3689163871    2.1959206077
 H    2.5829934274    5.1901833657    1.8968593952
 H    3.0321585353    3.7945588619    2.9616266128
 H    3.8310738840    3.0577710545    0.2988696830