14

 C   -0.0589004265    1.8234466214    0.1032191205
 C   -0.0320033685    0.3004300702   -0.0298526181
 O    0.6042849332   -0.0140177801   -1.2826152051
 C    0.1846290294   -1.1247635560   -1.9363294633
 O    0.6674824087   -1.4753395920   -2.9664556339
 C    0.6848703456   -0.3420725744    1.0715377026
 C    1.2683075044   -0.8686081560    1.9879871352
 C    1.9279733593   -1.4625774438    3.0262408286
 N    2.4851054661   -1.9666064748    3.9116818697
 H    0.9581965698    2.2201152839    0.0890043642
 H   -0.6187283100    2.2483129771   -0.7328950455
 H   -0.5394743757    2.1105304283    1.0413756003
 H   -1.0613000129   -0.0852974383   -0.0436249427
 H   -0.6449487629   -1.6433723654   -1.4183307426