21

 C   -0.1754850333    1.5705803959   -0.0493498114
 C    0.0423634249    0.0585854100   -0.0100553425
 C    0.8080910373   -0.5217766728   -1.2274691425
 C    1.4145226648   -1.8277194010   -0.7214104516
 C    2.5912921300   -1.7148749984    0.2274870971
 O    3.0679243708   -0.4243792606    0.5231797028
 C    2.1695740261    0.1545382863    1.4778312601
 C    0.8007261647   -0.5028801187    1.2238944210
 C    1.2205028503   -1.9224629423    0.7878187717
 H    0.7692093169    2.1172702789   -0.1345316478
 H   -0.7890242406    1.8500127895   -0.9124874134
 H   -0.6911412362    1.9257378212    0.8498839318
 H   -0.9434097391   -0.4254454634    0.0084162529
 H    0.1420629118   -0.6926421090   -2.0779657405
 H    1.5925872115    0.1694409402   -1.5565058367
 H    1.3579086546   -2.7197090671   -1.3363327078
 H    3.3606360136   -2.4799774200    0.2363863945
 H    2.5142306540   -0.0681565039    2.4992395104
 H    2.1870996498    1.2386049548    1.3387744260
 H    0.1808287399   -0.4885170033    2.1240047723
 H    0.9020096081   -2.8134831361    1.3134820836