17

 O    0.0806675749    1.3690402600   -0.1366360521
 C    0.0491983894   -0.0277923669   -0.0038852934
 C    0.6586279214   -0.5806699157    1.3142677229
 C   -0.1979562979   -1.7808880625    1.6046826944
 C   -1.3167670687   -1.8179550031    0.8569461408
 C   -2.3404041747   -2.7946678950    0.8961473806
 C   -3.2306354254   -3.6067274484    0.8940579998
 C   -1.4029666344   -0.5907268949   -0.0331392002
 O   -2.3338046344    0.3804334261    0.4638868127
 H   -0.8054630938    1.6673361400    0.1189227413
 H    0.6013603088   -0.4625025675   -0.8458964410
 H    1.7201726837   -0.8307204258    1.2142288473
 H    0.5926456662    0.1694544195    2.1139350176
 H    0.0596592003   -2.5333918931    2.3418821889
 H   -4.0112864909   -4.3265062504    0.9005336589
 H   -1.7408018211   -0.8117541811   -1.0483471250
 H   -2.3594876235    0.3005527287    1.4243662967