21

 C   -0.1163918411    1.5456407569   -0.0867844827
 C    0.0828988780    0.0395090644   -0.0416919809
 C    1.2012553579   -0.6168674522   -0.8997081469
 C    1.4838111093   -1.5914632686    0.2732977200
 C    0.7394651520   -0.5999479110    1.2217350404
 O    1.6230786567    0.3440578268    1.7980344598
 C   -0.1898452041   -1.1834668152    2.2870901856
 C    0.5257984382   -1.8595168170    3.4315329904
 O    1.7154624990   -1.7898433502    3.6405942961
 H    0.8101239049    2.0642226977    0.1696860745
 H   -0.4267401595    1.8618997691   -1.0887670035
 H   -0.8892575481    1.8722811348    0.6181141763
 H   -0.8672627683   -0.4737142105   -0.2348734596
 H    0.9105523167   -1.0493380732   -1.8596885175
 H    2.0339101749    0.0726344810   -1.0590709904
 H    0.9484646939   -2.5396039722    0.1609590039
 H    2.5250325811   -1.7992964885    0.5276647989
 H    2.1392969049   -0.1463643114    2.4529981139
 H   -0.8069986144   -0.3863859563    2.7311504475
 H   -0.8997200920   -1.9031806581    1.8578615834
 H   -0.1258736602   -2.4463942163    4.1161419608