11

 N    0.0691767051    1.3948200718    0.1609129841
 C   -0.0052120100    0.0321152271    0.0398301492
 C   -1.0950068094   -0.8329295104    0.0026996577
 N   -0.6267277162   -2.1245422750   -0.0427849603
 N    0.6575057287   -2.1158562063   -0.0421633566
 N    1.0540559603   -0.8017853502    0.0109468627
 C   -2.4569799896   -0.4615683866    0.0003518552
 N   -3.5530312744   -0.0846051291   -0.0044816461
 H    0.8333619794    1.8518911181   -0.3151073030
 H   -0.8122867371    1.8675604281    0.0160039432
 H    2.0365648132   -0.5831885975    0.0559492838