18

 N   -0.0687809081   -1.0502008626    0.5063803072
 C   -0.0200006732    0.0953014205    0.3651449319
 C    0.0446924298    1.5418194858    0.1677961129
 C    1.4307265185    2.0140356461   -0.2824397939
 C    1.6540574116    3.5427916178   -0.3218738367
 C    2.7135082012    3.2543945288    0.7361290452
 C    4.1077729512    3.7650922137    0.8687411090
 C    3.0835888042    3.9934868193    1.9761769267
 O    2.4214867159    1.8512082335    0.7528247663
 H   -0.6982230701    1.8277695167   -0.5868230322
 H   -0.2229664232    2.0435980210    1.1039039483
 H    1.7265189524    1.4839528125   -1.1950931521
 H    2.0206486157    3.9387155725   -1.2701811117
 H    0.8046046486    4.1402863699    0.0190246941
 H    4.8842975740    3.0310559402    1.0545610933
 H    4.4133124237    4.6094117462    0.2590136356
 H    2.6888462335    4.9937703407    2.1239276909
 H    3.1939294445    3.4083017476    2.8828341450