15

 O   -0.1212867837    1.3724101113    0.3419756457
 C    0.0279254740    0.0247250776    0.0087001422
 C   -0.4525660117   -0.4550393131   -1.3605719474
 C   -1.2371324377   -0.7847237502   -0.1233138562
 O   -1.3107072407   -2.0917421797    0.3739263999
 C   -0.2006828092   -2.7639631632    0.8127579708
 O   -0.3054785495   -3.9275284049    1.0991676232
 C    1.0461791299   -1.9903735203    0.9657409333
 C    1.1468198265   -0.6969014566    0.6421829468
 H    0.4388553335    1.8935173917   -0.2445608327
 H   -0.8818564842    0.2970908886   -2.0137401575
 H    0.1147022265   -1.2426327040   -1.8434533610
 H   -2.1763072187   -0.2681012245    0.0328364829
 H    1.8615325404   -2.5447560936    1.4137013420
 H    2.0522704445   -0.1317648392    0.8490634880