18

 C   -0.5991645926    1.3656823314    0.2620496940
 C   -0.1586843569   -0.0749548117    0.1406567605
 C    1.1748313348   -0.4257520321   -0.4590090056
 C    0.9515632079   -0.6487159699    1.0194592360
 C    1.6587604972    0.1772819228    2.0148415441
 C    2.7887908964    0.9663837189    1.9828176517
 N    3.0013234533    1.5050432735    3.2163823325
 N    2.0690654546    1.0951289885    4.0255820712
 N    1.2541316421    0.2961928542    3.3076685115
 H    0.2435246273    2.0203266465    0.5012443051
 H   -1.0411748235    1.7153534565   -0.6768384385
 H   -1.3501192374    1.4893087304    1.0502443632
 H   -0.9632734879   -0.7762111371   -0.0644486610
 H    1.2590331277   -1.2988265267   -1.0958141302
 H    1.8207738794    0.3977537798   -0.7447196139
 H    0.8074614093   -1.6825754803    1.3236381572
 H    3.4536839941    1.1635568428    1.1578474177
 H    0.4545319042   -0.1230617375    3.7554642045