21

 C   -0.4932178677    1.5158713824    0.0934900909
 C   -0.0447568232    0.0580066199    0.0155283432
 C   -1.2223646782   -0.8410481481   -0.3756357226
 C    1.2188408435   -0.2351208424   -0.8733003255
 C    1.9434914743   -0.8680907789    0.3328303002
 O    2.7711156748    0.0855932746    1.0346538553
 C    1.7207286727    0.4096532431    1.9679239171
 C    0.7212237603   -0.5234733502    1.2532825827
 O   -0.0417539530   -1.3870944879    2.0344485107
 H    0.3420181609    2.1966602064    0.2820994877
 H   -0.9549454319    1.8224513616   -0.8517722520
 H   -1.2365068093    1.6597924955    0.8860441224
 H   -1.5970039926   -0.5477016866   -1.3626910527
 H   -0.9313076577   -1.8939497093   -0.4204580993
 H   -2.0421884553   -0.7574802295    0.3436791939
 H    1.0183480875   -0.9250471520   -1.6974265218
 H    1.7398566695    0.6438384118   -1.2595755497
 H    2.4210813340   -1.8453613069    0.2256276505
 H    1.9644344210    0.0640331824    2.9852574364
 H    1.5023703902    1.4823388316    2.0099511106
 H    0.5120029803   -1.7349089175    2.7418440320