19

 C    0.1779518887    1.2239176055    0.2224767437
 N   -0.0783066681   -0.2063579447    0.0691042729
 C   -1.5111042900   -0.5431362898   -0.0488296770
 C   -1.6481840069   -1.9170138928   -0.6567126122
 C   -1.4871710869   -2.9775880295    0.1264740277
 C   -1.2568591808   -2.7849626347    1.5970743773
 O   -1.9129702628   -1.6249838881    2.1266473894
 C   -2.1145059858   -0.5325798059    1.3456017786
 N   -2.7626506086    0.4744113044    1.7630370523
 H    1.2558562812    1.3879209334    0.3111203339
 H   -0.2027560418    1.8359755549   -0.6132727577
 H   -0.3033125246    1.5826320308    1.1356700821
 H    0.4044087559   -0.5592806729   -0.7501435894
 H   -2.0652071317    0.2050175993   -0.6335802022
 H   -1.8346176885   -2.0027661449   -1.7222343133
 H   -1.5171368691   -3.9944577918   -0.2521706710
 H   -1.6530847966   -3.6260759360    2.1737791331
 H   -0.1819540628   -2.7075525521    1.8096952407
 H   -3.0764607210    0.3137701850    2.7233229111