16

 O   -0.2375820623    1.5219782864    0.0349075052
 C    0.0019090748    0.1481983702    0.2604904016
 C   -1.2187961662   -0.6925086966   -0.1112151192
 N   -1.5726428021   -0.3792891858   -1.4936428947
 C   -2.3817034910   -1.1267370549   -2.1033251648
 N   -2.8269465652   -0.9859700967   -3.4113246157
 C   -3.6763312935   -2.0194511810   -3.6693455160
 N   -3.8374564977   -2.8098637261   -2.6656506408
 O   -3.0148444238   -2.2527245761   -1.6390127028
 H   -0.6436562893    1.5599661042   -0.8412440337
 H    0.8718822169   -0.2068037230   -0.3169515507
 H    0.2340247417    0.0266566560    1.3239822660
 H   -1.0048583371   -1.7610937811    0.0312364381
 H   -2.0519400423   -0.4320290436    0.5565114158
 H   -2.5313326487   -0.2513754151   -4.0290732119
 H   -4.1721514442   -2.1680885169   -4.6167309864