17

 C   -0.6178276273    0.4705732315    0.5954109553
 O    0.3043417128    0.8102927191   -0.4313818946
 C    0.5820153118   -0.1742807912   -1.3034218744
 C    0.1485152378   -1.4844958729   -1.4160757310
 C    0.8419475811   -1.9424499859   -2.5578992878
 O    0.7442770180   -3.1858360537   -3.0740763413
 N    1.6232592591   -1.0280718512   -3.1039624915
 N    1.4515944465    0.0770389979   -2.3079156294
 C    2.1579504493    1.3006697425   -2.5960417552
 H   -1.5875797818    0.1838588291    0.1718359892
 H   -0.2346266839   -0.3530484483    1.2092879979
 H   -0.7351593977    1.3633684860    1.2104649493
 H   -0.5425448330   -2.0231101416   -0.7932197617
 H    1.3251621373   -3.2112952802   -3.8451793325
 H    1.8933627844    1.6689617838   -3.5920479575
 H    1.8799825265    2.0446949164   -1.8493870458
 H    3.2391671991    1.1353938786   -2.5592944891