16

 C   -0.4616066404    1.3811872998    0.1638241280
 C   -0.0147472002   -0.0444483045   -0.0221531033
 N   -0.1279523482   -0.5812372247   -1.1875140948
 C    0.2222739071   -1.8807840089   -1.5025166429
 C    0.2388483870   -2.9646187790   -0.7015905169
 C   -0.0289627343   -2.9296111077    0.7430614451
 N   -0.7159265911   -3.8431090390    1.3066647141
 N    0.6376062163   -1.9225157795    1.4730509458
 C    0.6163962063   -0.6875583481    1.1498445500
 H    0.3751571000    2.0145551875    0.4824157729
 H   -0.8677436793    1.7664026890   -0.7715330262
 H   -1.2256415120    1.4502869458    0.9473914242
 H    0.3979993749   -2.0197629992   -2.5666131588
 H    0.3971353920   -3.9455805575   -1.1386316684
 H   -0.7323055366   -3.6849507251    2.3177913933
 H    1.1429628386   -0.0023956389    1.8219251679