16

 O   -0.1196004247    1.3898106843    0.3951067131
 C    0.0069561318    0.0421423120   -0.0472129915
 C   -1.3566872512   -0.5744919711   -0.0079215741
 C   -1.7954727371   -1.8962693266    0.0376866525
 C   -0.9586962352   -3.0797159593    0.1231201682
 O   -1.3653413035   -4.2235438613    0.1437090182
 C   -3.2271713253   -1.8641781681   -0.0066157943
 C   -3.6043817450   -0.5523167704   -0.0734873356
 N   -2.4572518833    0.2163807376   -0.0837588144
 H    0.6995070433    1.8512831777    0.1945178872
 H    0.4096631886    0.0091313359   -1.0724976495
 H    0.6962939005   -0.5307177228    0.5887971214
 H    0.1363947308   -2.8729706088    0.1751468340
 H   -3.8702653770   -2.7290134317    0.0150387094
 H   -4.5774723920   -0.0899058264   -0.1076800999
 H   -2.3994344006    1.2215000791   -0.0703996046