17

 C   -0.0449852879    1.5033233834    0.0539529365
 C    0.0468813614    0.0046392221   -0.1684986294
 O    1.0683462951   -0.5234469548   -0.5477659178
 C   -1.2247472530   -0.7865204817    0.0994174839
 C   -1.0191545912   -2.2971615602    0.0843789953
 C   -2.3088177649   -3.0485526841   -0.2361357562
 N   -2.3212263081   -4.3547988637    0.1632826660
 O   -3.2531855294   -2.5358499997   -0.8068100985
 H    0.8639147911    1.9897817426   -0.3017288805
 H   -0.9202110987    1.9203087366   -0.4554852706
 H   -0.1720912642    1.7110294072    1.1230306802
 H   -1.6722100688   -0.4446628931    1.0406108504
 H   -1.9600889034   -0.5258396951   -0.6737336175
 H   -0.2784189177   -2.5406329064   -0.6870513125
 H   -0.5952619505   -2.6528360354    1.0296104927
 H   -1.4952477230   -4.8068784628    0.5152429206
 H   -3.0890738069   -4.9315241350   -0.1404182824