20

 C   -0.0788074660    1.5585851156   -0.0731614992
 C    0.0046502918    0.0360343208   -0.0288642160
 C   -1.3526903317   -0.5962097250    0.2716994962
 C    0.6950060057   -0.6471433610   -1.2275554571
 N    2.0903251685   -0.1610975873   -1.2655493815
 C    1.7180649546   -1.2740952169   -0.3547930596
 C    1.1403716276   -0.6176033603    0.9057723091
 C    2.0463157190    0.3067730398    1.6766099554
 O    1.9233079960    0.5325213857    2.8568337309
 H    0.8724798328    1.9951830412   -0.3850466886
 H   -0.8498681796    1.8765027448   -0.7843027966
 H   -0.3439655934    1.9653010910    0.9087054619
 H   -2.0942004693   -0.2898455333   -0.4754564157
 H   -1.2976537519   -1.6899760176    0.2617948508
 H   -1.7179147003   -0.2831641083    1.2552597768
 H    0.2140877586   -1.0249677410   -2.1225694887
 H    2.5394477850   -0.5732136278   -2.0822535506
 H    2.2063768642   -2.2377571561   -0.4284602407
 H    0.6859795442   -1.3229595328    1.6040959867
 H    2.8465276245    0.7863011284    1.0759346966