16

 O   -0.0367211947    1.2981802290    0.1157535371
 N    0.0333741367   -0.1012106898    0.1021294012
 C   -1.1263602127   -0.6347337912    0.0222709601
 C   -2.4591478169   -0.0451088431   -0.0642285361
 C   -3.3852068251   -1.0130178830   -0.0544071240
 C   -2.7881087919   -2.3995184153    0.0949205163
 O   -3.2974387022   -3.3440301118   -0.8146020274
 C   -1.2515009601   -2.1470954736   -0.0619009081
 O   -0.8772965502   -2.6191476261   -1.3545451151
 H    0.8887577890    1.5508472230    0.2007915326
 H   -2.6280587166    1.0206592154   -0.1264231083
 H   -4.4575086550   -0.8708167449   -0.1255178180
 H   -3.0012707607   -2.7853293700    1.1002790158
 H   -2.7439757234   -3.2714785030   -1.6046273641
 H   -0.6580562722   -2.6516326034    0.7083073102
 H   -0.1057963341   -2.1136090821   -1.6319186422