18

 C   -0.1704337336    1.5444049799   -0.0172205836
 C    0.0184233610    0.0380905116    0.0230542358
 O    0.8135528279   -0.4092503478   -1.1094617896
 C    1.9063912844   -1.1591375467   -0.5605452957
 C    2.8362559068   -0.1656275319    0.1457819478
 O    2.0619067837    0.2256476350    1.3019180940
 C    0.8320817465   -0.5089476192    1.2130127955
 C    1.2760849851   -1.8660788605    0.6492106971
 H    0.7791705525    2.0563446190    0.1517502231
 H   -0.5711098058    1.8459859123   -0.9888375349
 H   -0.8777020194    1.8598681977    0.7575929373
 H   -0.9612443822   -0.4610809156   -0.0235565860
 H    2.3587293238   -1.7624707413   -1.3470703247
 H    3.7857327973   -0.6120569106    0.4694537276
 H    3.0397898816    0.7067800434   -0.4836022445
 H    0.3328047101   -0.4791515403    2.1811616179
 H    0.4552727229   -2.5287298877    0.3698843021
 H    1.9893941974   -2.3817407474    1.2947848211