17

 O   -0.1060295956    0.0121967952   -0.0069385742
 C   -0.0991972040    1.2142450596    0.0152932965
 C   -1.2982494656    2.1587562427    0.0829828503
 C   -0.6385524969    3.4890607189    0.4496169506
 O    0.6870218979    3.4199407817   -0.0959445520
 C    1.1488761244    2.0938461340   -0.0161415863
 C    2.2392342653    1.7689028363    1.0484263291
 O    3.1865188476    1.4095790759    0.0289412428
 C    2.2580873573    1.7282022775   -1.0228418087
 H   -1.7542861714    2.1998759047   -0.9131214149
 H   -2.0513915552    1.8000756266    0.7865695275
 H   -1.1228459611    4.3650985116    0.0146904314
 H   -0.5964896446    3.6222736913    1.5406874240
 H    2.5478573750    2.6513496325    1.6219474019
 H    2.0196915324    0.9309107075    1.7197261101
 H    2.0434274144    0.8631596187   -1.6601671339
 H    2.5789274802    2.5832768753   -1.6289372140