18

 C   -0.0488657029    1.4302209454    0.0539878147
 N   -0.0516153340   -0.0180944307    0.0303530410
 C   -0.0490837179   -0.7954026758   -1.0945692900
 C    0.0338032620   -2.1271107395   -0.7341550585
 C    0.0470230292   -3.3025591180   -1.6648290365
 C    0.0909846785   -2.1525559292    0.6810449833
 C    0.0403852878   -0.8433834888    1.1394577193
 C    0.0625567312   -0.3377172787    2.4533554680
 C    0.0805819078    0.0992358766    3.5777825763
 H    0.9691663519    1.8336856196    0.0054754822
 H   -0.6191545591    1.8088293939   -0.7973370925
 H   -0.5153956111    1.7787105664    0.9768023126
 H   -0.1092502134   -0.3421111434   -2.0725187793
 H    0.9542885112   -3.9055576788   -1.5436020993
 H   -0.8056020322   -3.9691688302   -1.4906299916
 H    0.0037074296   -2.9788734591   -2.7089510454
 H    0.1495258532   -3.0249154082    1.3140490710
 H    0.0984438381    0.4720313285    4.5714654246