18

 C    0.0008617855    1.5052925915    0.0904314940
 C    0.0139285189    0.0068426580   -0.0132899538
 C    0.9010900265   -0.8065886212   -1.0060751882
 C    0.7198914273   -1.8141869729    0.1571032717
 O    0.7232874731   -0.6803515247    1.0724726760
 C   -0.7784677556   -2.1806264555    0.0580993508
 C   -1.6699266627   -1.6098167407    1.1315773421
 C   -1.3266893404   -0.7737782440   -0.0756501700
 H    1.0176039316    1.9034816119    0.1462815838
 H   -0.4967973995    1.9408581310   -0.7823378698
 H   -0.5458989026    1.8206759732    0.9848599131
 H    0.4952587026   -1.0581262286   -1.9900228342
 H    1.9186027457   -0.4152605751   -1.0718638897
 H    1.4465649911   -2.5871223049    0.4067992501
 H   -1.0968817860   -3.0087069132   -0.5631024109
 H   -2.6815102555   -2.0008053457    1.1678327273
 H   -1.2375366732   -1.3514149107    2.0899147295
 H   -2.0796257568   -0.4907855582   -0.8013711119