15

 C   -0.0148813900    1.4777970491   -0.0485779902
 C   -0.0213568183   -0.0133223487    0.0174483826
 N   -0.0421968345   -0.7518394472   -1.0748678736
 N   -0.0368086593   -2.0464747338   -0.6250471814
 C   -0.0122718206   -2.1436315121    0.7190404093
 N   -0.0720365219   -3.3382366633    1.4007769750
 C    0.0022431576   -0.8307544762    1.1926704397
 C    0.0551086932   -0.4525634123    2.5477583100
 N    0.1037840445   -0.1696117568    3.6724176457
 H    0.8800623095    1.8910503654    0.4284204618
 H   -0.0386208650    1.8007062232   -1.0908154977
 H   -0.8813597202    1.8990847398    0.4717847138
 H   -0.1053424127   -2.7946535401   -1.2935023312
 H    0.4530563122   -4.1016915678    0.9975481262
 H    0.1096750757   -3.2420777292    2.3906556399