15

 N    0.2902927119    1.4067586454   -0.0859657333
 C    0.1135686885    0.0245418371   -0.0709360910
 C   -1.0092899963   -0.7452002377   -0.0328893998
 O   -0.6773540484   -2.0551189576    0.0613107016
 N    0.6946956715   -2.1716510599    0.0786265134
 C    1.1629133219   -0.9468173857    0.0101409986
 C    2.6422953273   -0.6871332033    0.0202786901
 C    3.0946610577   -0.1386925507   -1.3278766503
 O    2.8184340015    0.9689870749   -1.7210254118
 H    1.0899571179    1.6817803657   -0.6476663327
 H   -0.5357006202    1.9185470802   -0.3636487155
 H   -2.0642974316   -0.5252886754   -0.0559273606
 H    2.8766052360    0.0669993985    0.7814870210
 H    3.1698650605   -1.6139060309    0.2551034523
 H    3.6893931618   -0.8294525906   -1.9607098220