23

 C   -0.2929228480    1.4976932657    0.0879993439
 C   -0.0408285207   -0.0231595372    0.0180255011
 C    0.5314355309   -0.4239876199   -1.3242184457
 C    1.7927276777   -0.3445670153   -1.7522616840
 C    3.0089421697    0.1457463075   -0.9992924304
 C    3.2001645713   -0.4182067163    0.4177777190
 C    2.1503455007    0.0233588045    1.4435723650
 C    0.7474208208   -0.5572956456    1.2307669981
 O   -0.0829218296   -0.2887439781    2.3619318273
 H    0.6255871623    2.0691735091   -0.0751373624
 H   -1.0049393389    1.7996114328   -0.6858800895
 H   -0.7037857284    1.7664932095    1.0639675747
 H   -1.0212925482   -0.5056314438    0.1090506814
 H   -0.2069590751   -0.7793891072   -2.0407558793
 H    1.9813606056   -0.6458605799   -2.7810594493
 H    3.9003486442   -0.0965031588   -1.5881559921
 H    2.9881486184    1.2446076043   -0.9417892373
 H    3.2213024580   -1.5145740186    0.3669915770
 H    4.1874059420   -0.1059764002    0.7788548707
 H    2.4886848473   -0.3017206543    2.4381794117
 H    2.0953916277    1.1178511148    1.4868232603
 H    0.8489865656   -1.6474806479    1.0968910732
 H    0.3983146767   -0.5516892151    3.1525024169