17

 O    0.0134924521    0.0552269586   -0.0371699864
 C    0.0075257540    1.2520900043   -0.0057752163
 C   -1.1955856861    2.2175525290    0.0206729753
 C   -0.4093910355    3.5392194745    0.0549998884
 C    0.6863481182    3.2935559687   -1.0184835950
 C    1.2051341396    2.2238193793    0.0190972460
 C    0.6878504743    3.2372514481    1.1124581798
 C    2.5334188362    1.6840595783    0.0038959871
 C    3.6489630867    1.2360413273   -0.0086909259
 H   -1.8191717570    2.0898981838   -0.8694974422
 H   -1.8178097567    2.0430312519    0.9038145853
 H   -0.9810206806    4.4650087758    0.0798675597
 H    0.3854145797    2.9354860799   -2.0065056378
 H    1.3937489864    4.1194406555   -1.1097350624
 H    1.3954026811    4.0571978644    1.2461972193
 H    0.3883009830    2.8274931520    2.0806168760
 H    4.6300447248    0.8305577588   -0.0199403207