20

 C    0.1053751496    1.7118202901   -0.3122381958
 N    0.1412616063    0.2824089915   -0.0273240898
 C    1.2906423282   -0.5678920142   -0.2603538245
 C    2.6893735586    0.0342586124   -0.3837272276
 C    2.9991955808    0.7666531583    0.9463011745
 O    3.0803663657    2.1685149127    0.7826827523
 C    1.8447091682    0.3676150237    1.9391421647
 O    1.3325219559    1.5131365008    2.6317821536
 C    0.7678243449   -0.3312970749    1.1279827178
 H    1.0655395912    2.2320142881   -0.2359795310
 H   -0.2790923957    1.8409157413   -1.3297774886
 H   -0.6026457322    2.1821143832    0.3761631132
 H    1.0877475869   -1.4880824010   -0.8043927052
 H    3.4069181081   -0.7751588940   -0.5547080804
 H    2.7859343208    0.7316265843   -1.2215843806
 H    3.9591962921    0.4137369988    1.3483817067
 H    2.5020396409    2.5388807159    1.4678406620
 H    2.2273491779   -0.3557885202    2.6697343098
 H    1.7703338147    1.5767311266    3.4857338905
 H    0.1460772171   -1.0474923537    1.6616671185