17

 O    0.2949574612    1.5268229699   -0.0076628313
 C    0.1013203393    0.1270639835   -0.0382512102
 C    0.6238042931   -0.4813974482   -1.2686799635
 C    1.0629489810   -0.9782362840   -2.2709897890
 C    0.7318385024   -0.5316885726    1.2184721863
 O    2.0853780710   -0.0770291649    1.3201242975
 C    2.3452632110    0.4103172559    2.6392689261
 C    1.0087003743    0.4073663117    3.3242640309
 C    0.0968153947   -0.1230115376    2.5199294357
 H    1.2459353094    1.6444634090    0.1192632282
 H   -0.9831271324   -0.0332453741    0.0029272507
 H    1.4461822139   -1.4123069946   -3.1612624857
 H    0.7109760054   -1.6243766234    1.0794218772
 H    3.0731716923   -0.2442071500    3.1448202913
 H    2.7960579055    1.4107661423    2.5753333077
 H    0.8578352828    0.7770862995    4.3301970267
 H   -0.9534696051   -0.2756499823    2.7322627413