18

 O    0.0619519902    1.3840878438   -0.0989965341
 C   -0.0421472830   -0.0268292933   -0.0033831941
 C    0.3517875276   -0.6052093586    1.4340143118
 N   -0.9083722129   -1.1642092563    2.0259040506
 C   -1.5448158917   -1.8156694766    0.8197683841
 C   -2.9712426364   -1.2324042073    0.9868662722
 C   -2.9317456509   -0.5900402304   -0.4426684667
 C   -1.4815434711   -0.4517936295    0.0812896390
 C   -1.9602313439   -0.1955346864    1.5404475868
 H    0.9949261345    1.6177883962   -0.0740416670
 H    0.5225040211   -0.5174208802   -0.8080491538
 H    1.1038649743   -1.3979301999    1.3718386386
 H    0.7374518246    0.2031564029    2.0629512746
 H   -1.2408661793   -2.7940388872    0.4408888507
 H   -3.8195393888   -1.6813468519    1.5027336344
 H   -3.0923496470   -1.2665511289   -1.2871162251
 H   -3.4959492220    0.3362252783   -0.5787521717
 H   -2.1481599652    0.7700584951    2.0107622996