15

 O   -0.0535002448    1.3668331328   -0.0702720814
 C    0.0299651656   -0.0119074993    0.0324031413
 C   -0.4006743865   -0.7336967467    1.2814615902
 C   -1.2635388398   -0.8160222952    0.0353221899
 O   -2.4304599532   -0.0251083610    0.0262514330
 C   -3.3991344486   -0.6539449595   -0.7560306893
 O   -4.4758180525   -0.1658115820   -0.9374850474
 C   -2.8047371531   -1.9179618999   -1.2333026723
 C   -1.5539271945   -2.0081656856   -0.7647737235
 H   -0.9898522330    1.6041187318   -0.0999876209
 H    0.8702850179   -0.4151535885   -0.5255583433
 H    0.1327797961   -1.6272028309    1.5877903939
 H   -0.8082114979   -0.1304499592    2.0852138044
 H   -3.3465192898   -2.6068527265   -1.8630894215
 H   -0.8376159359   -2.8028310403   -0.9255200330