15

 N    0.0464571708    1.2991367164   -0.0112530879
 C   -0.0213978578    0.0328661431   -0.0031405459
 N   -1.2266494369   -0.6482124022    0.0111361645
 C   -1.4780564403   -2.1018753205    0.0002802386
 C   -2.9756460027   -1.7534862033   -0.0554258611
 C   -4.1064728467   -2.3912778055   -0.7292531335
 O   -3.9874507077   -2.3656125305    0.7001737883
 C   -2.5884811303   -0.2728822108    0.0132480754
 O   -3.1539600072    0.7761914736    0.0435202586
 H    1.0205657258    1.5968592248   -0.0195615024
 H    0.8295266506   -0.6604731525   -0.0054132298
 H   -1.0716657287   -2.6180530769   -0.8744387871
 H   -1.1755819189   -2.6117149300    0.9196862346
 H   -4.8971051167   -1.7674014888   -1.1408530549
 H   -3.9707414932   -3.3672111368   -1.1919568075