18

 C    0.0120666521    1.5181004602    0.0648787421
 C   -0.0094510763   -0.0093711540   -0.0082891046
 C    0.6984763371   -0.5485800190   -1.2726980196
 C    0.9319774086   -2.0551441311   -1.1431946434
 O    1.6014390539   -2.3393321537    0.0789062551
 C    0.8575981318   -1.8840626526    1.1699601906
 O    0.6682364053   -0.4805259516    1.1542728947
 C   -1.4220582000   -0.4802804796    0.0117325715
 N   -2.5181604500   -0.8468640434    0.0227841033
 H    1.0511436561    1.8552325455    0.0799433591
 H   -0.4963328404    1.9515116297   -0.8000378682
 H   -0.4831728970    1.8588079337    0.9764840277
 H    0.1124405018   -0.3177598461   -2.1675789692
 H    1.6634539685   -0.0376819272   -1.3468329947
 H   -0.0256855365   -2.5981142610   -1.1848841552
 H    1.5716004721   -2.4264572251   -1.9470155760
 H   -0.1238566024   -2.3883020299    1.2043574163
 H    1.4300261456   -2.1005071650    2.0729393404