19

 C    0.1196408058    1.4965139565   -0.0268892513
 C   -0.0523458576   -0.0351911505    0.0190642080
 C   -1.5435614353   -0.4030962666   -0.0048733666
 C    0.7004564833   -0.6731076680   -1.1368994858
 C    1.8619660470   -1.2476067040   -0.7918279503
 C    2.0554090178   -1.0790588345    0.6593344176
 O    3.0605219526   -1.1824817258    1.3292098813
 C    0.7032792047   -0.6440499258    1.2360783361
 O    0.8531899263    0.1947417897    2.3480812845
 H    1.1749693341    1.7792242239    0.0057565443
 H   -0.3175031996    1.9047105597   -0.9440331487
 H   -0.3766013050    1.9541298238    0.8321560987
 H   -2.0313617832   -0.0089865638   -0.9032042552
 H   -1.6873662569   -1.4883990930    0.0086068032
 H   -2.0551607670    0.0175412514    0.8664273257
 H    0.3106386468   -0.6189212408   -2.1497191318
 H    2.5903333459   -1.7040341676   -1.4495245820
 H    0.1781680361   -1.5738879874    1.5215369316
 H    1.7497813542    0.0268789429    2.6764360609