21

 C   -0.1891858346    1.4970961530   -0.1540163664
 O   -0.1524034755    0.0938389126    0.0042515992
 C   -1.4309694395   -0.4804277177    0.1803728156
 C   -1.2776281517   -1.9614783608    0.3897173772
 C   -2.3414266798   -2.8776822741   -0.0919199785
 N   -1.0271402578   -2.8510462772   -0.7519314625
 C    1.2088001333    2.0004194172   -0.3845435803
 C    1.5858540727    3.3494831190    0.1063005105
 N    2.1414901581    2.1444348795    0.7409710860
 H   -0.8361641161    1.7698129471   -1.0065700959
 H   -0.6191460292    1.9767578293    0.7442732441
 H   -1.9393945852   -0.0250145510    1.0486523764
 H   -2.0665130379   -0.2884952634   -0.7034303506
 H   -0.7160863420   -2.2314765535    1.2812553305
 H   -2.5625986866   -3.7888136911    0.4561330077
 H   -3.1965612103   -2.4413172660   -0.6032354129
 H   -1.0783913829   -2.3200309456   -1.6185128687
 H    1.6771259754    1.6212519164   -1.2900665360
 H    2.3016524659    3.9488317932   -0.4485456328
 H    0.8334365215    3.9263078994    0.6394549923
 H    1.6572889722    1.9509623537    1.6148623950