18

 O   -0.0174064252    0.0141969778   -0.1135338576
 C    0.0448937526    1.2243974608   -0.0216747839
 N    1.1860196555    1.9284285721    0.1623551436
 C    2.5254288966    1.3301451337    0.1109344150
 C    3.4161257204    2.6078202966   -0.0257868244
 C    2.6218041314    3.5836797637    0.8853429013
 C    1.3334436904    3.4038734885    0.0592912923
 C    1.8587192961    3.6892282707   -1.3490528012
 C    3.1030360878    3.2020795091   -1.3929513510
 H   -0.8478096790    1.8822138591   -0.0556045820
 H    2.7431537937    0.7799321446    1.0324056935
 H    2.6168961650    0.6401919309   -0.7322578586
 H    4.4661418405    2.4379788094    0.2075804122
 H    2.5162928652    3.2429548560    1.9192092861
 H    3.0107399696    4.6020376858    0.8537055261
 H    0.4298256058    3.9198034547    0.3797348001
 H    1.2680357821    4.0902937072   -2.1623387764
 H    3.7524848114    3.1282530992   -2.2558909650