20

 O   -0.0251806253    0.0013019459    0.0003032295
 C   -0.0250354931    1.2041640763   -0.0195064707
 C   -1.2634863501    2.1273118185   -0.0757173260
 N   -0.7545479898    3.5002135686    0.0633131727
 C    0.5707698579    3.4175791436   -0.5919378489
 C    1.1895506683    2.1426001123    0.0122803504
 C    1.5583187940    2.4383424073    1.4890598693
 C    0.3183909750    2.8960470991    2.2847995790
 C   -0.5634614936    3.8770399784    1.4774252696
 H   -1.7479786586    2.0027115382   -1.0535932524
 H   -1.9979108100    1.8668187448    0.6906145549
 H    0.4326883474    3.3308168716   -1.6760363718
 H    1.1526003940    4.3218638792   -0.3945923695
 H    2.0352511180    1.7169108546   -0.5313222614
 H    1.9959675955    1.5490964395    1.9533792186
 H    2.3282925240    3.2200211097    1.4971054096
 H   -0.2757345881    2.0143560515    2.5546379529
 H    0.6174954582    3.3589421931    3.2312820849
 H   -0.1146382130    4.8772020255    1.4804167527
 H   -1.5482635708    3.9714402423    1.9475182266