19

 C    0.0766378795    1.4962895006    0.1241896378
 C   -0.2335425353    0.0000642362   -0.0132967377
 C    0.3923593364   -0.5887281022   -1.2598222527
 C    1.7957828293   -1.0809716569   -1.2816402631
 C    0.6693727522   -2.0976796607   -1.4237672464
 C    0.4154297813   -3.0330221305   -0.3158613670
 O    0.7019940417   -2.8624350015    0.8539296876
 C   -0.2743565041   -4.3581134031   -0.6780456023
 O   -0.5876118918   -4.6770476557   -1.7945227521
 H    1.1550488499    1.6700462762    0.1984959957
 H   -0.2921277777    2.0620654128   -0.7386252975
 H   -0.3937487502    1.9114105058    1.0204957925
 H    0.1255098999   -0.5389475974    0.8673286575
 H   -1.3205076599   -0.1462692348   -0.0507429357
 H    0.0387278357   -0.1415700360   -2.1864522018
 H    2.4151186338   -0.9103757827   -2.1548737571
 H    2.3250123378   -1.1167955011   -0.3344829963
 H    0.4700502986   -2.5127307719   -2.4038301987
 H   -0.4464910471   -4.9978757472    0.2134049772