18

 O    0.5896847424    1.1032736310   -2.1567163737
 C    0.0300764730    1.3959569482   -1.1329086470
 C    0.8584834406    1.9539895991    0.0581373935
 C    1.1449003702    0.9205474392    1.0467801455
 N    1.3692861000    0.0885782596    1.8172590310
 C   -1.4787506744    1.2920687391   -0.9599390191
 C   -1.9543496111    0.7330747680    0.3668643945
 C   -2.2389306903    1.6396337343    1.5424660961
 C   -3.3750587047    0.9724374232    0.8111144001
 H    1.7986142696    2.3326295089   -0.3512354512
 H    0.3234491268    2.7728868735    0.5490017395
 H   -1.8771883857    2.3106759089   -1.0843544978
 H   -1.8485227079    0.7031283663   -1.8049074342
 H   -1.5427791354   -0.2403058837    0.6152613050
 H   -1.9770275221    1.2873155886    2.5332324604
 H   -2.1181156033    2.7101063714    1.4056754501
 H   -4.0053007011    1.5919566503    0.1813960498
 H   -3.8992240665    0.1601222640    1.3011945174