25

 C   -0.2958988667    1.6575927662   -0.2557805232
 C   -0.1316555015    0.1536034248   -0.0146213171
 C    0.7340734023   -0.5406918671   -1.0698667590
 C    2.2133632484   -0.0674617567   -1.1311417240
 C    3.0449192238   -1.3093235180   -1.5561141066
 C    2.0172817384   -2.4294812912   -1.8413272801
 C    2.5617408493   -3.8474221235   -1.6781357012
 C    0.8399689015   -2.0656780594   -0.9142278408
 O    1.1325061533   -2.3445041244    0.4542323117
 H    0.6682281544    2.1764209333   -0.2323747685
 H   -0.7538452839    1.8572929644   -1.2317088746
 H   -0.9336565550    2.1126118245    0.5087086805
 H    0.3066383965   -0.0235076470    0.9729125314
 H   -1.1218821216   -0.3203244327    0.0025614654
 H    0.2771719748   -0.3690884828   -2.0547971531
 H    2.3359793791    0.7672369146   -1.8266225879
 H    2.5355019086    0.2916574059   -0.1486546191
 H    3.6832496278   -1.1159748057   -2.4231351692
 H    3.7039217741   -1.6198034563   -0.7392782731
 H    1.6472893662   -2.3169894975   -2.8700455150
 H    2.9326409242   -4.0118093158   -0.6599087451
 H    1.7977395461   -4.6040354143   -1.8927739285
 H    3.4007321972   -4.0272851479   -2.3580429721
 H   -0.0917833142   -2.5712939857   -1.2117275417
 H    1.1862395269   -3.2987680775    0.5591584407