18

 C   -0.0606179890    1.5271150817   -0.0001644653
 C    0.0638855343    0.0148073467    0.0493866838
 O    0.9196035203   -0.4965242341   -0.9985115130
 C    1.8764736344   -1.2739344222   -0.2516462671
 C    2.2722132134   -0.3392339251    0.9175942008
 C    0.7848115721   -0.5930666728    1.2803278794
 O    0.3227086107   -0.2649545454    2.5491982620
 C    1.0038388608   -2.0567017049    0.7566871346
 H    0.9092292527    2.0184174116    0.1096349558
 H   -0.4929488445    1.8386303965   -0.9554661098
 H   -0.7161869179    1.8753864523    0.8048486439
 H   -0.9372292130   -0.4319593797   -0.0589368203
 H    2.5902590205   -1.7362901434   -0.9290099408
 H    2.9500589416   -0.8065874971    1.6334078487
 H    2.5953204296    0.6734510606    0.6730719468
 H   -0.6071366272   -0.5115699334    2.6102177244
 H    0.1464757861   -2.6039434301    0.3560454673
 H    1.5783623252   -2.6667213712    1.4553156788