8

 N   -0.0552547069    1.3254852675    0.0089721093
 C    0.0891446291   -0.0292648192    0.0006744177
 O    1.1462543185   -0.6155710582   -0.0118476614
 C   -1.2657203044   -0.7662357949    0.0097008170
 O   -1.3463373302   -1.9599371246    0.0046316230
 H    0.7691565827    1.9038710090    0.0044806226
 H   -0.9554229432    1.7723864621    0.0197939724
 H   -2.1717594355   -0.1139728518    0.0213774594