23

 C   -0.1761982825    1.5515537666   -0.0002431022
 C    0.0392842855    0.0381495367   -0.0010388494
 C    0.8832635149   -0.4873108067   -1.1957981780
 C    1.6230801398   -1.6946202449   -0.6241833792
 C    2.5916730407   -1.4717672361    0.5279610715
 C    2.2869701255   -0.1526107237    1.2331263505
 C    0.7635146254   -0.5473567773    1.2357145160
 C    0.0309216468   -0.3997236259    2.5551898239
 C    1.1845165266   -1.9802170556    0.7840232745
 H    0.7746600846    2.0918525864    0.0666350978
 H   -0.6725196405    1.8744541404   -0.9216064754
 H   -0.8028993628    1.8721322977    0.8385184556
 H   -0.9454299485   -0.4499122831   -0.0437511582
 H    0.2489362344   -0.7685093150   -2.0424765502
 H    1.5759134328    0.2807901932   -1.5618171429
 H    1.8634170435   -2.5310828407   -1.2715449824
 H    3.5264108363   -2.0186658362    0.5788576302
 H    2.6888689179   -0.1371331200    2.2502555674
 H    2.5742450415    0.7792877039    0.7326219574
 H   -0.0674771453    0.6528456750    2.8433210832
 H   -0.9785823601   -0.8246074993    2.4963029778
 H    0.5623856633   -0.9140196552    3.3628525789
 H    0.8299316603   -2.9269818001    1.1712456332