22

 C    0.1053966084    1.3629933521    0.0990364534
 O    0.0326987572   -0.0424114959    0.1072729977
 C   -1.2825987486   -0.5263308735   -0.0505496827
 C   -1.2240864751   -2.0501435422   -0.0500648828
 C   -2.6004749552   -2.7348924714   -0.0670162020
 C   -3.4039266246   -2.4397209903   -1.3403817876
 C   -2.4004641460   -4.2598523380    0.1210407542
 C   -3.6571589426   -4.9925862861    0.2593533299
 N   -4.6610880562   -5.5543176645    0.3713075960
 H    1.1551953190    1.6373192723    0.2275439600
 H   -0.2589090310    1.7865805037   -0.8505544798
 H   -0.4810980131    1.8081773719    0.9185692283
 H   -1.9267778569   -0.1680719677    0.7725961752
 H   -1.7176751187   -0.1437490327   -0.9883693001
 H   -0.6313244763   -2.3811912720   -0.9126030267
 H   -0.6702553067   -2.3558095621    0.8456992674
 H   -3.1755872374   -2.3761752704    0.7968166202
 H   -3.6306770098   -1.3743908675   -1.4319798539
 H   -2.8437924402   -2.7408646676   -2.2338082802
 H   -4.3541986554   -2.9812902271   -1.3397372312
 H   -1.8499258414   -4.6723445482   -0.7336675015
 H   -1.7909246993   -4.4529758928    1.0109834663