19

 C    0.0478253445    1.6399696947   -0.0857459388
 C    0.1144684493    0.1267772706    0.1131308029
 O    0.8009257225   -0.2238005054    1.3014652928
 C   -1.2921741281   -0.5455869853    0.0731990812
 C   -1.1649541990   -2.0864593164    0.0221190933
 C   -0.6895790006   -2.5800731492   -1.3283406353
 O    0.1268610082   -3.4458000988   -1.4999908311
 C   -2.0803800131   -0.1252515067    1.2295180195
 C   -2.6794684442    0.2133475278    2.2165098075
 H    1.0529748621    2.0640161987   -0.0222510897
 H   -0.3756211674    1.8932893711   -1.0634838760
 H   -0.5755737338    2.1056373596    0.6848921952
 H    0.7097014411   -0.3161793999   -0.6946928542
 H    0.2690819164    0.0948523824    2.0421711299
 H   -1.8020659600   -0.2060817156   -0.8400477060
 H   -0.4885613663   -2.4414522704    0.8021205128
 H   -2.1532934827   -2.5340342932    0.1924230002
 H   -1.1859697175   -2.0818901451   -2.1971412315
 H   -3.2378086313    0.5127570911    3.0692774774