18

 O   -0.0296019254   -0.1007561595   -0.0046721346
 C    0.0196148284    1.1071751131    0.0252286955
 C   -1.2589134972    1.9633962143    0.0692815575
 N   -1.5344941210    2.7909500121   -1.1064717607
 C   -0.5362458562    3.8022864687   -1.4459033693
 C    0.7261594921    3.2732945987   -2.1240327020
 O    1.9997084949    3.7062691196   -1.6253654393
 C    1.6284499567    2.3394417395   -1.4370935858
 C    1.3481524972    1.8624463994   -0.0164854659
 H   -2.0983756795    1.2788636446    0.2172338256
 H   -1.2030776780    2.6290598512    0.9417702372
 H   -1.7410204351    2.2042626150   -1.9081549980
 H   -1.0096597642    4.5408421953   -2.1028629926
 H   -0.2501453108    4.3293492434   -0.5298020526
 H    0.6803947102    3.2167839405   -3.2132025292
 H    2.1891390296    1.6351088220   -2.0508057703
 H    1.3099424944    2.7357352726    0.6410778122
 H    2.1415962838    1.1947370593    0.3263200223