21

 C   -0.1443006434    1.3130722508    0.1179605754
 O    0.2251528506   -0.0317094085   -0.0755241379
 C    0.7781763962   -0.6396437905    1.0722232410
 C   -0.2701528794   -1.0524487866    2.1613843029
 C   -0.0445700330   -2.5794424687    2.1298626931
 O   -0.7466102438   -3.3724795842    3.0353573912
 C    1.5004171592   -2.6718243180    2.1212197284
 C    1.3219488938   -2.0313898829    0.7132050626
 C    0.0203962476   -2.8720820593    0.5949811342
 H    0.7160167557    1.9305565604    0.4216718199
 H   -0.5268518510    1.6862633954   -0.8352643713
 H   -0.9304266543    1.4251873518    0.8802315005
 H    1.5629206153    0.0099774705    1.4893695336
 H   -0.0694445151   -0.6299369928    3.1500117568
 H   -1.2846930260   -0.7728932370    1.8573120298
 H   -1.6834986775   -3.1607385934    2.9625627877
 H    2.0548144435   -2.1184104748    2.8854621059
 H    1.8506818923   -3.7043118846    2.0667199426
 H    2.1038766442   -2.0672142497   -0.0427722026
 H    0.2198768079   -3.9266879328    0.3956976851
 H   -0.7749758831   -2.4915221453   -0.0494783692