16

 C   -0.0284412197    1.5558475615    0.0717248484
 C    0.1158769155    0.0705851885   -0.0039690703
 N   -0.7631836714   -0.8664278198    0.7583297615
 C    0.7004352088   -0.9593413737    0.9670798428
 C    1.1997263718   -1.8611395061   -0.1767651561
 C    0.6742170732   -0.7628792126   -1.1431135038
 O    0.8426424475   -0.5414020756   -2.3057777120
 C    1.3159136150   -0.7158279680    2.2211290154
 C    1.8417563469   -0.5139975959    3.2850785347
 H    0.8062023485    2.0490306094   -0.4345732338
 H   -0.9549744737    1.8829439257   -0.4116270331
 H   -0.0459207824    1.8900791895    1.1142709230
 H   -1.1477588486   -0.3197851405    1.5312677954
 H    2.2871506608   -1.9452219846   -0.2430382915
 H    0.7330062500   -2.8460123438   -0.2323787371
 H    2.3064725079   -0.3382896341    4.2237508466