19

 O    0.2267549151    0.2396786141    0.8574364860
 C    0.2938048596    1.4157227921    0.6600189579
 O    0.8041673119    1.9402494442   -0.4670099292
 C    0.9071526802    3.3766597557   -0.5550409660
 C    2.2988600062    3.8391631160   -0.2725719556
 C    2.8009816124    4.1125342376    1.1210068955
 C    2.7925348331    5.2375065089    0.1232103786
 C    3.9876958371    5.1069958344   -0.8291035645
 C    3.4930551941    3.6770145592   -1.2270591521
 H   -0.0666237377    2.1882841188    1.3687693062
 H    0.6030519162    3.6226198753   -1.5769252924
 H    0.1925859801    3.8437470567    0.1357830346
 H    2.0381168196    4.1715425632    1.8917296560
 H    3.7410276888    3.6819271545    1.4585621822
 H    2.2129428157    6.1376865723    0.2923849189
 H    3.9491571411    5.8053355271   -1.6675562769
 H    4.9748273771    5.1779046433   -0.3616899749
 H    4.1623690614    2.8385941763   -1.0141276931
 H    3.1902183280    3.6207347803   -2.2755175713