16

 O    0.0952861080    1.3304836278    0.1511783962
 C    0.0042877576   -0.0804517281    0.0233647348
 C   -1.4714530202   -0.4468345075   -0.0535734192
 N   -2.0192616862   -0.0571194460   -1.3401869542
 C   -1.3626047153   -0.2360812204   -2.5198554250
 O   -1.8656631762   -0.1274620297   -3.6191033665
 N   -0.0037834060   -0.5654143120   -2.3788602809
 C    0.7585238385   -0.5186821079   -1.2241131375
 N    2.0111682171   -0.7357620039   -1.1284186590
 H    1.0329050370    1.5538068950    0.1197900883
 H    0.4640222097   -0.5896294917    0.8787418457
 H   -1.5824783532   -1.5263001108    0.1275059490
 H   -2.0047126543    0.0874946502    0.7362359103
 H   -3.0078609029    0.1062028681   -1.4369435444
 H    0.4587498110   -0.7020363474   -3.2668786533
 H    2.4353374754   -0.9479497658   -2.0343954545