16

 C    0.0607030268    1.4800899719    0.0604395917
 N   -0.0316168442    0.0173072089    0.0266078972
 C   -1.3785803152   -0.5337262813   -0.0175294752
 C   -1.2771264368   -2.0985750092   -0.0450359756
 O   -2.5255259935   -2.7251151654   -0.0561791838
 C   -2.1104642314   -0.1693757963    1.2137616554
 N   -2.6881864110    0.0415598181    2.1911781023
 C   -2.1626189622   -0.0731561945   -1.1952740940
 N   -2.6744260617    0.3089145876   -2.1581110343
 H    1.1176261306    1.7550114998    0.0638787555
 H   -0.4324727158    1.9756172604   -0.7882694303
 H   -0.3864600804    1.8493317052    0.9875916720
 H    0.4829466460   -0.3457446081   -0.7697713021
 H   -0.7695757130   -2.3794714686   -0.9729988889
 H   -0.6452862167   -2.3839734663    0.8049133934
 H   -2.9284962312   -2.6340382521    0.8151765067