19

 C    0.1905405175    1.4321555042    0.3476657172
 C   -0.1577486009    0.0155880408   -0.1176198461
 C    0.6731429724   -0.4543543949   -1.3116607053
 C    2.0539201537   -1.0435015824   -1.0368497264
 C    0.9375065179   -1.9485590781   -1.4640110762
 C    0.5091022597    0.3048588813   -2.5174139732
 C    0.3469905575    0.9607362663   -3.5243202355
 C    0.1738557096    1.6873111217   -4.6605587819
 C    0.0191213235    2.3338546660   -5.6694970697
 H    1.2395041438    1.5002627450    0.6543228709
 H    0.0295614770    2.1579057913   -0.4549766269
 H   -0.4303842102    1.7256325109    1.1993474418
 H   -0.0033605087   -0.6952617629    0.7030543991
 H   -1.2202684250   -0.0391185584   -0.3824599597
 H    2.8434348066   -0.8305656977   -1.7472654771
 H    2.3704135129   -1.0670568851    0.0006083998
 H    0.4840740329   -2.5987012341   -0.7235928926
 H    0.9610674062   -2.3522043451   -2.4690405514
 H   -0.1158966865    2.9006142214   -6.5567175468