19

 O    0.0457313780   -0.0439134678   -0.1767331569
 C    0.0470431877    1.1496507470   -0.2138642940
 O    1.0613134676    1.8947096519    0.2596384722
 C    0.9695594883    3.3277344232    0.1693037624
 C    1.0201300510    3.9280063925    1.5729539856
 C    1.1128566883    5.4562085797    1.4804629053
 O    2.2211240089    5.8687266959    0.7022929822
 C    2.1461355482    5.3894497278   -0.6276218961
 C    2.1241257405    3.8566880042   -0.6794086619
 H   -0.7751352762    1.7615789706   -0.6361832159
 H    0.0133920245    3.5905379294   -0.3076789489
 H    0.1361835048    3.6345824026    2.1494980808
 H    1.9024705782    3.5382072571    2.0915773362
 H    0.1789198856    5.8651583078    1.0558263363
 H    1.2485015184    5.8967948914    2.4715290646
 H    1.2485968934    5.7960574725   -1.1265065198
 H    3.0230067093    5.7821539395   -1.1487815598
 H    3.0647474112    3.4631150947   -0.2796959227
 H    2.0303563123    3.5122007700   -1.7149752695