19

 O    0.0431958299    1.2681294209   -0.6604742695
 C    0.0605074044    0.1588283264    0.2211523100
 C   -1.3107161961   -0.4508940560    0.3608137741
 O   -1.7685756176   -1.1512754779   -0.8413359493
 C   -1.5471466452   -1.8862896600    0.3376012004
 C   -0.7086101283   -3.1641983732    0.5048047978
 C   -1.3130917871   -3.2314038555    1.9417503209
 C   -2.5189903300   -2.8554727010    1.0254922092
 C   -1.9842862264   -3.9295816567    0.0223362508
 H   -0.3247736315    0.9488185288   -1.4925943588
 H    0.7706863427   -0.6127200486   -0.1117284447
 H    0.4036246611    0.5386305797    1.1899387594
 H   -2.0710263210    0.2055533509    0.7858559847
 H    0.3248836519   -3.3392271535    0.2078131407
 H   -1.3547098688   -4.2277389049    2.3870174255
 H   -0.9784896745   -2.4794415595    2.6608548423
 H   -3.5512973990   -2.6730839397    1.3221154898
 H   -2.2647993925   -3.8062945305   -1.0250563013
 H   -2.0668426519   -4.9692574398    0.3490132480