18

 N   -0.0808733232    1.5438758311    0.0013948664
 C   -0.0036899628    0.0836364605   -0.0510043193
 C   -1.3449412528   -0.4771936389    0.1653383141
 N   -2.3992889915   -0.9229163902    0.3179535663
 C    0.6284544457   -0.5151019485   -1.3433373807
 O   -0.1045231455   -0.1656294320   -2.5018349942
 C    2.0912688459   -0.0957103232   -1.4475865587
 C    2.8197436961   -0.1946039273   -2.7295515562
 N    2.4671257841    1.1303712543   -2.1761615409
 H    0.8008268370    1.9633833330   -0.2753725168
 H   -0.8301542181    1.9174884820   -0.5696014520
 H    0.6226487801   -0.2466902693    0.7884626611
 H    0.5787677672   -1.6080689696   -1.2655912515
 H   -0.4669030836    0.7186833094   -2.3744481894
 H    2.6569807108   -0.2431927517   -0.5286971901
 H    3.8804462113   -0.4254929797   -2.7313758870
 H    2.2616731907   -0.5408960049   -3.5938982208
 H    1.6524481885    1.4555217951   -2.6939914004