20

 C   -0.0426104749    1.3901145810   -0.0109616541
 O   -0.0212236111   -0.0145597123    0.0038938484
 C    0.6287609919   -0.5640210563   -1.1228442369
 C    0.6097641748   -2.0563846616   -1.0317167004
 C    0.0519641849   -2.7992116804   -0.0185824157
 N    0.2481598928   -4.1244116843   -0.3137171892
 C    0.9242138177   -4.2375160846   -1.5026668663
 C    1.1682804199   -2.9704422417   -1.9822291189
 C    1.8801617608   -2.6149549974   -3.2524602782
 H    0.9738655793    1.8162514748   -0.0123270912
 H   -0.5769813381    1.7833665605   -0.8910891659
 H   -0.5614879791    1.7206860348    0.8923559900
 H    0.1320043947   -0.2213680401   -2.0501544487
 H    1.6676107100   -0.1878311108   -1.1807001123
 H   -0.4605869753   -2.4840534759    0.8740726849
 H   -0.0572539816   -4.8937085351    0.2545461579
 H    1.1781123025   -5.2021471938   -1.9134942958
 H    1.2413191783   -2.0396079676   -3.9345327054
 H    2.7728856247   -2.0044298110   -3.0663015138
 H    2.2041320478   -3.5124546882   -3.7875938785