21

 C    0.0834986747    1.3144725472    0.0954620603
 O   -0.0991555903   -0.0639640989    0.3414002502
 C   -1.3904055809   -0.5680572395    0.0810262960
 C   -2.4710838802    0.0557535425    0.9577334016
 C   -1.7743858393   -0.7260885414   -1.4190605891
 O   -1.9260956236   -2.1547746752   -1.2628975874
 C   -1.3855238570   -2.0979234926    0.0573974064
 C   -0.3146366346   -3.0205042419    0.5266389219
 C   -1.7227007754   -3.1004083784    1.1062743498
 H    1.1520170788    1.5142026402    0.2055599416
 H   -0.2200831006    1.5945417861   -0.9244973622
 H   -0.4643002437    1.9479768155    0.8064596782
 H   -2.6245882280    1.1137108090    0.7235910550
 H   -3.4211070700   -0.4626780903    0.8033486544
 H   -2.1985438647   -0.0274545886    2.0145457869
 H   -2.7045876728   -0.2528602371   -1.7511781224
 H   -0.9575651544   -0.4740629169   -2.1063046736
 H   -0.0107537700   -3.8072975530   -0.1554231300
 H    0.4787474309   -2.6037016448    1.1368703598
 H   -1.8890730318   -2.7591294428    2.1231570436
 H   -2.3426321470   -3.9371002288    0.8016842187