17

 C   -0.0470658081    1.5321122614   -0.1215190003
 C   -0.0350013803    0.0375343491    0.0657158543
 O    1.2146787321   -0.6362634612   -0.0982862947
 C    0.6207721306   -0.6274195212    1.2117919543
 C    1.3262079865    0.0721272058    2.3641150748
 C    1.1202671464   -0.8745042639    3.5618664938
 O    1.4664859700   -0.6632025620    4.6991644073
 C    0.4155295557   -2.0760599380    3.0482956999
 C    0.1527469538   -1.9359580618    1.7422995909
 H    0.8190723857    1.9983117722    0.3529998319
 H   -0.0255730351    1.7782378824   -1.1881036119
 H   -0.9591755298    1.9638980612    0.3042102332
 H   -0.8756131508   -0.4883949323   -0.3934175522
 H    2.3951120882    0.1820140709    2.1590797021
 H    0.9307190269    1.0636046082    2.5996085646
 H    0.1725495314   -2.9204944636    3.6801476257
 H   -0.3340739334   -2.6603721272    1.0989647263