19

 C    0.0049492928    1.7352043737    0.3023208253
 C   -0.0558495764    0.2524556260   -0.0145199801
 C    0.9513076070   -0.3129380158   -0.9696561727
 C    1.0620574114   -0.6574083348    0.5101455914
 C    2.1410767894   -0.1265120888    1.2923492333
 N    3.0064220977    0.3092987322    1.9254415517
 C   -1.4530610164   -0.3070685694    0.0403818033
 C   -2.3083947683   -0.3540285979   -1.1735273659
 N   -1.8388414428   -1.5987269482   -0.5390593865
 H    1.0344176560    2.0985682983    0.3453097795
 H   -0.5319513047    2.3067237131   -0.4615832363
 H   -0.4616539723    1.9452655213    1.2705339516
 H    0.6819121719   -1.1228440502   -1.6394494674
 H    1.6923688983    0.3658046221   -1.3756605945
 H    0.7624308930   -1.6608881025    0.7943753174
 H   -1.9441887787   -0.1157238463    0.9934537092
 H   -3.3769159916   -0.1742170906   -1.1015853341
 H   -1.8564442475   -0.0523981374   -2.1151797804
 H   -1.0820695290   -2.0014256949   -1.0865595549