14

 O   -0.2839279289    0.4827979520   -0.6760763625
 C    0.2010857643    1.1062872733    0.2392916805
 C    1.4163448741    1.9187960599    0.1149273606
 O    1.9169409719    2.6954465244    1.1978023775
 C    2.7639406128    3.3620611770    0.2177205670
 C    3.7950403848    2.2680995893   -0.1744630955
 C    2.6052376171    1.5725189078   -0.8332456269
 C    1.8499425955    2.8706766344   -0.9680795339
 H   -0.2460442356    1.1168567654    1.2569440747
 H    3.0333493915    4.3778508963    0.4958518259
 H    4.5035690715    2.6294462145   -0.9234939007
 H    4.3153333346    1.7755678828    0.6516028970
 H    2.5604428785    0.7001615939   -1.4708751644
 H    1.2939922980    3.3357440991   -1.7697527994