17

 C    0.9093453643    0.3420064736    0.7454711493
 C   -0.2267752449    0.1678864935   -0.2358464885
 O   -0.3746274233    0.8621640482   -1.2130981786
 C   -1.2450745188   -0.9406551728    0.0683372314
 N   -0.7324290071   -2.1448486183    0.7878343946
 C   -1.8069183857   -2.0656161065    1.8213461203
 C   -2.1726292800   -0.7132685246    1.2531884980
 N   -2.8786235578    0.2832452200    1.5747002510
 O   -3.5535062641    0.0530979168    2.7828172097
 H    1.5563946000    1.1560272524    0.4180404677
 H    0.5100153884    0.5618570248    1.7421316196
 H    1.4709892029   -0.5918054349    0.8366348349
 H   -1.7917220258   -1.1425920387   -0.8614408775
 H   -0.7528252673   -2.9899739217    0.2292181020
 H   -2.6138845712   -2.8040667931    1.7232888664
 H   -1.4434786943   -2.0821849611    2.8541856948
 H   -4.0407352352    0.8754447127    2.9050654750