18

 C   -0.0237096417    1.5392310311   -0.0161404257
 C    1.4051070509    2.0864972987    0.0370301646
 O    2.0843810361    1.7349489547    1.2430947128
 C    1.9463647423    0.4181724165    1.5720591335
 C    2.6934089987   -0.2659949303    2.5024236375
 N    2.1835713236   -1.5474705779    2.5420552960
 C    1.1456422049   -1.6758066739    1.6588495448
 C    0.9649622167   -0.4616562892    1.0309219425
 C   -0.0152276261   -0.0016989083   -0.0095855490
 H   -0.5736225343    1.9159542997    0.8541638076
 H   -0.5220129869    1.9245977554   -0.9120308370
 H    1.9800141425    1.7156711394   -0.8265117743
 H    1.4129252547    3.1791255432    0.0068910009
 H    3.5108976674    0.0464062463    3.1288924990
 H    2.5311735543   -2.2809925452    3.1321372090
 H    0.6201112839   -2.6111110052    1.5485614623
 H   -1.0222218767   -0.3886965036    0.1826719360
 H    0.2686277597   -0.3655521513   -1.0071033106