22

 C    0.4102624382    0.8664388195   -0.6098401810
 C    0.1352897653   -0.1176798059    0.5297639083
 O    0.2349394279    0.5592311461    1.7873189644
 C   -1.2758844602   -0.7260175799    0.5048724608
 C   -1.4330265954   -2.0823782160   -0.2073559654
 C   -2.8830561683   -2.5664492169   -0.0510469030
 C   -1.0485001371   -2.0464752126   -1.6944214526
 O   -0.5544482110   -2.9757796229    0.4918237267
 H    1.4268236197    1.2718420581   -0.5360168100
 H    0.3168574964    0.3967108041   -1.5924527114
 H   -0.2931852473    1.7041271890   -0.5575695610
 H    0.8637532501   -0.9400628582    0.4950925710
 H    1.1034508570    0.9721868174    1.8286936922
 H   -1.5617867650   -0.8802459234    1.5494709024
 H   -1.9881112791   -0.0099609377    0.0784044317
 H   -3.5875911491   -1.8877461471   -0.5429656229
 H   -3.0082718608   -3.5584928182   -0.5010796698
 H   -3.1478680368   -2.6359068105    1.0075257208
 H    0.0135343697   -1.8229332823   -1.8196234669
 H   -1.2408333263   -3.0215940386   -2.1583667951
 H   -1.6317017867   -1.3007905255   -2.2444130909
 H   -0.6147534913   -3.8386510885    0.0684925818