17

 N   -0.0723955660   -1.1378210117   -0.1977521437
 C   -0.0501425154    0.0091599777   -0.0658596534
 C    0.0169025024    1.4726173816    0.0567110639
 O   -0.6394975338    1.8528364273    1.2489868834
 C   -0.5802774730    3.2684172013    1.4035025429
 C    0.8433175860    3.7167751129    1.7225995057
 N    1.8588610545    3.0984954015    0.8493404861
 C    2.3240588271    1.7593205662    1.2161045262
 C    1.4683465642    1.9525995753    0.0218253869
 H   -0.5158454191    1.9023923124   -0.8094417769
 H   -0.9460108408    3.7525519377    0.4840756100
 H   -1.2649985800    3.5217061634    2.2163659095
 H    0.9132926172    4.8052844380    1.6121707965
 H    1.0803065073    3.4797131376    2.7652313987
 H    3.3900811405    1.5833351777    1.1040407631
 H    1.8624437756    1.2816902638    2.0781192867
 H    1.9083332934    1.9360528274   -0.9730205756