17

 O   -0.0038665522    1.3695299690    0.2341619363
 C   -0.0206147018   -0.0175512748    0.0295060142
 C   -1.4756842037   -0.5355433737   -0.0028902060
 C   -1.5520836419   -2.0533803958   -0.2492114088
 O   -0.3160276668   -2.6704968605    0.1281513082
 C    0.5939759802   -2.7959998885   -0.9014661518
 O    0.8516327322   -1.6113253396   -1.6864419106
 C    0.7216019038   -0.3377268116   -1.2724086240
 O    1.1445845616    0.5518122861   -1.9689235416
 H    0.4183251815    1.7409103348   -0.5567687131
 H    0.5050521241   -0.5178178545    0.8526242014
 H   -1.9222887841   -0.2724172654    0.9597420681
 H   -2.0293208298    0.0115248298   -0.7724508529
 H   -2.3273050242   -2.5190767743    0.3637023813
 H   -1.7717697525   -2.2795274700   -1.3002418338
 H    1.5370481958   -3.1214163334   -0.4523938303
 H    0.2618701878   -3.5172358976   -1.6605224666