21

 C   -0.0303401683    1.5081582099   -0.0013682578
 C    1.2778639993    0.7378499472    0.0326946545
 C    2.0677071761    0.5852313654    1.3250046299
 O    1.9508562222   -0.7201520433    1.8802062796
 C    0.6230139507   -0.9859422847    2.2947215359
 C   -0.3633577965   -0.9746719833    1.1273497184
 C   -0.2784399557   -2.1006926707    0.0526999608
 C   -0.4311419638   -1.0198557617   -1.0579529601
 C   -0.0437287934    0.0162009304   -0.0028234587
 H   -0.3371348330    2.0303626914    0.9015797043
 H   -0.2876651421    2.0242258157   -0.9211765622
 H    1.8627297568    0.7332302196   -0.8826236478
 H    3.1352701818    0.7388318958    1.1483217289
 H    1.7415169859    1.3273359091    2.0735159898
 H    0.6402388075   -1.9687172525    2.7778528941
 H    0.3178224966   -0.2433147257    3.0536968130
 H   -1.3868886743   -0.8638445184    1.5036469526
 H    0.7181606312   -2.5497389316    0.0413917476
 H   -1.0309316230   -2.8908821350    0.0960842813
 H    0.2064318100   -1.1043889598   -1.9425363130
 H   -1.4718845781   -0.9128842479   -1.3824268912