19

 C   -0.0742950576    1.5812552410    0.1755994806
 C   -0.0627637339    0.0556498848    0.0254255926
 C    0.8443827803   -0.6263036591    1.0560514760
 N   -1.4184100105   -0.4907441915    0.0699959567
 C   -2.3101667343   -0.4491136080    1.1034984068
 C   -3.4456442421   -1.0997062421    0.6577204264
 O   -4.6277452272   -1.3384980520    1.2913160288
 C   -3.1459546423   -1.5006274488   -0.6578900515
 N   -1.9133306997   -1.1253719777   -1.0025377731
 H    0.9372830841    1.9789345362    0.0501758551
 H   -0.7228646848    2.0395220090   -0.5754582220
 H   -0.4303814756    1.8811940342    1.1668181072
 H    0.2803359770   -0.2024179078   -0.9796149908
 H    0.5211221996   -0.4057756009    2.0788616661
 H    0.8379880228   -1.7108510951    0.9202009466
 H    1.8726362967   -0.2686371834    0.9467749646
 H   -2.0798235741    0.0228981641    2.0450598798
 H   -4.5904589010   -0.9683447053    2.1781055479
 H   -3.7738128376   -2.0388512774   -1.3510677179