15

 C    0.3039437411    1.4585001673    0.2138863815
 O    1.1898310612    0.3774145743   -0.1066145764
 C   -0.1924096315    0.0853066899    0.0863292872
 C   -0.5295273552   -0.7838384404    1.2845123660
 C    0.1275800845   -2.1939421169    1.1920792525
 O    0.9813928501   -2.2600484270    2.3600177000
 C    0.7964876453   -1.0895439151    3.0049125863
 N   -0.0053439539   -0.2235898196    2.5438736664
 H    0.4296036804    1.8754274878    1.2087495986
 H    0.1294049813    2.1686722562   -0.5928716270
 H   -0.7215998262   -0.1916774920   -0.8281674616
 H   -1.6217908407   -0.8545828118    1.3511799240
 H   -0.5895625442   -3.0162369199    1.2493427895
 H    0.7564352761   -2.3143666491    0.3068740764
 H    1.3720005217   -0.9873646636    3.9183856367