17

 C    0.9014913601    1.0260353909    0.2474648260
 C    0.4083376515   -0.3370784454    0.1158786998
 C    0.0042120691   -1.4670187827    0.0157428299
 C   -0.5058027023   -2.8271772148   -0.1488401225
 C   -2.0349395780   -2.8788138307   -0.2851559248
 C    0.1836975846   -3.4843791185   -1.3632394873
 O   -0.4308475534   -3.8834370404   -2.3247880746
 C    1.6268387406   -3.6157196346   -1.2687636974
 C    2.8176322715   -3.7637922465   -1.1769471626
 H    1.3034655218    1.2100158460    1.2498009970
 H    1.7012519340    1.2277642693   -0.4735636609
 H    0.1038650614    1.7555702546    0.0696282831
 H   -0.1970122693   -3.4204321146    0.7254303883
 H   -2.3585999293   -2.3243339806   -1.1680120162
 H   -2.3734498597   -3.9121820941   -0.3909541489
 H   -2.5009701044   -2.4373661191    0.5986073411
 H    3.8705777221   -3.8916905388   -1.1072895101