20

 C    0.2552538074    1.3961206083   -0.3313835697
 C    0.0369055692   -0.0603821753    0.1099197690
 C    0.5994790767   -0.3168904124    1.5175873262
 C   -1.4265626237   -0.4814916620   -0.0078367251
 C   -1.9530638693   -0.9463293110   -1.3640012376
 C   -1.7516938952   -1.9484917865   -0.2814515508
 C   -2.4320197799    0.2251517956    0.8336141570
 O   -3.6181131404   -0.0145985416    0.8311359349
 H    1.3201434580    1.6497332768   -0.3180498571
 H   -0.1202626383    1.5623590366   -1.3458684102
 H   -0.2557777365    2.1015861359    0.3330969138
 H    0.5968379860   -0.6993319599   -0.5862805789
 H    0.4676549804   -1.3628777806    1.8114641691
 H    1.6689478004   -0.0860693539    1.5556332110
 H    0.1049650761    0.3060236616    2.2711120700
 H   -2.9714766131   -0.6631381195   -1.6034030505
 H   -1.2504675713   -0.9203321372   -2.1900735084
 H   -0.9075494000   -2.6266272225   -0.3467703124
 H   -2.6341802339   -2.3416616075    0.2097771506
 H   -2.0248427726    1.0202625451    1.4952977189