16

 O   -0.2922946178    1.5033919195   -0.2122008860
 C    0.0405989275    0.1413293602    0.0208351650
 C   -1.2046320188   -0.7969168786    0.1754872521
 C   -1.3809656855   -1.5356013528   -1.1767737131
 N   -0.0497517095   -1.3856082664   -1.7511973184
 N    0.5211384172   -1.9389316417   -2.8225484190
 N    1.7235449732   -1.4146404795   -2.9088767872
 C    1.9074588616   -0.5249666795   -1.8921373098
 C    0.7605295670   -0.4986227041   -1.1293171245
 H   -0.5343435664    1.6026058077   -1.1394188751
 H    0.6283402990    0.1511540323    0.9417102479
 H   -1.0107826955   -1.5266358272    0.9663183372
 H   -2.0824094433   -0.2143777459    0.4590322984
 H   -1.6353687680   -2.5911273516   -1.0655573237
 H   -2.1256204141   -1.0703332114   -1.8303401450
 H    2.8322719135    0.0161663888   -1.7784810387