16

 O    0.2743611251    1.5263629696    0.1030708796
 C    0.0753683439    0.1228478582    0.0470974268
 C    0.6088493685   -0.4443279030   -1.2061796154
 N    1.0368205357   -0.8954256303   -2.1796798000
 C    0.7072280832   -0.5453953907    1.2786099785
 O    2.0119593746    0.0140628541    1.5360797163
 C    1.6072722129    0.5074040492    2.8419380300
 C    0.1678334937   -0.0262330382    2.6469523090
 O   -0.8877097894    0.8877707924    2.6301250007
 H    1.2246014838    1.6403913589    0.2592825722
 H   -1.0065346805   -0.0448515749    0.0732768835
 H    0.7414158785   -1.6335324854    1.1559344554
 H    2.1928289083    0.0449474924    3.6432538758
 H    1.6823300878    1.5985712146    2.9137510823
 H   -0.1168660036   -0.8202461453    3.3393620793
 H   -0.6814908025    1.5609307283    1.9648229361