20

 C    0.0520192345    1.5304165883   -0.0749173688
 C   -0.0449636581    0.0205451729   -0.0285323703
 C    1.1209280697   -0.7826255978   -0.4794909125
 N    0.7684384830   -0.7172624250    0.9528190749
 C   -1.4485058603   -0.5944754022   -0.1853118971
 O   -1.4070894429   -1.9731151116    0.0975294798
 C   -2.4816629694    0.1231043101    0.6754617962
 C   -3.5360151228   -0.6086174154    1.3820888353
 O   -2.3933835844   -0.1010575564    2.0832711352
 H    1.0979037857    1.8529036471   -0.0668544967
 H   -0.4086805335    1.9274805896   -0.9868883838
 H   -0.4500656583    1.9904408555    0.7821394670
 H    0.9651976075   -1.7565109488   -0.9321381533
 H    2.0028489320   -0.2470088836   -0.8205241858
 H    1.3853500081   -0.0928873423    1.4638366442
 H   -1.7615145897   -0.4846058877   -1.2338523423
 H   -0.8065184357   -2.0467024978    0.8586227545
 H   -2.6809906562    1.1593706644    0.3961639583
 H   -4.4775375700   -0.1090480576    1.6061571156
 H   -3.5717547994   -1.6899592417    1.2864589096