16

 N   -0.1605970328    1.3015250697   -0.2206407268
 C   -0.0391758109    0.1010379620    0.1525887731
 O    1.0843715378   -0.3534400448    0.7893136802
 C    1.3248101579   -1.7648386604    0.8574686936
 C    0.1341912316   -2.5272448979    1.3875977453
 C   -0.7816575590   -1.8701129367    2.3613959349
 C   -1.2230286515   -2.0371779963    0.9072613655
 C   -1.2088264828   -0.8723743911   -0.0125392951
 O   -2.0501475320   -0.6921633635   -0.8584483953
 H    0.6985930055    1.8196782296   -0.0195121656
 H    1.6087440706   -2.1377535062   -0.1359905340
 H    2.1903172191   -1.8680515430    1.5178957909
 H    0.2756397659   -3.6017837802    1.4491845073
 H   -1.2993691626   -2.4914408755    3.0821735730
 H   -0.5407817128   -0.8725192777    2.7096713550
 H   -2.0078226641   -2.7533340781    0.6962548980