18

 C    0.2071838307    1.5325866107   -0.0545581925
 C    0.0504032338    0.0173969353   -0.0368998539
 O    0.6528381888   -0.4953639919   -1.2142619471
 C    0.6856769568   -1.9023519262   -1.3008485967
 C    1.4921930489   -2.5098222729   -0.1693532391
 N    2.6379833506   -1.7133410078    0.2543446824
 C    1.4494097379   -1.8098331190    1.1486519690
 C    0.5896106634   -0.5923213718    1.2673437996
 O    0.2389460354   -0.1644699562    2.3442624741
 H    1.2672021310    1.7959526915   -0.1034627816
 H   -0.2969218948    1.9524015476   -0.9280302608
 H   -0.2243613516    1.9545458684    0.8547248917
 H   -1.0266591212   -0.2385502127   -0.0335013445
 H   -0.3320617207   -2.3306334180   -1.2945250382
 H    1.1446895853   -2.1338702497   -2.2672525609
 H    1.5641698596   -3.5955513089   -0.1613279055
 H    3.3644106019   -2.3142876791    0.6362255777
 H    1.5437554141   -2.3743095996    2.0714717964