17

 O   -0.0048804972    1.2889671943    0.1024008159
 C    0.0168337039   -0.0954921974   -0.0064554605
 C   -0.4317841795   -0.8049482187   -1.2774886829
 C   -0.2908398605   -2.2321807724   -0.7982299682
 C   -0.5872984046   -2.3319794358    0.7066120828
 C   -0.3776124462   -0.8898279935    1.2181927149
 C    1.0660728431   -0.9189007465    0.7322253241
 C    0.8346504783   -2.3688381316    0.2174280338
 O    1.7265977104   -3.4160298990    0.2876821321
 H    0.7104977831    1.6431114319   -0.4372182810
 H   -1.4599403158   -0.5363554453   -1.5433828054
 H    0.2204544783   -0.5778680378   -2.1306366969
 H   -0.5244908216   -3.0886303515   -1.4190863235
 H   -1.1959591046   -3.1069983788    1.1507247805
 H   -0.7833741535   -0.4356332961    2.1111072647
 H    1.9510805266   -0.5123592521    1.2024269217
 H    2.2949308099   -3.3848065196   -0.4906543021