16

 C   -0.0603355973    1.4516691556    0.0036343806
 N   -0.0076875628   -0.0089462854    0.0317441426
 C    0.0599117898   -0.6690994876   -1.2138993292
 N    0.0702246902    0.0560840136   -2.2760436414
 C    0.1095450679   -2.1219715794   -1.1065997333
 N    0.0953214634   -2.7852560528    0.0057862605
 C    0.0291679246   -2.0912086355    1.1773854114
 C   -0.0215849698   -0.7235373992    1.1902186299
 O   -0.0880804690    0.0235640735    2.3124301686
 H    0.8243811528    1.8318486383   -0.5125270741
 H   -0.9324293916    1.7673903619   -0.5738357618
 H   -0.1098269630    1.8339773542    1.0187278983
 H    0.1208332740   -0.5427641852   -3.0983413612
 H    0.1623833295   -2.6781989319   -2.0404526125
 H    0.0177467220   -2.6549392054    2.1035301616
 H   -0.0926021505   -0.5690537248    3.0721578299