19

 C    0.0609700943    1.3664944399   -0.1920328349
 C    1.4512045888    1.8490918708    0.2497153508
 N    2.0946738460    0.5762770857    0.4986767168
 C    3.4274971671    0.4545253904    1.0774785441
 C    3.4631625979   -0.7188806065    2.0644890165
 C    2.6850926142   -1.9194418329    1.5034292098
 N    1.3069532347   -1.5863615634    1.1574596570
 C    1.1472402793   -0.4067553788    0.7274460460
 O   -0.0867956153    0.0742009334    0.4041659511
 H   -0.7537838035    2.0042803498    0.1557001300
 H    0.0000677587    1.2697068581   -1.2827943844
 H    1.9570711588    2.4245174151   -0.5329433577
 H    1.4063262039    2.4732152412    1.1572158596
 H    4.1687365174    0.3118203204    0.2793610743
 H    3.6825258684    1.3929394575    1.5865958409
 H    4.5023529898   -0.9858670204    2.2799788878
 H    2.9980676855   -0.4134439349    3.0088248772
 H    3.2084524789   -2.3197897998    0.6206890888
 H    2.6696264148   -2.7278379656    2.2418726663