23

 C   -0.1910471449    1.5214688615    0.0641946103
 C    0.1062072090    0.0262651701   -0.0313761941
 O   -1.1022917080   -0.6964613637   -0.3129320227
 C    1.1909477454   -0.3445122029   -1.0607712152
 C    1.5542183854   -1.7931152011   -0.6993340975
 C    1.4571466132   -1.8545539134    0.8515949387
 C    2.8262928535   -1.8799003111    1.5231961785
 O    3.4820112664   -3.0871564950    1.1644812632
 C    0.6502547184   -0.5938561171    1.2690877606
 H    0.7080528651    2.0925895504    0.3172688882
 H   -0.5699843045    1.9044115258   -0.8912923314
 H   -0.9515391744    1.7118954617    0.8274137101
 H   -1.4165273265   -0.4138619094   -1.1786701330
 H    0.8414812763   -0.2240324251   -2.0928447171
 H    2.0541768456    0.3212904295   -0.9345795127
 H    0.8220640325   -2.4722304801   -1.1424939781
 H    2.5410699852   -2.0979533106   -1.0551402189
 H    0.9353217976   -2.7660086440    1.1558732646
 H    3.4102250702   -1.0000717575    1.2007436199
 H    2.7027617632   -1.8048501046    2.6161419169
 H    4.3602533482   -3.0816811222    1.5556439925
 H    1.3027382467    0.1317437691    1.7697493016
 H   -0.1720936740   -0.8201380502    1.9515560757