19

 O   -0.2934283454    1.3511397596    0.8699348790
 C   -0.0771992095    0.0827650752    0.2693301361
 C   -1.3747697636   -0.6138332051   -0.0434126072
 C   -2.1672524223   -1.3101956302    1.0557537450
 C   -1.6222224751   -2.0948524811   -0.1043783214
 O   -2.4914593074   -2.4097955156   -1.1673815255
 C   -3.1464300448   -1.2101745735   -1.5616453516
 C   -2.2060498770   -0.0416827034   -1.1740597538
 O   -2.8903427164    1.1335324892   -0.7408053166
 H   -1.0834749631    1.7257008728    0.4603659739
 H    0.5183386119    0.1824327404   -0.6551779809
 H    0.5191735671   -0.5062219248    0.9757814972
 H   -1.6595274436   -1.4152892405    2.0086259854
 H   -3.2355179171   -1.1445858607    1.1342839176
 H   -0.8536967494   -2.8474585577    0.0270363444
 H   -3.3495820253   -1.2768469727   -2.6343490207
 H   -4.1022014394   -1.0764355464   -1.0350031146
 H   -1.5340300325    0.2074276507   -2.0088588582
 H   -3.2449910072    1.5871335040   -1.5123877383