18

 O   -0.7711625347    1.0176418804    0.6494113247
 C    0.0814461593    1.1025412055   -0.1961514144
 C    1.3469537030    1.9054030979   -0.0653759996
 C    1.3918352621    3.0383517539    0.9853611842
 C    1.8477185721    3.9316648517   -0.1592149551
 C    2.9013170214    3.2891989716   -0.9895624576
 C    3.7143491198    2.1321935073   -0.4234438862
 C    2.6303367202    1.0702601933   -0.0992619674
 N    1.4847126974    2.9108012927   -1.2192703735
 H   -0.0064665172    0.5744891944   -1.1725909397
 H    0.3893582886    3.2869134170    1.3369054415
 H    2.0551899195    2.9139824551    1.8466888885
 H    1.5851302860    4.9782720472   -0.2821565440
 H    3.3260699982    3.8899516106   -1.7878898050
 H    4.4381603676    1.7630957274   -1.1544419086
 H    4.2752058923    2.4268887394    0.4690177158
 H    2.8033437094    0.5463992929    0.8447562932
 H    2.5702384251    0.3221717618   -0.8977216469