18

 O   -0.0593924339   -0.0176921913    0.0968496586
 C   -0.0631615849    1.2056812036    0.1035675939
 N   -1.2136681456    1.8875307185   -0.2082546557
 C   -1.6000632083    3.2586657005   -0.0167103294
 C   -1.2205312491    4.0861305007    1.1910717865
 C   -0.6762496169    4.4280187195   -0.1832346267
 C    0.7935627351    4.2795625976   -0.5403787393
 C    1.5672383352    3.1852420506    0.1443854101
 C    1.1947799944    1.9327992425    0.4202570185
 H   -1.9783596955    1.2428682822   -0.3483917131
 H   -2.6048137492    3.4027956722   -0.3984906138
 H   -1.9680906288    4.7322325688    1.6382327195
 H   -0.5323010098    3.6345452854    1.8960357109
 H   -1.1275244014    5.2921192737   -0.6646783102
 H    0.8754860161    4.1379553691   -1.6286546100
 H    1.2947643501    5.2325502361   -0.3342591931
 H    2.5840189087    3.4570176052    0.4207982942
 H    1.9144017537    1.2603789551    0.8764849491