15

 C   -0.0928655195    1.4286367996   -0.0151768270
 N    0.1886319395    0.0032085346   -0.0294920561
 C    0.0627679061   -0.7127057843    1.2276824327
 C    0.0355425571   -0.7024715799   -1.1823824533
 N   -0.0894567277   -2.0181750394   -1.2162674543
 O   -0.1349538835   -2.2904189220   -2.6053763195
 C   -0.0584993707   -1.1155739676   -3.2142086486
 N    0.0439107290   -0.0942010873   -2.4286514455
 H    0.5510218445    1.9156749730    0.7239824284
 H    0.1119901099    1.8486048434   -0.9988297117
 H   -1.1402947909    1.6417519818    0.2478675471
 H   -0.9870012888   -0.8783670444    1.5124444664
 H    0.5504460901   -1.6853733473    1.1450676798
 H    0.5499976165   -0.1323221800    2.0161402121
 H   -0.0865590118   -1.1158705903   -4.2946824405