22

 C    0.1072517255    1.5070222970    0.1101039406
 C   -0.0255184843    0.0087548231    0.4094287050
 C   -1.3966734361   -0.5562143226    0.0603396142
 C   -2.5510971293   -0.0142275331    0.8844910586
 N   -1.6194305841   -0.7732422556   -1.3814065497
 C   -1.5464201954   -1.9408982773   -0.4825898709
 C   -0.4254560181   -2.9028778535   -0.7060203296
 C   -0.2525969304   -4.0842491020    0.1499299105
 O   -0.8074187781   -4.2089085822   -1.1586817100
 H    1.1267194039    1.8525832983    0.3058833576
 H   -0.1223912279    1.7056694927   -0.9413020240
 H   -0.5667417948    2.1111749119    0.7253687886
 H    0.7388951769   -0.5303383005   -0.1563347977
 H    0.1770635798   -0.1824049492    1.4713809080
 H   -2.6788878705    1.0623953393    0.7295756737
 H   -3.4920970041   -0.5046012615    0.6153823259
 H   -2.3826525384   -0.1763194084    1.9550573259
 H   -2.5852257293   -0.5802034488   -1.6350614125
 H   -2.4783561516   -2.4502462123   -0.2385643872
 H    0.4466527344   -2.4978334705   -1.2158378087
 H    0.7385502542   -4.5150768940    0.2862583695
 H   -0.9482416824   -4.2575526006    0.9708070523