22

 C    0.1017400616    1.4581087795    0.2913291178
 C    0.0872099619    0.0051816912    0.1982628641
 C    0.0712244148   -1.1986936158    0.1283698912
 C    0.0572399530   -2.6376425294    0.0150656457
 C   -0.7106598758   -3.3988777761    1.0484160677
 N   -1.2377843374   -3.2877950443   -0.3183119925
 C    1.2705916763   -3.2883918945   -0.6513262097
 C    1.3963069443   -2.8467398717   -2.1143748778
 C    2.5547190050   -3.0198516665    0.1427405790
 H    1.1275134828    1.8398237271    0.3399717302
 H   -0.3821025468    1.9209335503   -0.5761148306
 H   -0.4220353134    1.8054476372    1.1888265994
 H   -0.3711481552   -4.3932476612    1.3275190980
 H   -1.1884841596   -2.8361509592    1.8447262163
 H   -1.9690517038   -2.5813725658   -0.3447564243
 H    1.0676404209   -4.3662733205   -0.6391854130
 H    2.2256596760   -3.3644537858   -2.6068593599
 H    0.4774818477   -3.0706995834   -2.6641120536
 H    1.5819946534   -1.7695274497   -2.1830191991
 H    2.4642764404   -3.3645755439    1.1781830263
 H    3.4056562263   -3.5361363043   -0.3126949151
 H    2.7826386176   -1.9490180333    0.1654192499