15

 C   -0.1598359742    1.5815677235    0.0262731621
 C    0.0510944139    0.0969079368    0.0989715819
 C   -1.1284558784   -0.8997406392    0.1817637054
 N   -0.3612970909   -1.7498480263    1.1397880716
 C    0.7273241920   -0.7370863686    1.2177664035
 C    1.7759567193   -1.0440000013    0.1389356267
 O    2.8034767612   -1.6263261200    0.0253710403
 O    1.0816387279   -0.3641651134   -0.8442974865
 H    0.7878146668    2.1142512283    0.1454956727
 H   -0.5857541110    1.8592083975   -0.9438615785
 H   -0.8493925069    1.9119068267    0.8086274263
 H   -2.0278662038   -0.4425079991    0.6101656829
 H   -1.3886870432   -1.4039670237   -0.7533831828
 H   -0.8330075608   -1.8865857707    2.0247114828
 H    1.0506797580   -0.3896075406    2.1986093716