13

 N    0.0139027828    1.2689523282    0.0093224056
 C    1.1564314865    2.0000572650    0.0018642840
 N    2.3603589130    1.4881607843   -0.0129626776
 C    2.3859600043    0.1399914731   -0.0205453754
 N    3.4386779660   -0.6466473139   -0.0352628437
 C    2.9039755963   -1.9261345480   -0.0368445197
 C    1.5235329892   -1.9993809981   -0.0235170197
 C    1.1164524424   -0.6448399913   -0.0120617948
 N   -0.0638039186   -0.0724537503    0.0028287202
 H   -0.8828194071    1.7331810163    0.0207869930
 H    1.0144383686    3.0766159426    0.0091124560
 H    3.5840916453   -2.7698227164   -0.0482016195
 H    0.9004752714   -2.8790689914   -0.0220895284