14

 O   -0.0221336346    0.0640793203   -0.5054505846
 C   -0.0440105628    1.2039173414   -0.1004900738
 C   -1.2932660699    1.9601549651    0.1185755002
 C   -1.3164037600    3.1510276815    0.7327191799
 C   -0.1034900083    3.7687881506    1.3199113740
 N    0.5952756599    2.9362252419    2.3216427706
 C    1.2353581643    3.1754837484    1.0094456012
 C    1.2874201429    1.9794395544    0.1123105850
 O    2.2865263209    1.6511437160   -0.4756224715
 H   -2.1995004249    1.4819775394   -0.2393519679
 H   -2.2560600767    3.6804517261    0.8657119191
 H   -0.1377327428    4.8404542571    1.4926236419
 H    1.0467592031    3.5257221246    3.0180446177
 H    2.1066697788    3.8217607430    0.9580875381