19

 C   -0.0112786479    1.5163728302    0.0380159002
 C    0.0505214229    0.0181363865   -0.0060819014
 C   -0.8309406719   -0.8662346850    0.8231853993
 C    0.6669113734   -0.9802091428    1.0190605339
 C    1.2398047307   -1.8314245613   -0.1264887173
 C    0.6530498741   -0.7976179902   -1.1473537860
 O   -0.3057550989   -1.2387599319   -2.0851099730
 C    1.3180910654   -0.7006656175    2.2510210885
 C    1.8890051643   -0.4624645820    3.2846240099
 H    0.9319499567    1.9649093903   -0.2928552238
 H   -0.8093444436    1.8946436591   -0.6113866693
 H   -0.2102840946    1.8692019598    1.0547247083
 H   -1.3598156881   -0.3622704332    1.6250146840
 H   -1.3710408090   -1.6918829198    0.3685208169
 H    2.3305750799   -1.8708145438   -0.1374264460
 H    0.8354600317   -2.8459655259   -0.1982386418
 H    1.4598952289   -0.2396802191   -1.6421911617
 H    0.1473662293   -1.7483984011   -2.7643998249
 H    2.3862283267   -0.2565834623    4.1994737244