19

 C   -0.0196022570    1.4782776309   -0.0366312123
 C    0.0259608874   -0.0145827434    0.0756133117
 O    0.2419502475   -0.6629415065   -1.1699396341
 C    0.4834294539   -2.0217120895   -0.8431252111
 C    1.3737243976   -1.9734146004    0.4148455893
 C    0.7162015300   -0.8206241346    1.1519351679
 C   -0.8046126202   -0.8310574496    1.0320500553
 C   -1.4708194111   -2.0873067352    0.4962260226
 O   -0.7264318183   -2.6880968455   -0.5698665476
 H    0.9113172079    1.8614195767   -0.4670242830
 H   -0.8471487966    1.7957010009   -0.6793757617
 H   -0.1584623749    1.9312427508    0.9489185406
 H    0.9146731256   -2.5146978588   -1.7144865007
 H    1.3499733606   -2.9304202684    0.9419555807
 H    2.4107253670   -1.7354624853    0.1565282153
 H    1.1971139643   -0.3533567176    2.0028942505
 H   -1.3692682053   -0.3001756010    1.7925491772
 H   -1.5959165675   -2.8285011135    1.2987930317
 H   -2.4710497808   -1.8491106800    0.1113234279