20

 C    0.2282282635    1.2395126004   -0.0994439773
 C    0.0049962724   -0.2419236711    0.2260905548
 C   -1.4446010865   -0.6620096447    0.0907043107
 O   -2.3349609127   -0.0479034621    0.9872072302
 C   -1.9953978296   -1.0523481539   -1.2717033545
 C   -1.8090696338   -2.0901911758   -0.2024407066
 O   -0.8044319571   -3.0460100978   -0.4363636863
 C   -0.3635956438   -3.7126173616    0.6554763054
 N    0.5423538254   -4.5814657505    0.5340974772
 H    1.2819742681    1.5098666541    0.0120883359
 H   -0.0706154949    1.4698725189   -1.1278037474
 H   -0.3457499545    1.8851804713    0.5743337505
 H    0.6200026952   -0.8677682472   -0.4273848213
 H    0.3281850421   -0.4432255074    1.2552457346
 H   -2.4892013873    0.8532875655    0.6833668508
 H   -3.0123414680   -0.7702619996   -1.5192328240
 H   -1.3013015554   -1.0833914936   -2.1045422835
 H   -2.6979292504   -2.4768641734    0.2899063546
 H   -0.8716285163   -3.4139304227    1.5818761300
 H    0.7514544137   -4.9922849387    1.4416669961