18

 C    0.1736601819    1.5018124660   -0.0908694161
 C   -0.0713169037    0.0101090268    0.0645250135
 O    0.4267388264   -0.6766338558   -1.1100025746
 C    1.1535453524   -1.7859570322   -0.7788641060
 N    1.5247837571   -2.6899441055   -1.5776218941
 C    1.4216187816   -1.7585085001    0.6860376992
 O    2.0682213189   -0.5311969548    1.0863794316
 C    0.6501687816   -0.6398960019    1.2434701010
 C    0.0927104468   -0.5542362427    2.6351862581
 H    1.2475387475    1.7008354544   -0.1078792452
 H   -0.2710099851    1.8637221906   -1.0210312735
 H   -0.2779988522    2.0512423823    0.7411480308
 H   -1.1467463535   -0.2010606248    0.1363990809
 H    1.1845038916   -2.4968117981   -2.5217966529
 H    1.7082166989   -2.6595672296    1.2151367243
 H    0.0387520972    0.4875902992    2.9687452900
 H   -0.9163930424   -0.9762354526    2.6774461717
 H    0.7319857550   -1.1000714612    3.3325864810