18

 C    0.0770596118    1.5497661893    0.4087074913
 C    1.3007974968    0.7979056062   -0.0319270593
 C    2.2531008419    0.3029094352    1.0503302809
 C    1.4204815499   -0.6094524528    1.9869394951
 N    1.0378203566   -0.0023274821    3.2760607799
 C   -0.2272892344   -0.0786818641    3.3342038309
 O   -0.9289982065   -0.6125428523    2.3089891422
 C    0.0593723167   -0.8824004915    1.2704510164
 C   -0.0281230709    0.0738905937    0.1004414003
 H    0.0095925644    1.8789706976    1.4394688374
 H   -0.3840674066    2.2255471793   -0.3030805736
 H    1.7094248182    1.0091660494   -1.0138461774
 H    3.0618932370   -0.2755364170    0.5918306269
 H    2.7153887104    1.1140449030    1.6200967727
 H    1.9738127331   -1.5283972351    2.2044940818
 H   -0.8375780328    0.2594858986    4.1652048929
 H   -0.0900366061   -1.9180530825    0.9603652541
 H   -0.5962742495   -0.2302145150   -0.7707936524