15

 O    0.1506453096    0.1382847454    0.4958345114
 C    0.0609452644    1.2156233681   -0.0043125984
 O   -1.0681618333    1.9532841773    0.0675968600
 C   -1.3104558907    2.9481240603   -0.9415622402
 C   -0.1549015313    3.9152388284   -1.0397923203
 O    0.0324992623    4.6999625962    0.1535613597
 C    1.2692959024    4.0227423513    0.4733392762
 C    1.1824372000    3.1853844619   -0.8194972664
 O    1.1002070082    1.7714158477   -0.6855625150
 H   -1.4784242329    2.4577370667   -1.9088998367
 H   -2.2266386309    3.4558393249   -0.6343787942
 H   -0.2416185166    4.5403257091   -1.9362367497
 H    2.1149989177    4.7158651461    0.5343260022
 H    1.2012846835    3.4409208871    1.3995264775
 H    1.9678181077    3.3588803894   -1.5529227959