17

 O   -0.5976787039    0.5379759337    0.5633848960
 C    0.2379395015    0.8459600429   -0.2455965447
 C    1.2385860747    1.9734610433   -0.0727508540
 C    1.1729877722    2.9533529730   -1.2157779720
 C    1.8800598415    2.7597636573   -2.5017067993
 N    2.3449295414    3.8404340157   -1.6109038590
 C    1.3621824893    4.9655272729   -1.8167968549
 C    0.1689871191    4.1037537956   -1.3303621471
 H    0.3287646781    0.3024440469   -1.2145321861
 H    1.0582585932    2.4600819753    0.8904996918
 H    2.2437101410    1.5302003001   -0.0529917186
 H    2.5871429260    1.9386383549   -2.5738533015
 H    1.3930920953    3.0203770120   -3.4399460156
 H    1.6059875450    5.7995977530   -1.1567220483
 H    1.3288200451    5.3263237937   -2.8499620410
 H   -0.6755287727    3.9538951476   -2.0090685369
 H   -0.2154503068    4.4275498323   -0.3609574189