13

 C    0.0568704105    1.4855533620    0.0137561820
 C   -0.0550237753    0.0081812142   -0.0603558930
 C   -1.1236096431   -0.8448095576    0.0522217448
 C   -2.4774571196   -0.5180535692    0.2820339298
 N   -3.5845165047   -0.2357259480    0.4709046831
 C   -0.5299461299   -2.1366887611   -0.1196519424
 O   -1.2006451272   -3.2879460377   -0.0870638570
 N    0.7605896508   -2.0684338737   -0.3151932670
 O    1.0584750376   -0.6942260956   -0.2762108460
 H    0.7321548706    1.7798381786    0.8233033503
 H    0.4620970700    1.8877158547   -0.9200764974
 H   -0.9255100794    1.9250882607    0.1931314599
 H   -0.5723702303   -4.0095073474   -0.2294459672