20

 C   -0.0304660347    1.5198021140    0.0300780607
 C   -0.0020291011    0.0142066312   -0.0032533675
 C    0.1562313076   -0.7483965254   -1.3349571678
 C   -0.7451432435   -1.8092196337   -0.6858285011
 C   -0.0652131883   -2.5821072327    0.4969936345
 C    1.3590322675   -2.0531667097    0.7886437561
 C    0.7096331478   -0.7118210537    1.2008858630
 C   -0.6413198366   -1.4615009631    1.4197903225
 N   -1.3146004927   -0.7507354206    0.2665467863
 H    0.9661262753    1.9297047427   -0.1749280094
 H   -0.7275897144    1.9129401577   -0.7164683060
 H   -0.3480110698    1.8828490348    1.0137936226
 H   -0.3782688151   -0.2267228541   -2.1343291101
 H    1.1530514876   -1.0234795320   -1.6883893139
 H   -1.4484622328   -2.3753087192   -1.2996023486
 H   -0.2817540306   -3.6459806884    0.5886651148
 H    1.7770901041   -2.5564253341    1.6662903092
 H    2.1066165930   -2.0615852990   -0.0103831815
 H    1.2018127038   -0.0707595196    1.9329252257
 H   -1.1588765070   -1.6041729051    2.3691652305