17

 O   -0.1396911573   -0.0793577443   -0.4028724013
 C   -0.0807751031    1.0707687546   -0.1153424213
 C   -1.1685649141    2.1843724587    0.2371589961
 C    0.0141654948    2.8688584172    0.9353019081
 C    1.0216606677    4.0334666897    1.1131879337
 C    2.0340382882    2.7943005242    1.1103140500
 C    1.5881296559    2.0870291851    2.3798413086
 O    0.1600381336    2.1247671711    2.1795707182
 C    1.0311333119    2.1742034376    0.0508133137
 H   -1.5012235133    2.6885007057   -0.6740222340
 H   -2.0223707197    1.8780488491    0.8423532139
 H    1.1316474238    4.6645872221    0.2313763902
 H    0.9632816443    4.6321458306    2.0254077725
 H    3.0989195151    2.9141787782    0.9180579793
 H    1.9291700242    1.0499459663    2.4562713537
 H    1.8594757608    2.6266974777    3.2947121213
 H    1.1441715072    2.6656062166   -0.9208201025