21

 C    0.2612816911    1.3256437680   -0.6563953579
 C    1.3086213082    2.0873896753    0.2058870844
 C    1.8693686161    1.0072870476    1.1026463123
 C    2.5604262145    1.1178082044    2.4425952479
 C    2.3469022290   -0.2897653966    3.0701700663
 C    1.0333638757   -0.8437471930    2.4469308534
 C    0.9681281296   -0.1503826695    1.1052049633
 C   -0.2184414768    0.1258323611    0.2102220778
 O    2.2191866223   -0.1962738414    0.3851364499
 H   -0.5646922533    1.9679621235   -0.9723108059
 H    0.7454818104    0.9467024703   -1.5585300454
 H    2.0643411799    2.5875880518   -0.4079270027
 H    0.8321422080    2.8554914115    0.8281870575
 H    3.6201447940    1.3825458670    2.3719641273
 H    2.0670413156    1.8990029655    3.0346899129
 H    3.1792337484   -0.9383507115    2.7900741976
 H    2.3087995434   -0.2576893449    4.1620163890
 H    1.0365006859   -1.9362188820    2.3792997012
 H    0.1562830569   -0.5554204487    3.0401146939
 H   -1.0786179655    0.4010636476    0.8336112097
 H   -0.5193022136   -0.7311781858   -0.4005925125