20

 C    0.1131171628    1.3150531312   -0.3792337851
 N   -0.1244411115    0.0463295306    0.3043466619
 C   -1.4549137930   -0.4833883298    0.1594448369
 C   -2.4842395279    0.2086626868    1.0289226986
 C   -1.9007735748   -1.0671486851   -1.1671836415
 C   -1.5319171674   -2.0135822815   -0.0316040199
 N   -0.3625465208   -2.8410111535   -0.1626418224
 C   -2.6219365242   -2.7029709236    0.6316992014
 N   -3.4867424353   -3.2421051674    1.1789807640
 H    1.1682760852    1.5822287654   -0.2752929501
 H   -0.1388349253    1.3011289645   -1.4535505047
 H   -0.4736814354    2.1110494700    0.0890181859
 H    0.5521970926   -0.6419964043   -0.0040885712
 H   -2.6105567784    1.2515143106    0.7195823948
 H   -3.4600264054   -0.2767817138    0.9631113988
 H   -2.1600263776    0.2005710957    2.0732839101
 H   -2.9445529999   -1.0112625646   -1.4547739095
 H   -1.2033971134   -1.0401982363   -1.9993682710
 H    0.1549376301   -2.6779691283   -1.0140597538
 H    0.2510590996   -2.8000970666    0.6423704167