15

 C    0.1267870076    1.5501305536   -0.0984488026
 C    0.0364260050    0.0290173826    0.0294083159
 N    0.6085492387   -0.6320372255   -1.1562036544
 C    1.4660129377   -1.4600149004   -0.7344230530
 O    1.6819035488   -1.5936993028    0.5969546728
 C    0.8376666680   -0.6198713552    1.2290763512
 C    1.6764671564    0.3604843557    2.0289623468
 O    2.8671619667    0.4824735963    1.9330884419
 H    1.1677012898    1.8803138117   -0.1627953109
 H   -0.3838930695    1.8633111075   -1.0120322681
 H   -0.3489438798    2.0526097906    0.7498899685
 H   -1.0192685909   -0.2550262092    0.1031080667
 H    2.0740487672   -2.1121059920   -1.3507588913
 H    0.1644767259   -1.1383409876    1.9217422835
 H    1.0752278883    0.9843341747    2.7293712329