19

 C   -0.0858103458    1.5577432976   -0.0685402254
 C   -0.0098556421    0.0698166373   -0.0170724106
 C    0.0158287646   -1.0159377946   -1.0647548437
 C    1.2882000627   -1.6355901952   -0.5025441959
 C    0.9191249326   -0.9290354637    0.8411123249
 C   -0.3886948789   -1.6594404512    1.2849165450
 C   -1.0392021329   -1.0309469558    0.0598382667
 C    1.9233907905   -0.5500314078    1.7883350942
 C    2.7644135505   -0.2141043428    2.5817250282
 H    0.8671176370    1.9988974070   -0.3821262938
 H   -0.8529717565    1.8776671783   -0.7824369771
 H   -0.3416053512    1.9817887769    0.9090978314
 H   -0.2815953994   -0.9315081336   -2.1022819872
 H    1.3877180902   -2.7264515263   -0.4695949925
 H    2.1836732014   -1.1944692014   -0.9467793979
 H   -0.3349260036   -2.7509521875    1.3666323555
 H   -0.7806747789   -1.2366400226    2.2130302861
 H   -2.0946356739   -0.9572969596   -0.1697037283
 H    3.5074445637    0.0747575750    3.2826598504