18

 C   -0.0691961177    1.3888622486   -0.0036249658
 O   -0.0040865253   -0.0160660310    0.0194528329
 C    0.6077307836   -0.5544722058   -1.1301864562
 C    0.6166669676   -2.0437768869   -1.0289431014
 C    0.1184681339   -2.8101496312   -0.0235737560
 O    0.2759321660   -4.1283255232   -0.2933699959
 C    0.9063131149   -4.2131075741   -1.5040612213
 C    1.1358087263   -2.9669266363   -2.0056551808
 N    1.6712812885   -2.5966852735   -3.2525839880
 H    0.9330770739    1.8441541149   -0.0519686527
 H   -0.6540615604    1.7571775696   -0.8614217776
 H   -0.5573305899    1.7083583457    0.9200758945
 H    0.0705057093   -0.2373190152   -2.0425509584
 H    1.6381247820   -0.1613508944   -1.2315771494
 H   -0.3628000114   -2.5618176588    0.9061407151
 H    1.1044707410   -5.2064670366   -1.8699604049
 H    2.0922134994   -3.3790812976   -3.7381646086
 H    2.3624071682   -1.8594785742   -3.1733407055