17

 C    0.0213827333    1.4764895423    0.0761845822
 N   -0.0541356836    0.0271796386    0.0803153290
 C   -1.2305262374   -0.6504536882   -0.0167630850
 O   -2.3190919661   -0.1155423506   -0.1263448979
 C   -1.0814167049   -2.1730130108    0.0060324454
 C   -0.8501107333   -2.8251239980    1.4084469672
 C   -2.2817798878   -3.3918813745    1.2281473980
 O   -3.0517764806   -4.0126576985    1.9036487144
 N   -2.3560319731   -2.8827382893   -0.0567289704
 H    0.6427149389    1.8385544097   -0.7499417372
 H   -0.9941766738    1.8533141060   -0.0486198345
 H    0.4307800782    1.8584592980    1.0177892232
 H    0.7983006430   -0.5006109327    0.1763145135
 H   -0.3672915552   -2.4884136699   -0.7642644817
 H   -0.0561869123   -3.5715406207    1.4642336563
 H   -0.7605547612   -2.1226486092    2.2390305891
 H   -3.1812491040   -2.5736188621   -0.5527617917