23

 C    0.0989791913    1.6368348647   -0.0322122382
 C    0.0600242872    0.1170200784    0.0216134363
 C    0.9713101035   -0.7079809485   -0.9419749146
 C    1.3098575959   -1.6832973606    0.2336096246
 O    0.7715697544   -2.9742208695    0.1315630538
 C    2.6912739072   -1.5063037566    0.9139466502
 C    3.9721453584   -1.3859062309    0.1017663361
 C    2.1151850792   -0.2578844449    1.6540585330
 C    0.6691908573   -0.6557304595    1.2196657584
 H    1.1178439352    2.0245813521    0.0723480307
 H   -0.2931434774    2.0035166748   -0.9876691032
 H   -0.5082030260    2.0776598278    0.7665471982
 H   -0.9754317814   -0.2187824473   -0.1025855004
 H    0.4603394495   -1.1818469525   -1.7839970307
 H    1.8299187219   -0.1490119302   -1.3252651693
 H    1.1443173185   -3.3952955416   -0.6510184240
 H    2.7836169334   -2.3302616387    1.6310474635
 H    3.9184449061   -0.5670014558   -0.6239092524
 H    4.8320538297   -1.1897476141    0.7517646128
 H    4.1842949626   -2.3085835487   -0.4513367701
 H    2.2903745430   -0.2267259162    2.7312181723
 H    2.4579690016    0.6907552423    1.2308311210
 H    0.0057947988   -0.9663089446    2.0277125919