19

 O    0.2674426547    0.5691974202    1.0521503762
 C   -0.0947483239    0.3961751614   -0.3113361967
 C   -1.4285045800   -0.3252228017   -0.3277038730
 C   -2.0107512183   -0.9166321938   -1.6602477804
 C   -0.9203742781   -1.9185919874   -2.1111494776
 C   -0.5607856886   -2.5694015995   -0.7261664914
 C   -1.5392774174   -1.8047961719    0.1939199398
 C   -2.8020273503   -1.8177506044   -0.6877094225
 O   -3.9251308371   -2.2139941333   -0.5961148261
 H    1.0966913515    1.0554654881    1.0847125140
 H   -0.2077215701    1.3658152041   -0.8223557841
 H    0.6756749638   -0.1679899673   -0.8546839709
 H   -2.1711302834    0.3029025510    0.1729714816
 H   -2.4982663589   -0.3015127729   -2.4140770441
 H   -1.3151863109   -2.6459409335   -2.8251816438
 H   -0.0665514089   -1.4253405121   -2.5816334175
 H   -0.7439854499   -3.6465431179   -0.7099381677
 H    0.4809424952   -2.4055283094   -0.4404043342
 H   -1.5591858096   -2.0483075795    1.2530586584