20

 C   -0.2641940707    1.4640032396    0.0550495258
 N    0.1278929013    0.0630881706    0.0112941014
 C    1.2145486668   -0.3702238557   -0.8992953286
 C    1.8742217579   -1.1148251169    0.2660142002
 O    2.3492875305   -2.4132777440    0.2067549029
 C    2.2036330171   -0.1467407694    1.3734572078
 O    2.6191721526    1.1745183509    1.1628603480
 C    0.7621534042   -0.5653774173    1.1698881512
 C   -0.0785072705   -1.1884228497    2.2454339267
 H    0.5730291756    2.1573919268    0.2129904801
 H   -0.7699894905    1.7230119246   -0.8819240483
 H   -0.9876452365    1.6055049348    0.8650331681
 H    0.8556299703   -1.0325888379   -1.6942855408
 H    1.8084297887    0.4434936963   -1.3371873643
 H    3.2946887722   -2.3901089962    0.0225254745
 H    2.6644704241   -0.6410750209    2.2319784659
 H    3.5085652807    1.1588686128    0.7921190335
 H   -0.5531011096   -0.4217330452    2.8692847132
 H   -0.8680170715   -1.8024293356    1.8023397365
 H    0.5292030474   -1.8200299276    2.8996825961