22

 C   -0.0881981387    1.7364685044   -0.0831679168
 C   -0.0788185472    0.2122259418    0.0039752141
 N    0.5349582451   -0.3886218585   -1.1656843149
 C   -0.1776917676   -0.3440560694   -2.4578161403
 C    0.3381086532   -1.7733387933   -2.7709146970
 C    1.5361416015   -1.8438994669   -3.7104043076
 C    0.6487476971   -1.8507161822   -1.2313178624
 C    1.9858666963   -2.4154928536   -0.8052424626
 O    2.1996026714   -3.5889751604   -0.6349004596
 H    0.9299901913    2.1223610594   -0.1866196931
 H   -0.6689552986    2.0789009133   -0.9461974843
 H   -0.5386283660    2.1714647607    0.8138700278
 H    0.4954734946   -0.1058471178    0.8832961822
 H   -1.1126855085   -0.1596421001    0.1510141815
 H   -1.2740468849   -0.3093257089   -2.3484093118
 H    0.1355134032    0.4611761803   -3.1318469615
 H   -0.4335925888   -2.4771710822   -3.0863420547
 H    2.3060748146   -1.1182951179   -3.4288941561
 H    1.9883964143   -2.8406413090   -3.7047654958
 H    1.2268618278   -1.6218744164   -4.7371581868
 H   -0.1493869225   -2.3972876071   -0.7026399782
 H    2.7819602726   -1.6450351462   -0.6848064720