20

 C   -0.0397723299    1.5268670527    0.0605970052
 C    0.0092460018    0.0081109643   -0.0147823228
 C    0.6988505118   -0.5141204288   -1.2798408770
 C    0.7757323536   -2.0507472796   -1.2540374073
 C    1.2993968488   -2.5346327693    0.0725117802
 C    0.7282211886   -1.8506822972    1.2945281170
 O    0.7114479159   -0.4405846925    1.1411158129
 N    2.1695770260   -3.4677028205    0.0675310820
 O    2.5423632592   -3.8652043035    1.3641606417
 H    0.9729920181    1.9412163355    0.0416648610
 H   -0.5993636591    1.9363277557   -0.7856848821
 H   -0.5228790452    1.8474725686    0.9872425598
 H   -1.0211280555   -0.3930823973    0.0168394528
 H    0.1582314858   -0.1770872812   -2.1710763011
 H    1.7086482334   -0.0888736262   -1.3234769123
 H   -0.2385923516   -2.4546611955   -1.3922093372
 H    1.3940238450   -2.4486180624   -2.0622625082
 H   -0.2942086914   -2.2297640036    1.4744387754
 H    1.3316367458   -2.0664762673    2.1753060903
 H    3.2295361190   -4.5146990919    1.1834156797