17

 O   -0.2349357848    0.0225612437    0.0888055553
 C   -0.0635450167    1.2097501008    0.0302256022
 C    1.2798813378    1.9179800008    0.0200544142
 C    1.4233753931    2.9164346434    1.1802561737
 N    1.3898118019    2.2778763766    2.5091130819
 C    2.6920398757    2.5829477324    1.8770184281
 C    3.3275021952    1.4204153624    1.1501160358
 C    2.6126227317    0.1195207454    1.1589909972
 N    2.4556310520    1.0328048211    0.0142882152
 H   -0.9243618160    1.9161602042   -0.0344191021
 H    1.2995674690    2.5015982238   -0.9140542512
 H    1.0628320992    3.9339102751    1.0627929587
 H    1.1801425393    2.9746961499    3.2198464984
 H    3.3250888321    3.3478439990    2.3126988813
 H    4.3926341897    1.4853247801    0.9480090096
 H    3.1476651597   -0.7937110366    0.9149897803
 H    1.7958119613    0.0099828682    1.8606802215