16

 O   -0.0194588445    1.4098073629   -0.1213546008
 C    0.0102245052    0.0172163329    0.0003787851
 C    0.3053344256   -0.5663256431    1.4273603797
 N   -0.8221466358    0.0451750937    2.1514000335
 C   -1.9503467762   -0.0394489151    1.3559243905
 O   -3.0904229297    0.2053273617    1.6652565476
 C   -1.4165133620   -0.5906984580    0.0033738191
 C   -1.0458250874   -2.0431613496    0.2998754474
 C   -0.0053048969   -2.0383187699    1.1403164234
 H    0.8841224132    1.7399972155   -0.1397641729
 H    0.6489278563   -0.4544461708   -0.7550451730
 H    1.2666054196   -0.3258778032    1.8807777017
 H   -0.9182183677   -0.0338190165    3.1516694479
 H   -2.0681054282   -0.3951098161   -0.8439886759
 H   -1.5847590666   -2.8945861243   -0.0926366902
 H    0.5065080650   -2.8862330702    1.5756179869