15

 C   -0.0176500996   -1.1404524042    0.0159975512
 C   -0.0322442862    0.0620644753    0.0139881837
 C   -0.0673398551    1.4923042414   -0.0010310650
 N   -1.0055977066    2.2333710487    0.9231962473
 C   -0.8521229832    3.3551168440   -0.0572423539
 C    0.6489000990    3.7069835931   -0.0317475941
 C    1.2317115017    2.3422532548   -0.0001485776
 N    0.9867060210    3.0084299878   -1.3213082192
 C   -0.4240680742    2.4186774454   -1.2246357374
 H    0.0014336057   -2.2023376776    0.0206004044
 H   -1.9340243045    1.8245954272    0.7988576106
 H   -1.6088952521    4.1350865905   -0.0856097600
 H    1.1516665067    4.6087325627    0.2916100428
 H    2.2193152855    2.0725158436    0.3486094033
 H   -0.9847848381    2.1361026873   -2.1135141660