15

 N    0.0309602459   -1.0785466720   -0.0372956518
 C    0.0101661759    0.0770764926   -0.0458769341
 C   -0.0692080002    1.5114722383   -0.0398053783
 C   -1.2973051299    2.1817004835    0.5881491090
 O   -1.4327594499    3.4258794478   -0.0977686101
 C   -0.1733669098    3.6934156535   -0.6845012025
 C    0.9658593117    3.6503871242    0.3657758104
 N    1.2650791049    2.2101346357    0.0340704214
 C    0.3926936180    2.3391026170   -1.1787735743
 H   -2.1987702530    1.5824568823    0.4313370979
 H   -1.1639638194    2.3352870095    1.6665145880
 H   -0.2645403121    4.5457381040   -1.3548462715
 H    1.8395069012    4.2406343998    0.0821588005
 H    0.6999063092    3.8576557094    1.4059203127
 H    0.6634671376    1.9829154644   -2.1643267673