18

 C   -0.3184318802    1.4499266036    0.0541238579
 N    0.0095984976    0.0218361228    0.0382617481
 C    0.6943946468   -0.4409009154   -1.1140601713
 C    0.1154621551   -1.2108853083   -2.1091698985
 N   -1.2147820043   -1.5938091002   -2.2549104339
 N    1.0912833758   -1.5083065768   -2.9938316916
 N    2.3041599116   -0.9520983286   -2.6536020656
 C    2.0570521073   -0.3209997754   -1.5162800684
 N    3.0858371530    0.2790248892   -0.7821022493
 H    0.5544581192    2.1210030958   -0.0166162540
 H   -0.9758175537    1.6782285242   -0.7898607821
 H   -0.8542696254    1.6887372938    0.9785709646
 H    0.5177344814   -0.2243175380    0.8811870718
 H   -1.7047660030   -1.4051247358   -1.3859415981
 H   -1.3283526583   -2.5694819171   -2.5043564025
 H    0.9932306802   -1.9348510342   -3.8974068169
 H    3.9371223708    0.3214797110   -1.3300330302
 H    2.8442133662    1.2053356296   -0.4527822702