18

 C    0.3303728968    1.5459223164   -0.1898840251
 C   -0.0314799171    0.0685481260    0.0452777256
 C    0.5554231519   -0.5047959108    1.2823064309
 C    0.0647855183   -0.9988795584    2.4470305222
 O   -1.2292697774   -1.1164244938    2.8147947790
 N    1.0905015740   -1.4004550883    3.2790749779
 C    2.1712672721   -1.1403698708    2.6037653170
 C    3.5827082086   -1.3677356676    3.0077881318
 O    1.9364717481   -0.5992319000    1.3910658119
 H    1.4144697919    1.6736129049   -0.2605191988
 H   -0.1158534456    1.9105135070   -1.1201842511
 H   -0.0296848015    2.1715624799    0.6323072411
 H   -1.1177041476   -0.0446759224    0.1232613733
 H    0.2810484627   -0.5229275588   -0.8260912358
 H   -1.2291670975   -1.5096747201    3.6953142003
 H    4.0891971485   -2.0422456349    2.3093822270
 H    4.1453236356   -0.4282980629    3.0230097836
 H    3.6010744384   -1.8090146353    4.0045390891