20

 O   -0.3738877335    1.3526871229   -0.2191431050
 C   -0.0860399931   -0.0126386341   -0.0425645889
 C    1.0626526507   -0.5236154577   -0.8922413709
 C    2.3987134490    0.1518617309   -0.5618782865
 C    3.5461194312   -0.3709108304   -1.4480532253
 C    4.8253879118    0.2673689459   -1.1450615667
 N    5.8272523935    0.7832530506   -0.8890097203
 C   -0.3421974707   -0.6053017753    1.3222158593
 C   -1.2937943426   -0.8719544473    0.1700628779
 H    0.2528149865    1.8630665087    0.3043359125
 H    1.1533576897   -1.6083944731   -0.7564374062
 H    0.8172548169   -0.3531861990   -1.9486799003
 H    2.3106908885    1.2342985361   -0.7042124250
 H    2.6539748259   -0.0132193430    0.4909621901
 H    3.6606681610   -1.4541148722   -1.3223094666
 H    3.3148848771   -0.2017024286   -2.5062928580
 H    0.2915346863   -1.4149670432    1.6689193401
 H   -0.6841851625    0.0698043735    2.0987563403
 H   -2.2491477689   -0.3611187769    0.1876293593
 H   -1.3109178867   -1.8632418979   -0.2696784397