18

 C    0.0769153896    1.5525686158   -0.1658440528
 C   -0.1066772738    0.0381924618    0.0100906920
 C    0.6448232070   -0.4887166621    1.2004950278
 C    2.1143195493   -0.9744583736    1.1728013535
 O    3.1423285588   -0.4922697223    1.9637177781
 C    1.0630872326   -1.8871716261    1.6772869457
 O    0.7916042984   -1.5228990140    3.0617994167
 C    0.2820277599   -0.2860167025    2.6331718390
 N   -0.3201282127    0.6009018992    3.2795702925
 H    1.1309691069    1.8046536899   -0.3194397828
 H   -0.4894647692    1.9135058745   -1.0294317683
 H   -0.2711616664    2.0853162020    0.7230055361
 H   -1.1726549902   -0.1939765921    0.1228452481
 H    0.2333094698   -0.4899770202   -0.8891307765
 H    2.4548877454   -1.1616521736    0.1574346933
 H    2.9048461984   -0.6745890482    2.8822774999
 H    0.7828099291   -2.8872824160    1.3717727579
 H   -0.4156978331    0.3520300175    4.2652605599