15

 C   -0.0714275573    1.5647335813    0.0153703202
 C    0.0423560305    0.0383551001   -0.0179549630
 N    0.8119182491   -0.4452749278   -1.1705925602
 C    1.7651068390   -1.1607962014   -0.6926496649
 N    1.7878851587   -1.2683874018    0.7019952044
 C    0.7407883096   -0.5237542900    1.2321608391
 O    0.4807299424   -0.3719241869    2.3993996922
 C    2.7610700038   -1.8284538506   -1.4605448578
 C    3.6192356018   -2.4065609223   -2.0719869335
 H    0.9201829881    2.0258563948    0.0269893331
 H   -0.6068435305    1.9208663142   -0.8672657994
 H   -0.6091606565    1.8706783601    0.9163713443
 H   -0.9662267634   -0.3934737795   -0.0684246254
 H    2.4765213926   -1.7623646555    1.2465303834
 H    4.3692443220   -2.9117808547   -2.6302785325