16

 C    0.0688090568    1.5737681708   -0.1551570589
 O    1.5198460821    1.5227273394    0.1330400633
 C    1.2181439072    0.3272613711    0.9386529034
 C    1.3589741410   -1.2434336748    0.9337382742
 C   -0.2480063477   -1.1503953755    1.1139918094
 C    0.0032463274    0.0440609323    0.1172651033
 C    0.6039753350   -0.7423338385   -1.0715828431
 O    1.5130830533   -1.6462040687   -0.4031810827
 H   -0.4487217461    2.1992110311    0.5803148675
 H   -0.1287126429    1.9260070570   -1.1710280591
 H    0.9994638324    0.6610507306    1.9594188983
 H    2.0075523486   -1.8209773426    1.5923161478
 H   -0.7892041693   -2.0268340799    0.7501652743
 H   -0.5815922330   -0.8592849406    2.1086412184
 H   -0.1568512934   -1.3157991134   -1.6132812824
 H    1.1624518786   -0.1140672682   -1.7698837338