17

 C   -0.0921162483   -1.2397964672   -0.1770236113
 C   -0.0410121344   -0.0421954263   -0.0839159115
 C    0.0298040357    1.4066674117    0.0454186953
 C   -0.5968212367    1.9492822156    1.3908637260
 C    0.1803533786    3.2553283235    1.5988030247
 O    0.9231536425    3.5399703316    2.8356357461
 C    2.1715299103    3.6675842009    2.0851396596
 C    1.4858122373    2.9993063160    0.9211368611
 C    1.4759099590    1.9431056753    0.1211195267
 H   -0.1422461923   -2.2968306217   -0.2636462097
 H   -0.5053876955    1.8502232837   -0.8072077310
 H   -1.6822765578    2.0604967524    1.3330414882
 H   -0.3536457348    1.2511182923    2.1961214935
 H   -0.3864309029    4.1488416093    1.3043821892
 H    2.4412525685    4.7229348952    1.9483074817
 H    3.0043958162    3.1306895628    2.5503753290
 H    2.3086015646    1.4217218349   -0.3323783177