13

 O    0.0533670845    0.0304787577   -0.1979778476
 C    0.0167251418    1.1991095523   -0.0750777273
 C   -1.0556555559    2.3860951926    0.0831672181
 N   -0.0304193919    2.9160205508    1.0296564447
 C    0.9938812299    2.4538682006    0.0582390355
 C    0.5951915684    3.1232935113   -1.2588494481
 C   -0.7614635122    3.0689773239   -1.2312860845
 C    1.4681230585    3.5382356596   -2.2861877565
 N    2.2147334616    3.8870170145   -3.1013480695
 H   -2.0766182042    2.2509856565    0.4289447424
 H   -0.0621244092    3.9367291752    1.0911915559
 H    2.0373248815    2.4071114217    0.3570261789
 H   -1.4620178928    3.3186356733   -2.0146529420