20

 C    0.2997796946    1.0722483017    0.6113606752
 C    0.1697390235   -0.3010947008   -0.0781045098
 C    1.0793324778   -1.2689154159    0.5522070783
 N    1.7914633122   -2.0168915129    1.0711205858
 C   -1.2571282818   -0.8378397061   -0.0359601112
 C   -2.3315007208   -0.3839482785   -1.0153454409
 C   -2.0855023262    0.6222030750   -2.1193420847
 C   -1.7510433245   -1.7820993116   -1.0959380840
 O   -0.8334382662   -2.0780702018   -2.1099056279
 H    1.3334717072    1.4263058018    0.5854913092
 H   -0.3333359138    1.8034280449    0.1029816494
 H   -0.0138564785    1.0124522884    1.6574117947
 H    0.4860907231   -0.2147460314   -1.1213395500
 H   -1.6015834297   -1.0418717916    0.9740205951
 H   -3.3260806300   -0.3235321649   -0.5802270831
 H   -1.1249093617    0.4605871742   -2.6133745454
 H   -2.8646942147    0.5432673193   -2.8858966114
 H   -2.1073063624    1.6491239356   -1.7403543166
 H   -2.3672515902   -2.6236575344   -0.7820296469
 H   -1.3225918879   -2.2359178408   -2.9241941557