18

 O   -0.2274246842    1.5063489297    0.2523294352
 C    0.0354916934    0.1346658895   -0.0045830791
 C   -1.3070907211   -0.5718140398   -0.1600522292
 N   -2.0472429912   -0.1478869318   -1.3232831336
 C   -2.6600505391    1.1349773407   -1.7056505172
 C   -3.1086436578    0.4465696179   -3.0228507860
 O   -2.5821200288    1.0374023631   -4.1846998102
 C   -2.3434092029   -0.7954327793   -2.4923931768
 O   -2.0674628538   -1.8899398509   -2.9190158519
 H    0.6080875720    1.9821593939    0.2566494625
 H    0.6255829091    0.0008100657   -0.9230266844
 H    0.5878772191   -0.3317103108    0.8265798200
 H   -1.1447871592   -1.6490200673   -0.2648479237
 H   -1.9035523016   -0.3992296275    0.7452388525
 H   -3.4599390099    1.4636751896   -1.0346665550
 H   -1.9395628571    1.9401928286   -1.8578616932
 H   -4.1940055589    0.2890392768   -3.0905507859
 H   -2.5011530380    0.3412034818   -4.8466165241