23

 C    0.0203601341    1.5587974272    0.0723327776
 C    0.0061054922    0.0208958120    0.0138873662
 C    0.7565324701   -0.5530048074    1.2199367731
 O   -1.3376262270   -0.4516680613    0.1363558830
 C    0.6333946123   -0.5243168521   -1.2916249870
 C    0.0632313786    0.0288299442   -2.5874753883
 O   -1.3570955020   -0.0259714609   -2.6599050426
 C    0.7360651944    1.1550582809   -3.3248706062
 C    0.7726228515   -0.2550549314   -3.8805106251
 H    1.0388136383    1.9581669290    0.0132885957
 H   -0.5585949819    1.9971555550   -0.7461509375
 H   -0.4285875115    1.8928850636    1.0118720285
 H    0.2417144693   -0.2690249412    2.1423844898
 H    0.7803515162   -1.6454051331    1.1697153911
 H    1.7846928595   -0.1804582918    1.2662818297
 H   -1.7090322053   -0.4649532910   -0.7558914845
 H    1.7142778905   -0.3425303192   -1.2864306345
 H    0.4941690598   -1.6128020632   -1.2825039708
 H   -1.6948634718    0.8677024384   -2.5408996947
 H    0.1028062379    1.8730312645   -3.8368905770
 H    1.6431777087    1.5770013782   -2.9065560807
 H    1.7079738303   -0.8031201330   -3.8484002517
 H    0.1449494658   -0.4665462676   -4.7380893440