11

 C   -0.0179427130    1.4628855208    0.0636415583
 C   -0.0110345865   -0.0180128633   -0.0567600228
 N   -0.1736332169   -0.7442007700   -1.1181627783
 C   -0.0750521932   -2.0554101280   -0.6651301741
 C    0.1454508912   -2.0472175622    0.6679085041
 O    0.1896393220   -0.7424192224    1.0767559243
 H    0.9356281844    1.8310878716    0.4559172702
 H   -0.1890591487    1.8961931892   -0.9218643812
 H   -0.8065186987    1.7995380635    0.7445154824
 H   -0.1703938781   -2.8965621105   -1.3329823207
 H    0.2847952977   -2.7958950285    1.4282244780