21

 C    0.3247200952    1.3932686636    0.3624827611
 N    0.2487140300   -0.0508027088    0.2161332616
 C    0.6043996838   -0.6131985648   -0.8604079981
 C    0.4826548429   -2.0833417956   -1.2440409425
 O   -0.8018592602   -2.6316061538   -1.1049795810
 C    0.9091489208   -1.6333297693   -2.6842939232
 C   -0.1486389286   -1.7446769016   -3.7709791965
 N    1.0943735952   -0.2865324350   -2.1110046637
 C    1.5768488893    0.9093426066   -2.7535201177
 H    1.3606589379    1.7419876722    0.4844007128
 H   -0.1143332443    1.9402831735   -0.4853732480
 H   -0.2202344152    1.6908001361    1.2631489164
 H    1.2374728350   -2.7212422061   -0.7665552424
 H   -1.2289077915   -2.1270804979   -0.4011599969
 H    1.8572357920   -2.0742725563   -3.0207647425
 H   -1.1108800883   -1.3688627174   -3.4158733290
 H    0.1461613242   -1.1836362703   -4.6641314325
 H   -0.2809945277   -2.7916081991   -4.0599492534
 H    0.8886260812    1.2691866744   -3.5303252492
 H    1.7014402283    1.7007016055   -2.0139520543
 H    2.5517583900    0.7256170141   -3.2244397508