21

 O   -0.1531414551    1.5802427560    0.6097167479
 C   -0.0715597893    0.2453121404    0.1227506578
 C    0.6204093991   -0.6831612137    1.1300330095
 C   -0.5031697318   -0.9014471038    2.1475228422
 O   -1.7080204207   -0.9014088574    1.3849752269
 C   -1.4918822246   -0.3426836404    0.0947780463
 C   -2.6061683703    0.5918608718   -0.4345976652
 C   -2.5016220896   -0.1202922245   -1.8116980458
 C   -1.7664518354   -1.2924084686   -1.1078115463
 H    0.7435950787    1.9136519346    0.7126124229
 H    0.3948952666    0.2223344341   -0.8710790335
 H    0.8948593420   -1.6257081502    0.6440975928
 H    1.5248739438   -0.2444711850    1.5616166361
 H   -0.4249453335   -1.8524039020    2.6841761684
 H   -0.5256036479   -0.0865796380    2.8838174866
 H   -3.5463419236    0.3601968654    0.0719312031
 H   -2.4170379441    1.6640394338   -0.3813701245
 H   -3.4348185067   -0.3561465012   -2.3263672268
 H   -1.8511538260    0.4191934924   -2.5056623759
 H   -0.9086290121   -1.7500380002   -1.6104862834
 H   -2.4577680194   -2.0795783834   -0.7966777090