23

 C    0.7104327364    0.4295035271   -1.3313574620
 C    0.0312092474    0.0267451860   -0.0333544513
 C    0.9246368391   -0.4254377888    1.1022952991
 C    0.2576675045    0.9275284417    1.1603238369
 C   -1.3302562091   -0.6479506437   -0.1335060031
 C   -2.4289108896    0.1054282289   -0.9078704841
 C   -3.4215648226   -1.0208728817   -1.1922675454
 O   -2.6314369772   -2.1818199294   -1.4340990365
 C   -1.3437376879   -2.0231346820   -0.8387603014
 H    1.6981998762    0.8546555621   -1.1289763256
 H    0.8547347339   -0.4231741457   -2.0034676354
 H    0.1356533935    1.1877899952   -1.8738790602
 H    0.5593110767   -1.2013867985    1.7670925546
 H    1.9946725145   -0.4619018668    0.9274024325
 H    0.8760880002    1.8083336792    1.0235606897
 H   -0.5570579878    1.0653875860    1.8635765241
 H   -1.6961170950   -0.7982489067    0.8906388122
 H   -2.8644753156    0.9315601687   -0.3399888262
 H   -2.0371094088    0.5058057580   -1.8485303107
 H   -4.0877492709   -1.1826001792   -0.3288697756
 H   -4.0485021402   -0.8445246075   -2.0723478306
 H   -0.5820862438   -2.0851925643   -1.6274164511
 H   -1.1595279537   -2.8441847483   -0.1346950300