17

 C   -0.0471347843    1.5283875355   -0.0045885182
 C   -0.0429592583    0.0330848652    0.0101650061
 C   -0.1350163449   -0.8212741402   -1.0417209596
 O   -0.1138530453   -2.1139863968   -0.6312598172
 C    0.0078557551   -2.1030868829    0.7369909355
 C    0.0389750719   -3.4210363607    1.4219482249
 C    0.0484482510   -0.8113902930    1.1769393787
 N    0.0749271476   -0.3307434104    2.4997950515
 H    0.9002136779    1.9465803737    0.3604289518
 H   -0.2031542775    1.9128437654   -1.0162221108
 H   -0.8407500779    1.9300574134    0.6361118809
 H   -0.2179651412   -0.6639675168   -2.1051894221
 H    0.7283933811   -4.1098735681    0.9213456760
 H    0.3789002629   -3.3045399815    2.4559369106
 H   -0.9451383826   -3.9064862031    1.4524295622
 H    0.2937580939   -1.0558253829    3.1718124116
 H    0.7357797907    0.4284963532    2.6187134580