16

 O    0.1324552954    1.4361021143    0.2207218894
 C    0.0054207770    0.0659805137    0.0240000847
 C   -1.4062938028   -0.6213186341    0.0537554145
 C   -2.5755732270    0.1689238660   -0.5741807186
 N   -1.9966315245    0.9944456654   -1.6665979294
 C   -2.3213496461   -0.4395057519   -1.9063921645
 C   -1.1410509266   -1.2751050932   -1.3524225490
 C    0.2185856093   -0.5330940818   -1.4060313808
 O    1.0919194551   -0.4559552528   -2.2160550488
 H   -0.3829896132    1.8398962577   -0.4937608037
 H    0.6849991644   -0.4387471657    0.7227821566
 H   -1.6581909105   -1.2272008210    0.9214810023
 H   -3.5026625416    0.4621315971   -0.0981785734
 H   -2.7482671267    1.5497754789   -2.0713831478
 H   -2.9982559306   -0.7146717957   -2.7049006124
 H   -1.1754967116   -2.3477673170   -1.5349114391