11

 O   -0.1015979732    0.0291748857   -0.0005462588
 C   -0.0271976083    1.2167661797    0.0087749403
 N    1.2121213496    1.9270330522    0.0005957600
 N    2.4329081593    1.3524764099   -0.0183939428
 N    3.2825377840    2.3202736090   -0.0201259859
 C    2.5516620631    3.4945657881   -0.0012451843
 N    1.2483453574    3.2620635908    0.0116459094
 C    3.1395116897    4.7783380489    0.0029566401
 C    3.6619874707    5.8600437239    0.0062047962
 H   -0.8604301907    1.9351894735    0.0245337851
 H    4.1208323084    6.8185842182    0.0091163508