20

 C   -1.5436373977    0.0039267109   -0.1698698378
 O   -0.1425761337    0.1237182715   -0.0209683105
 C    0.6412669436   -0.6547508145   -0.8886728710
 C    0.4772383744   -0.2282140604   -2.3666125347
 C    0.7787229962    1.1847612893   -2.5841693331
 N    1.0224409957    2.3006838898   -2.7581376159
 C    2.1202741766   -0.7025342740   -0.4350497073
 C    2.1278105095   -2.2322548319   -0.7022548676
 C    0.5743154901   -2.2077836569   -0.7298304912
 H   -1.9084849160    0.4557282691   -1.1028487787
 H   -1.8716271679   -1.0448310216   -0.1336694837
 H   -1.9938817622    0.5409487823    0.6676172774
 H    1.1431285967   -0.8304162416   -2.9938534337
 H   -0.5424004781   -0.4310282086   -2.7115193832
 H    2.8300845435   -0.0748713753   -0.9781805096
 H    2.1786582966   -0.4671192831    0.6293611732
 H    2.5599636832   -2.4893794573   -1.6728582295
 H    2.5951090955   -2.8627180232    0.0555667221
 H    0.1463831056   -2.4644129596    0.2422879769
 H    0.0651068384   -2.7831538650   -1.5075420321