18

 N    0.0351423722    1.2675128298   -0.3062812940
 C    0.0040698664    0.0095592721   -0.1452536428
 O    1.1177757647   -0.7780924312   -0.0198120745
 C    0.7249999347   -2.1433436907    0.1469847838
 C   -0.7698151302   -2.1105795646    0.1101625427
 C   -1.1981404810   -0.8524028764   -0.0608532686
 C   -2.5909064035   -0.3855992197   -0.1513184560
 C   -3.0429112967    0.9479253106    0.4224759950
 C   -3.0103984930    0.7570469731   -1.0624941660
 H    0.9991029943    1.6024513492   -0.3282827704
 H    1.1672623853   -2.7425566081   -0.6607374895
 H    1.1288841864   -2.5166205139    1.0980926736
 H   -1.3833858224   -2.9962827507    0.2105381502
 H   -3.3099288034   -1.1945346670   -0.0630760927
 H   -4.0002991441    0.9583862223    0.9316061013
 H   -2.2784672282    1.5852637827    0.8476582074
 H   -2.2248337937    1.2704252913   -1.6016492826
 H   -3.9448975378    0.6331782210   -1.5984810669