15

 O   -0.0973318596    1.3911737240   -0.0612093326
 C    0.0009486603    0.0019282960    0.0076657575
 C   -0.4140530219   -0.7127302092    1.2917336028
 C   -1.2795049057   -0.7388677971    0.0700661157
 C   -2.6977346228   -0.2532903982   -0.2413406929
 O   -2.5057908116   -0.7456282053   -1.6356930058
 C   -1.8792357311   -1.8266403013   -0.8278596066
 C   -3.1767516382   -1.7127160121    0.0342244022
 O   -4.0665105284   -2.3460959244    0.4920968085
 H    0.6503857840    1.7686035099    0.4147004996
 H    0.8144217544   -0.4403118657   -0.5682106439
 H    0.1167117734   -1.6137766390    1.5822013085
 H   -0.7368244345   -0.0821941525    2.1140300824
 H   -3.1531796818    0.7230651712   -0.1008291462
 H   -1.4081257465   -2.6534105964   -1.3547522692