17

 N    0.2038055321    1.3959239275   -0.0474551079
 C   -0.0121712764   -0.0010964968   -0.0291839905
 C   -1.1376519311   -0.8022753837   -0.0468974589
 C   -0.6901190626   -2.1559397824    0.0245313349
 C    0.6687997065   -2.1113922871    0.0715382914
 N    1.1144206467   -0.8339746339    0.0399325921
 O    1.3533421737   -3.2797500050    0.0894968697
 C    0.3000819131   -4.2837087342    0.2487291100
 C   -1.0862795559   -3.6069485786   -0.0310692595
 H   -0.1559073581    1.8272436586   -0.8922934143
 H   -0.2335933790    1.8612568125    0.7407426433
 H   -2.1530053820   -0.4376188893   -0.0970560717
 H    2.0602768101   -0.4969541055    0.0849574854
 H    0.5324140336   -5.1035180819   -0.4336005879
 H    0.3558332543   -4.6508682239    1.2789784304
 H   -1.8178405503   -3.9164124589    0.7233272191
 H   -1.4889730247   -3.9055523774   -1.0082789559