17

 O    0.2677587901    1.3399657130    0.0184794804
 C    0.1165432236   -0.0112400743    0.0572575724
 C   -0.1058150196   -0.8298781419   -1.0276281749
 N   -0.1986035973   -2.1300537746   -0.5441122658
 C   -0.0363658327   -2.1180852370    0.8173278153
 C    0.1613368759   -0.8175258145    1.2247906667
 N   -0.2126631971   -0.3964343506   -2.3577182110
 C    0.3196829338   -1.2074378565   -3.4562527068
 C   -1.1506676401   -1.0381940029   -3.2830004188
 H    0.1871308842    1.5921729868   -0.9111994718
 H   -0.3592824905   -2.9533575441   -1.0952276749
 H   -0.0744081861   -3.0323286624    1.3869673766
 H    0.3199368617   -0.4755468954    2.2347816554
 H    0.8476204700   -0.6590588624   -4.2313663304
 H    0.7533395710   -2.1740434693   -3.2100082377
 H   -1.7215750388   -1.8891845636   -2.9184355704
 H   -1.7056546682   -0.3651683803   -3.9305079645