17

 C   -0.0578265616    1.5577775250    0.0348147731
 C    0.0376389675    0.0458364112   -0.0518383942
 O   -1.1811884114   -0.5604696269   -0.4183377295
 C    1.1617750622   -0.5867167866   -0.9425954496
 C    1.7288410262   -1.2890968973    0.2931854562
 N    2.0954812259   -0.2324828462    1.2518965829
 C    0.6799937080   -0.6832615082    1.1729908590
 C   -0.0251903809   -1.2235142460    2.2836241489
 N   -0.6388766077   -1.6350496307    3.1756567447
 H    0.9002201447    1.9861280006    0.3363445746
 H   -0.3459423573    1.9697926710   -0.9369915350
 H   -0.8144966525    1.8558202943    0.7708845825
 H   -1.8643363913   -0.2657777776    0.1956014735
 H    0.7137310127   -1.2722267729   -1.6621945839
 H    1.8454739626    0.1044261091   -1.4386537638
 H    2.1666303168   -2.2770200322    0.3579810395
 H    2.5149625462   -0.6746235368    2.0702473511