16

 O    0.1298307008    1.4257750567   -0.1046941643
 C    0.0463437926    0.0249766815   -0.0098941338
 C    0.6910391496   -0.5881106313    1.2129716007
 C   -0.0203803721   -1.5928096240    1.7173604393
 C   -1.2873873469   -1.8585516441    0.9357175778
 O   -2.4214820940   -2.1771602334    1.7041885253
 C   -1.4139381752   -0.5632244660    0.0480970658
 C   -2.2947476932    0.3931904998    0.7106788761
 N   -2.9550011733    1.1491139860    1.2857080486
 H   -0.3002836901    1.8124630977    0.6684109647
 H    0.5302081917   -0.3409212326   -0.9233314294
 H    1.6536419804   -0.2374573390    1.5672108292
 H    0.2521347059   -2.2167373685    2.5608640111
 H   -1.1551427063   -2.7210008649    0.2715877384
 H   -2.6041527317   -1.4415995908    2.3023496903
 H   -1.8144419780   -0.7782472171   -0.9450878498