19

 O   -0.0187143074   -0.0465249618    0.6119578484
 C    0.0285367042    1.1598281471    0.5288493691
 C    1.1874228668    1.9331010267    0.0273024532
 C    1.0459083694    3.2672394496    0.0240873854
 C    1.9864843470    4.3393198255   -0.4322004074
 C    3.4570657569    4.0766946038   -0.6116578252
 C    4.1855949174    2.9886900571   -0.3645673334
 C    3.7342755481    1.6365122236    0.1244690449
 C    2.3876326301    1.1479177150   -0.4322745298
 H   -0.8360807161    1.7882720779    0.8415120485
 H    0.0876507015    3.6532781687    0.3752880627
 H    1.5814033628    4.7453461211   -1.3759712861
 H    1.8841902837    5.1886354179    0.2621009272
 H    3.9898815296    4.9563742936   -0.9698634511
 H    5.2567471063    3.0767093616   -0.5368108516
 H    4.5015425737    0.9006360670   -0.1418287180
 H    3.6926391606    1.6313046265    1.2226161955
 H    2.2248540238    0.1060545099   -0.1416791508
 H    2.4334415214    1.1617978291   -1.5285230215