16

 C   -0.3511749026    1.0436210611    0.2562616365
 C   -0.1451594281   -0.3833878499    0.0923161205
 C    0.0256966212   -1.5733919732   -0.0472053231
 C    0.2156053560   -2.9098083263   -0.2047611255
 C    0.3869584655   -4.0999443235   -0.3465788545
 C    0.5848985511   -5.5336126226   -0.5117320186
 O   -0.6019044680   -6.2366314680   -0.8953456697
 C   -1.5528746799   -6.3535316073    0.0589818692
 N   -2.6282399970   -6.9558620042   -0.2041867423
 H    0.4244698017    1.6165462478   -0.2640828507
 H   -1.3212790591    1.3494760509   -0.1511902313
 H   -0.3270328200    1.3297117161    1.3136739811
 H    1.2992070010   -5.7321055451   -1.3161953183
 H    1.0005457184   -5.9680861719    0.4087699311
 H   -1.2762981741   -5.8905708852    1.0154177927
 H   -3.2305351160   -6.9665827187    0.6163227528