14

 C    0.0214325881    1.3622968554    0.1164847740
 O    0.0905137746   -0.0539068702   -0.0039553535
 C    0.6304832311   -0.5566306324   -1.1124858141
 C    1.1379327078    0.1193089948   -2.1725493760
 C    1.6691245644   -0.6453462447   -3.2582660694
 N    1.7154751857   -1.9317321269   -3.3327931236
 O    1.1919537070   -2.6228159122   -2.2392983470
 C    0.6449037152   -2.0360699858   -1.1190807691
 O    0.2267163372   -2.7367372163   -0.2406206704
 H    1.0231485389    1.8072927547    0.0942382529
 H   -0.5884970928    1.7949664952   -0.6852218860
 H   -0.4464295626    1.5582576967    1.0807584678
 H    1.1552283526    1.1998295939   -2.2257031667
 H    2.0855716327   -0.1444200422   -4.1272938590