18

 C    0.0108408635    1.4937039204    0.0775252026
 C    0.0297353866   -0.0088914503   -0.0112704182
 C    0.0776119874   -0.6813821503   -1.2261563042
 C    0.0923343690   -2.0781821879   -1.2240420717
 C    0.0598458496   -2.7866563005   -0.0331517191
 C    0.0729520787   -4.2875266725    0.0485020142
 C    0.0124394989   -1.9979197805    1.1315106399
 O   -0.0208109052   -2.6372821671    2.3245880562
 N   -0.0023699096   -0.6762847131    1.1564173710
 H    0.0392916261    1.9549367627   -0.9124466064
 H   -0.8904700013    1.8362803989    0.5966068162
 H    0.8677502505    1.8548836259    0.6558174509
 H    0.1030255289   -0.1283475980   -2.1577834329
 H    0.1296252128   -2.6217884502   -2.1640181686
 H    0.9355744793   -4.6477377788    0.6196812137
 H   -0.8181109925   -4.6662331582    0.5610500276
 H    0.1110118531   -4.7325549687   -0.9492967350
 H   -0.0506778656   -1.9387101516    2.9932176240