19

 C   -0.0331004774    1.5178944813   -0.2024778934
 O    1.2729028672    1.9949974036    0.1256017282
 C    1.9501004156    1.0251806136    0.9253876118
 C    1.7586098552    1.3680048571    2.4050699477
 O    0.3841391068    1.3523471965    2.7483230840
 C   -0.2010197730    0.0666725743    2.6524971382
 C    0.0660777902   -0.6383928233    1.3366108632
 C   -0.0043689318    0.0016045885   -0.0339747456
 C    1.3338036174   -0.3328381996    0.5768276317
 H   -0.7831479977    2.0037136860    0.4334038823
 H   -0.2393192090    1.7851799221   -1.2453948440
 H    3.0155158684    1.0627973422    0.6719329910
 H    2.3362527409    0.6695882868    3.0359780579
 H    2.1049008585    2.3862722844    2.6003266281
 H    0.1735098725   -0.5774891146    3.4680038134
 H   -1.2743545557    0.2135749548    2.8149489279
 H   -0.2334281490   -1.6838317381    1.3578176195
 H   -0.4045426018   -0.6030286663   -0.8397797656
 H    1.9700649227   -1.1232069393    0.1979537736