18

 O    0.0578630831   -0.3466290789    0.2214646240
 C   -0.0678168261    0.8595308032    0.2251761154
 N    0.9377493102    1.7534085466    0.0230950227
 C    2.3217496316    1.3617240704   -0.1756722848
 C    2.7911236068    1.4950770364   -1.6529682852
 O    4.1777589919    1.8076269600   -1.6216733965
 C    4.4573952063    2.4281790155   -0.3926531167
 C    3.6167926717    3.6023685069    0.0323359460
 C    3.3365766101    2.2048020499    0.5771260935
 H   -1.0378456651    1.3667258449    0.3983311776
 H    0.7233091500    2.7373845166    0.0736401032
 H    2.3881524879    0.3213262253    0.1496074477
 H    2.6588109479    0.5745327453   -2.2264671090
 H    2.2171885931    2.2907144187   -2.1503115831
 H    5.5072588820    2.3665939587   -0.1340730470
 H    4.0635195870    4.3129403610    0.7189149179
 H    2.9391617857    4.0481274223   -0.6889151698
 H    3.5065862359    1.9985502072    1.6266624840