21

 C   -0.1013936346    1.4392124109   -0.3603687129
 C   -0.1711908494   -0.0374768671    0.0381335777
 C    0.7986366211   -0.4497847597    1.1407049401
 C    0.7749163957   -1.9532527501    1.5511152670
 C    2.2966126921   -2.0064974198    1.2611265284
 N    2.2144941272   -0.6315080728    0.7463676755
 C    3.1755628592    0.3519519080    0.7936849566
 N    4.4768816729   -0.1123495352    0.7473660055
 O    2.9052063878    1.5417252359    0.8145232183
 H    0.9023501185    1.7133066474   -0.6895298566
 H   -0.8127985867    1.6553786374   -1.1638880609
 H   -0.3466934273    2.0850818468    0.4893219669
 H   -1.1833712173   -0.2780266042    0.3930193444
 H    0.0115343024   -0.6765882050   -0.8353485167
 H    0.7106405768    0.2352404853    1.9937684943
 H    0.4858678214   -2.1594985290    2.5817977884
 H    0.1770691293   -2.5733001147    0.8803490986
 H    2.9196873796   -2.1027230728    2.1610883158
 H    2.6261732232   -2.7482122871    0.5248476394
 H    4.6918316840   -1.0608790122    1.0053577999
 H    5.1707197143    0.5803598078    0.9757106203