16

 C   -0.0407594598    1.5563243135    0.0342692681
 C    0.0858867707    0.0501289552    0.1551194364
 C    1.3448238367   -0.7556901471   -0.2241533054
 C    2.5682956948   -0.1045556435    0.3263910635
 O    3.6606746991    0.1156754276   -0.1192541623
 C    1.9993673926   -0.0245201960    1.7687336294
 C    0.7397721815   -0.7088579615    1.2427957768
 O    0.1558548499   -1.6936213671    2.0025584440
 H    0.8487883425    2.0746415358    0.4005086389
 H   -0.1832079401    1.8444828294   -1.0121808152
 H   -0.9015102980    1.9223552640    0.6044864360
 H   -0.7924628635   -0.4784501688   -0.2234083870
 H    1.3096258274   -1.4946052784   -1.0161625297
 H    2.5722145388   -0.6923036908    2.4190138242
 H    1.8994007288    0.9522198375    2.2503187835
 H   -0.7283373312   -1.8717744298    1.6658173089