16

 C    0.0054734819    1.4263971247    0.1312928361
 N   -0.0503991824    0.0047823134   -0.0960237310
 C    0.5995950600   -0.6151129223   -1.1202330465
 C    1.2312174219   -0.0153798170   -2.1832684002
 N    1.8384411832   -0.7094535337   -3.2011754531
 C    1.8178108174   -1.9967915664   -3.1346560684
 N    1.2279119800   -2.6843248505   -2.1042787760
 C    0.5903972644   -2.0773089449   -1.0332667224
 O    0.0864678029   -2.7144260380   -0.1176596077
 H    1.0356548447    1.7932760036    0.2574813055
 H   -0.4449296351    1.9773839422   -0.7043876516
 H   -0.5593491873    1.6663520410    1.0338313259
 H   -0.3159766008   -0.6178172322    0.6521584274
 H    1.2721205912    1.0650982114   -2.2684063228
 H    2.2779409472   -2.6038018283   -3.9078551955
 H    1.2443304307   -3.6954667131   -2.0841744697