15

 C    0.0098396517   -1.2269207742   -0.0297275485
 C    0.0056835485   -0.0232108559   -0.0193158858
 C   -0.0138241194    1.3927132199    0.0129144328
 C    0.2448648780    2.2827233496   -1.1905549053
 C    1.1402010237    2.4419463822   -0.0003111836
 O    0.4921177390    3.2379897305    0.9949228225
 C   -0.5699190010    2.2619081177    1.1422497450
 C    2.5510726724    2.3054519864    0.0141496811
 C    3.7481411245    2.1878030587    0.0264900735
 H    0.0192508603   -2.2885697067   -0.0415599740
 H    0.6807873464    1.7649208628   -2.0373442258
 H   -0.4470841026    3.0866815555   -1.4277691286
 H   -1.5628239518    2.6989826699    0.9903048870
 H   -0.5126429089    1.7744729746    2.1200142758
 H    4.8051771392    2.0854161889    0.0399170439