18

 C   -0.2792872343    1.4419134977   -0.0058470834
 N   -0.0407545657    0.0180180115   -0.0336047818
 C    0.3449310439   -0.7474874609   -1.0818103553
 C    0.4151624669   -2.0485913170   -0.6336569806
 C    0.0488428956   -1.9645926275    0.7304969866
 N   -0.2237672142   -0.7115824931    1.0923665758
 N   -0.0978264771   -3.0398607219    1.6172640749
 C    1.1027777773   -3.6161555744    2.2305620269
 C    0.1456696157   -2.8046583916    3.0335212301
 H   -0.0512038849    1.8572103202   -0.9891702988
 H   -1.3246333054    1.6518042633    0.2396569308
 H    0.3584326285    1.9204539749    0.7430215825
 H    0.5309338068   -0.3149275823   -2.0528584667
 H    0.6803884794   -2.9286738725   -1.1952694328
 H    1.1110244917   -4.6994427104    2.3072495397
 H    2.0590826317   -3.1608931129    1.9842212418
 H    0.4520041565   -1.8041774121    3.3234618709
 H   -0.5503311623   -3.2927571811    3.7092593594