14

 C    0.1933901193    1.3685884690    0.1676300501
 O   -0.1132845754   -0.0005812427   -0.0551085276
 C    0.4512673983   -0.5288246019   -1.2083677469
 C    1.9250665732   -0.6411166220   -1.1247983581
 N    3.0749391232   -0.7053394417   -1.0311248320
 C   -0.1782958554   -1.9256598843   -1.4739019164
 O   -1.0343112175   -2.3793851073   -0.7632064972
 C    0.3250599477   -2.5875329152   -2.6570614765
 C    0.7442786872   -3.1224505046   -3.6499678593
 H    1.2696787394    1.5227120569    0.3177153601
 H   -0.1445784215    1.9930099019   -0.6719778502
 H   -0.3429975731    1.6594195409    1.0717314814
 H    0.2250791588    0.0866807962   -2.0988698411
 H    1.1149869458   -3.6048190254   -4.5225080864