14

 C   -0.0670798397    1.5541402571    0.0032352382
 C    0.0933008887    0.0500139515    0.0739794005
 O    1.1321116187   -0.4724859422   -0.8134336901
 C    1.6962191707   -1.2172000334    0.2679580130
 C    2.2312079025   -0.3033232550    1.3218434634
 C    0.7485915690   -0.6251981700    1.2823146612
 H    0.8500886184    2.0705145239    0.2980060949
 H   -0.3196260360    1.8597304307   -1.0171499848
 H   -0.8778291406    1.8769895291    0.6653635446
 H   -0.8545344684   -0.4459072973   -0.1739665368
 H    2.0268184544   -2.2303998917    0.0714294391
 H    2.7647842188   -0.7860685513    2.1350847099
 H    2.6094244073    0.6756869874    1.0426983069
 H    0.2235754962   -1.0824151188    2.1098499600