16

 C   -0.2363135697    1.5097294607   -0.0723625513
 C    0.0812488202    0.0041810385    0.0212402626
 C    0.8055758720   -0.5025327729   -1.1810793068
 C    2.0668605519   -0.9213006637   -1.3405974081
 C    2.2925413440   -1.3172502738   -2.7649607170
 O    3.2940077151   -1.7403606418   -3.2853472001
 N    1.0676039290   -1.0945654463   -3.4052745095
 C    0.1117224402   -0.6072401345   -2.5234837923
 O   -1.0349263610   -0.3327709521   -2.7834396249
 H    0.6816716964    2.1000537216   -0.1494098210
 H   -0.8565660989    1.7167161829   -0.9474951211
 H   -0.7786427860    1.8364794803    0.8191997864
 H    0.6745826608   -0.2030403320    0.9172547841
 H   -0.8616447765   -0.5474840384    0.1161412784
 H    2.8533233824   -0.9938790293   -0.6021828072
 H    0.9001303000   -1.2753048891   -4.3820790521