17

 C   -0.2608390587    1.4685852086    0.0843566914
 C   -0.0668010354   -0.0141403359    0.0182349695
 C    0.0439426984   -0.7869027227   -1.0939878362
 O    0.2145523696   -2.0981790903   -0.7694851057
 C    0.2114691126   -2.1630251797    0.5862176441
 C    0.0445995779   -0.9296850636    1.1302958925
 C   -0.0008702047   -0.5925489738    2.5983040989
 C   -1.2908401985   -0.0594041802    3.0388898012
 C   -2.3505810772    0.3814431487    3.3952854251
 H    0.5784597808    1.9628709038    0.5884769362
 H   -0.3446581563    1.8992782765   -0.9171488426
 H   -1.1654773487    1.7254359902    0.6450288887
 H    0.0217865079   -0.5638283500   -2.1484170594
 H    0.3352327239   -3.1450957100    1.0134524930
 H    0.2369698069   -1.4893957980    3.1828511897
 H    0.7835609394    0.1382806117    2.8394138793
 H   -3.2882093379    0.7644453947    3.7137508041