24

 C   -0.5072184094    1.1984013571    0.0853772490
 N   -0.0779077025   -0.1781963792    0.2713021484
 C    1.2701594713   -0.5445034459   -0.1525090466
 C    0.9101184674   -0.5327091166    1.2987927634
 C    1.5259748311    0.5282253451    2.1944151692
 C    0.6133497811   -1.8626877109    1.9836376277
 C   -0.3537609216   -1.7624586590    3.1481965636
 C   -1.8314427183   -1.6026154124    2.8875012346
 C   -1.2989818256   -2.8993991855    3.4461025396
 H    0.2957994963    1.9493700794    0.1463763871
 H   -0.9699212155    1.2890096576   -0.9031363852
 H   -1.2652975575    1.4469666095    0.8353168630
 H    1.3638505477   -1.4802816625   -0.7000868408
 H    1.9254262037    0.2510641842   -0.5080278961
 H    1.8344119109    1.4166242492    1.6401598907
 H    0.8276115054    0.8430520572    2.9772709050
 H    2.4166324251    0.1263021551    2.6900101455
 H    0.1965869734   -2.5414007172    1.2315790422
 H    1.5582210530   -2.3080139947    2.3262805065
 H    0.0326653848   -1.2401312995    4.0194009428
 H   -2.4080648918   -0.9604423554    3.5445497954
 H   -2.1497533149   -1.5846518178    1.8515078415
 H   -1.2736038195   -3.7632396359    2.7894538258
 H   -1.5090407945   -3.1387875519    4.4828912077