18

 C    0.0623416180    1.5198951775    0.0349046941
 N    0.0873815414    0.0748744139    0.0326400138
 C    1.0250383701   -0.6067691653   -0.8912160384
 C    1.4043573746   -1.5384815760    0.2565595137
 C    0.6522421732   -0.6150154747    1.2153380903
 O    1.2560476454   -2.9386021551    0.2202023734
 C    2.5798520744   -2.4001900322    0.4525801257
 C    3.5587199077   -2.5746831582   -0.5849960124
 C    4.3930144012   -2.6999072194   -1.4414310098
 H    1.0557352021    1.9755812659    0.2152817501
 H   -0.3076493019    1.8853685353   -0.9285632149
 H   -0.6208211766    1.8781028070    0.8120082645
 H    0.5540825575   -1.0722767248   -1.7627791665
 H    1.8688755538    0.0181886131   -1.2245811080
 H    1.3255371944    0.0115215122    1.8226649759
 H   -0.0883150604   -1.0886191319    1.8686749581
 H    2.9413396768   -2.5510609294    1.4694953254
 H    5.1263252982   -2.8194165480   -2.2004958150