21

 C    0.0558075870    1.6908000793    0.0428323037
 C   -0.0199192018    0.1608949491    0.0744667913
 C    0.5908984386   -0.4837362203   -1.1720650632
 C    2.1712588548   -0.5270819967   -1.1497682869
 C    2.0758917359   -2.0285886674   -0.6749909705
 C    0.6761288951   -1.9789007140   -1.2454036807
 C   -0.0552245874   -2.4402972655   -2.2515208815
 C   -0.7825478161   -1.2524416073   -2.8662177103
 O   -0.1260990310   -0.0849859191   -2.3374639306
 H    1.0934990145    2.0409140041    0.0176706952
 H   -0.4497750979    2.0762094281   -0.8463142189
 H   -0.4200970913    2.1256561633    0.9269358620
 H    0.4890480086   -0.2244406296    0.9669571454
 H   -1.0665428962   -0.1579030804    0.1472447592
 H    2.5773344512   -0.4510305561   -2.1593334793
 H    2.6818181253    0.1702215476   -0.4806986977
 H    2.7665460833   -2.7521031982   -1.1111400679
 H    2.1166871914   -2.1077418425    0.4152630194
 H   -0.0461361527   -3.4246614724   -2.7026219921
 H   -0.6823241447   -1.2459672416   -3.9595681106
 H   -1.8598878567   -1.2185323003   -2.6365949659