20

 C   -0.0607505276    1.6696112343   -0.0911489289
 C    0.0343625747    0.1520069190   -0.0432700326
 C    1.1884675943   -0.6241828860   -0.7628980401
 C    2.1479978965   -0.1657621050    0.3724240467
 C    0.8291115239   -0.5947562243    1.0853072583
 C    0.8491630754   -1.8462460334    0.1652563696
 C   -0.4167301227   -2.6606183291   -0.0405068894
 N   -0.2947910583   -3.6345152759   -0.9954532053
 O   -1.4406707935   -2.5088227611    0.5998748219
 H    0.8888649224    2.1830369840    0.0783868982
 H   -0.4410559047    1.9940822928   -1.0664153064
 H   -0.7685045477    2.0251053545    0.6658017081
 H   -0.9552638777   -0.2748125208   -0.2128177142
 H    1.4003811955   -0.6611675219   -1.8341888387
 H    3.0250751264   -0.7945331987    0.5508288514
 H    2.4175545576    0.8892173424    0.4066460777
 H    0.6181877702   -0.5891111135    2.1547579734
 H    1.6988291338   -2.5211418211    0.3221665840
 H    0.4999300491   -3.6764072257   -1.6094175572
 H   -1.1156463774   -4.1664627504   -1.2352790163