14

 C    0.1016659905    1.5157759592    0.0086050767
 C   -0.0590670558    0.0410497243    0.0014945597
 C   -1.1369352692   -0.8083678612    0.0027749666
 C   -0.6529623519   -2.1541800931   -0.0069577864
 C    0.6933563229   -2.0360019876   -0.0138415566
 O    1.0603534450   -0.7139481626   -0.0086319879
 N   -2.5108969700   -0.4114002520    0.0123118465
 O   -3.3546426760   -1.3021161889    0.0114980284
 O   -2.7577395947    0.7946397517    0.0204495456
 H    1.1636876754    1.7682413031    0.0005295951
 H   -0.3881914406    1.9631238936   -0.8607506268
 H   -0.3721076272    1.9530530713    0.8919651261
 H   -1.2493790125   -3.0501851442   -0.0084620948
 H    1.5068364241   -2.7410405735   -0.0221522423