18

 O   -0.2967465699    1.3208820183   -0.2124078779
 C   -0.0433267982   -0.0477039417   -0.0255418229
 C   -0.3200891085   -0.6521302430    1.3252547511
 C   -1.2568628187   -0.9002504717    0.1549638237
 C    1.1243278648   -0.5147007375   -0.8750123550
 C    2.5127996509    0.0317812402   -0.4324537485
 N    3.3206238231   -1.1627700154   -0.1285049006
 C    2.5620258143   -2.1513519701   -0.3466895676
 O    1.2901820376   -1.9545264890   -0.7752204475
 H    0.3510469186    1.8199184200    0.2975374591
 H    0.2964881545   -1.4762917455    1.6648377033
 H   -0.6586624582    0.0235602955    2.1027476504
 H   -2.2092683660   -0.3834676135    0.1564468237
 H   -1.2575358242   -1.8879713152   -0.2897521916
 H    0.9058695478   -0.2821272043   -1.9220447352
 H    3.0019711775    0.6227496558   -1.2120910140
 H    2.4445218087    0.6614747365    0.4632142129
 H    2.8333814058   -3.1939991594   -0.2228576435