18

 O   -0.1930119221    1.0742151977   -0.8026299953
 C   -0.8416189582   -0.1613757722   -0.7624977751
 C   -1.4968172577   -0.3958629403    0.5939491617
 O   -1.4226121915    0.4776847678    1.4333419360
 C   -2.1978884970   -1.7173637797    0.8622632308
 C   -3.1582265356   -2.1576522685   -0.2274541497
 C   -2.6972708789   -3.0201142224   -1.3784508834
 C   -3.5891880612   -3.5997033099   -0.3096102660
 H   -0.3572611876    1.4681451215    0.0699645874
 H   -1.6183800105   -0.2342491063   -1.5402432173
 H   -0.1403591211   -0.9902648716   -0.9565323580
 H   -1.4180457583   -2.4824593852    0.9860796563
 H   -2.7064395815   -1.6186959320    1.8264622621
 H   -3.9264893559   -1.4255469730   -0.4627564790
 H   -3.1185490139   -2.8374082889   -2.3605961949
 H   -1.6595311509   -3.3370794897   -1.3956226133
 H   -3.1491784238   -4.3000474009    0.3927165542
 H   -4.6225776642   -3.8120981865   -0.5586807265