15

 O    0.8145943467    1.0231865789    1.2624671656
 C    0.5303877520    1.6899080841    0.3038476995
 C    1.1563687189    1.5115838169   -1.0775297400
 N    1.2518559788    2.7709569700   -1.7858652114
 C    2.3032218801    3.6211409587   -1.4870972607
 N    2.6877639961    4.5815417653   -2.3305135089
 N    3.6756368448    5.1823145598   -1.6612070193
 N    3.9679654554    4.6983449013   -0.4713806579
 C    3.1048448559    3.6898312760   -0.3251596244
 H   -0.2340713284    2.4984277374    0.3422267101
 H    2.1141959225    0.9837338868   -0.9645506670
 H    0.4802771572    0.8542447833   -1.6381320575
 H    1.0401830117    2.7402726446   -2.7713264372
 H    4.1731191067    5.9640359707   -2.0536318458
 H    3.0967130218    3.0869223762    0.5678060949