20

 O    0.3020367367    0.1324457498   -0.7216650903
 C    0.1853534433    1.2753241286   -0.3356257975
 N   -0.9838760872    1.8839300017    0.0355396051
 C   -0.8406584447    3.2304767584    0.5588709721
 C    0.5556944618    3.6413690576    0.0353708408
 C    1.3121967242    2.3073304046   -0.1364059451
 C    2.1626578280    1.9220485736    1.0619270396
 C    3.1932442909    0.8344605227    0.9333150170
 C    3.6316904172    2.2699018195    1.0936250325
 H   -1.8315666982    1.3443485396    0.1115918247
 H   -1.6318456152    3.8900606247    0.1881851590
 H   -0.8842690981    3.2468912513    1.6574437617
 H    0.4456368416    4.1375485030   -0.9330737973
 H    1.0625630710    4.3334778527    0.7111604023
 H    1.9437711729    2.3041837164   -1.0294244643
 H    1.6396765623    1.9743412004    2.0145312265
 H    3.3316297568    0.1565928033    1.7679164870
 H    3.3028575551    0.3667831132   -0.0383403701
 H    4.0503692675    2.7745007820    0.2286451265
 H    4.0693573440    2.5744741568    2.0379518397