21

 C    0.0839534782    1.4210060856   -0.5590069565
 C    1.4654027042    1.5695553997    0.1496074716
 C    1.4938388989    2.2997708868    1.5144954402
 C    2.0075165070    1.2518570324    2.5235278038
 C    1.4378184203   -0.0982779613    2.0176576877
 C   -0.0355248108   -0.2787160491    2.3195374247
 C   -0.8082295043   -0.2393076632    1.2328892967
 C   -0.0197763729   -0.0504848878   -0.0348106954
 C    1.4545350678    0.0404321504    0.4724919592
 H   -0.7037782769    2.1077925241   -0.2349377217
 H    0.1600063174    1.4716471018   -1.6487067620
 H    2.2703160219    1.9105368085   -0.5054923362
 H    2.1220446527    3.1950624601    1.4976545037
 H    0.4858760993    2.6243203907    1.7921789180
 H    3.1031800264    1.2096811713    2.4966504753
 H    1.7197363249    1.4761805877    3.5559920559
 H    2.0312101171   -0.9373331570    2.3997223140
 H   -0.4010390719   -0.3903081949    3.3361252039
 H   -1.8916410416   -0.3116195192    1.2385817209
 H   -0.2593244679   -0.7935179971   -0.8015002090
 H    2.1958826802   -0.5743456695   -0.0384688945