14

 O    0.1112570797    1.2901747347    0.1671027174
 C    0.0967660560   -0.0463032518    0.0148129497
 N    0.0787510067   -0.7047735574   -1.1071136053
 C    0.0216463556   -2.0415062656   -0.6996974615
 C   -0.0007005479   -2.1158086574    0.6763873611
 N    0.0580690027   -3.4152511618    1.0861459715
 C    0.0561371236   -4.1945476677   -0.0744732976
 C    0.0529670071   -3.3816049554   -1.1870867529
 N    0.0909170699   -0.8220077416    1.1608509833
 H    0.0981926397    1.6576834984   -0.7257772189
 H   -0.0614575576   -3.7730489939    2.0164135891
 H    0.0378784465   -5.2689962330    0.0064722934
 H    0.0751860723   -3.7211967791   -2.2104904000
 H   -0.0484765843   -0.4711044085    2.0920531807