14

 C    0.1293008409    1.7330542371    0.7534545389
 N   -0.0049028057    0.3338438907    1.1029436431
 C    0.1310287336   -0.5163106954    0.1770917844
 N    0.0114308381   -1.8718542859    0.4616672097
 C    0.1404360623   -2.8767428483   -0.4681251967
 N    0.3862282035   -2.6570246678   -1.7020462301
 C   -0.0306020130   -4.2073992661    0.0929918260
 N   -0.1594546482   -5.2828843027    0.4973063340
 H    0.9342564955    2.1812241644    1.3469951782
 H    0.3410920817    1.9080895379   -0.3124840088
 H   -0.7919884231    2.2645494496    1.0177052524
 H    0.3419385102   -0.3082486789   -0.8747383799
 H   -0.1836240720   -2.1094266144    1.4230938996
 H    0.4447224661   -3.5249927403   -2.2275698110