20

 O   -0.4124246943    0.1149795344    0.2944740152
 C   -0.0902542196    1.2386063863    0.0113641087
 C    1.3478479813    1.7131276054   -0.1377361837
 N    1.4556070245    2.7068927385   -1.1766546496
 C    1.5418350956    2.2683688704   -2.5889852434
 C    2.5529731599    3.4112318640   -2.8591720579
 C    2.6692005143    3.5178301826   -1.3365483503
 C    3.0824484245    4.6673193922   -0.4813912882
 C    3.9342444471    3.4066887268   -0.5312592878
 H   -0.8378727466    2.0462304653   -0.1574337906
 H    1.6106205527    2.1803460249    0.8237676803
 H    2.0027691666    0.8341811034   -0.2668897454
 H    1.9935064647    1.2709931009   -2.7011877563
 H    0.5911098103    2.2902409914   -3.1302539041
 H    3.4600523987    3.1416332135   -3.4015253812
 H    2.0978492755    4.2902672554   -3.3211793153
 H    3.4518984821    5.5658722823   -0.9652938555
 H    2.5149097838    4.8509019887    0.4259761294
 H    3.9396989363    2.7729545083    0.3497724349
 H    4.8836424425    3.4414111251   -1.0566924590