18

 O   -0.0412505554   -0.0348155798    0.4035582314
 C    0.0107428745    1.1687118751    0.2615500478
 N    1.1309275663    1.8717105236   -0.0558360927
 C    2.4600818006    1.2583157690   -0.1340121492
 C    3.3810184260    2.3304839435    0.4793458217
 C    2.7003802288    3.6490933780    0.1253176879
 O    2.8850232537    4.0392801264   -1.2551908559
 C    1.4759300488    3.9080405728   -1.5386941928
 C    1.2056145973    3.3147768430   -0.1354383294
 H   -0.8699039023    1.8315776057    0.3825035731
 H    2.4449411080    0.3094741543    0.4029052604
 H    2.7319013886    1.0569174428   -1.1768315734
 H    3.4166912170    2.2237040470    1.5689688235
 H    4.4021005877    2.2888826174    0.0937540895
 H    2.9314507801    4.4708332697    0.8104432912
 H    1.0036203242    4.8828409808   -1.7153378899
 H    1.2770793058    3.2440038349   -2.3870648128
 H    0.4248713803    3.7905731959    0.4589087197