14

 O   -0.0294223696   -0.0706112140    0.0005686730
 C   -0.0616160571    1.1303443738   -0.0679760387
 C   -1.2318473306    2.0651848499    0.1363638349
 C   -0.6180673575    3.2740974669    0.0801796888
 C    0.6029449997    3.3673889628   -0.8008574129
 C    1.1853710425    4.3123942138    0.2833187945
 C    1.2960035104    3.1162366328    1.1528461296
 C    1.1628701310    2.0970792036   -0.0473046616
 N    0.0177358397    4.0291725637    1.1504621877
 H   -2.0035081062    1.7720989493    0.8375588400
 H    0.5993241480    3.4492722256   -1.8825498546
 H    1.7213477863    5.2507399348    0.2578381685
 H    1.7788540027    2.9768824615    2.1110528234
 H    2.1267416207    1.6722390255   -0.3359583925