17

 O    0.0003407534    1.3910162581    0.0585233849
 C   -0.1059083307   -0.0012157329    0.0801294351
 C   -0.4605449167   -0.8241213529    1.3026327882
 C   -1.5076504291   -0.1163908859    2.1220733949
 C   -2.8288481135   -0.8580172486    2.1157164543
 C   -2.4278758013   -0.0492404978    0.9086163208
 O   -3.1050184481    1.1008768097    0.5062420488
 C   -1.4008511628   -0.7514228662    0.0577048289
 O   -1.7130831935   -1.7522672279   -0.8510507890
 H   -0.8878167314    1.7583613306    0.1376147988
 H    0.6756670670   -0.4551134426   -0.5270753458
 H    0.1341809214   -1.6739716273    1.6180288012
 H   -1.3206453768    0.7020603202    2.8059635193
 H   -2.8555476083   -1.9429555614    2.0761094021
 H   -3.6091208575   -0.3988514296    2.7153095709
 H   -3.8892645897    0.8393803797    0.0110541590
 H   -1.4674425524   -1.4521402651   -1.7317314625