16

 C    0.0551064106    1.5296747292    0.0556021748
 C   -0.0331262014   -0.0022215230   -0.0772653305
 C   -1.4042452035   -0.4976045459   -0.0359031005
 C   -2.5510614162   -0.8625664673   -0.0011890165
 C   -3.9092879303   -1.3975324254    0.0369521125
 C   -3.8188093667   -2.9529495890    0.0619546483
 O   -4.2368173413   -3.6393316819   -0.8223919582
 C   -4.6566555940   -0.9423709984    1.2169074060
 N   -5.2538902202   -0.6260541319    2.1537191717
 H    1.1001248029    1.8498430009    0.0223991428
 H   -0.4833558905    2.0223676671   -0.7580205483
 H   -0.3794061523    1.8635986096    1.0012158378
 H    0.4346242991   -0.3215901265   -1.0168036531
 H    0.5427237492   -0.4778394990    0.7263009233
 H   -4.4718503335   -1.1326577528   -0.8658107550
 H   -3.3061738219   -3.3520312958    0.9591108551