19

 C   -0.0504926685    1.4769347929    0.0128958395
 C    0.0290963208   -0.0190097941   -0.0104256307
 C    0.9005597695   -0.8895845874   -0.9176146003
 C    0.0299171864   -2.0852767898   -0.4473328804
 C    0.4006454324   -2.2480287760    1.0477779193
 C   -0.2627694940   -0.8810234445    1.2587610962
 C   -0.6625525399   -0.2958110208    2.4893446020
 C   -0.9889943291    0.1875305058    3.5435199213
 C   -1.0788441918   -1.0389494701   -0.0268413801
 H    0.8969412260    1.9158483347    0.3464148692
 H   -0.2703994894    1.8720550406   -0.9851410544
 H   -0.8315350188    1.8209798053    0.6968022730
 H    0.7206893165   -0.6432518208   -1.9687537957
 H    1.9798235541   -0.9428864808   -0.7307040542
 H   -0.1205146731   -2.9546355817   -1.0825761976
 H   -0.1815980749   -3.0343970790    1.5348585746
 H    1.4612643964   -2.3605387432    1.2999418466
 H   -1.2801028187    0.6118512404    4.4718723572
 H   -2.1453009640   -0.9605397115   -0.1833609954