23

 C    0.0281302242    1.6176363383   -0.0914672365
 C    1.5516007033    1.4703874858    0.1661275075
 C    1.2961959624   -0.0003694617    0.6146225663
 C   -0.0764013270    0.0693408410   -0.1206535156
 C    2.2814882552   -1.0612672871    0.2043696981
 C    3.5179032435   -1.4665235281    0.9680619295
 C    3.2779266547   -1.4764162284    2.4842445066
 C    2.1036752152   -2.4878126399    2.2774497830
 C    2.3641470731   -2.4596100604    0.7648451193
 H   -0.4892811816    2.0416558058    0.7742541766
 H   -0.2864232354    2.1656053051   -0.9828658379
 H    2.1233450751    1.5030166686   -0.7675429035
 H    2.0225288361    2.1482575282    0.8826676637
 H    1.1245948449   -0.0220267392    1.6946852790
 H   -0.9381519660   -0.3996807150    0.3611307676
 H    0.0038717370   -0.3209842262   -1.1408981944
 H    2.4673878023   -1.0572231888   -0.8703309376
 H    4.4950344236   -1.4555714305    0.4987763179
 H    4.1075846025   -1.9235826810    3.0361255149
 H    3.0376067470   -0.5147288988    2.9491856911
 H    2.3221952709   -3.4613965420    2.7215812272
 H    1.1077438475   -2.1769797625    2.6094854661
 H    2.3210083312   -3.3267903530    0.1157913810