19

 O    0.1280887643    1.4266688667    0.1685813868
 C    0.0453930055    0.0234403111   -0.0318453251
 C   -1.3781935440   -0.5136470662    0.1425966832
 C   -1.4564672618   -2.0303789165    0.0245418806
 C   -2.8367120917   -2.6957303874    0.0545140640
 O   -3.5443346457   -2.2776388447   -1.1277459101
 C   -2.6197740767   -3.3757429542   -1.2311118749
 C   -1.2452846641   -2.7112563940   -1.4036288922
 O   -1.1088892485   -1.8803486998   -2.5241632774
 H   -0.3552410860    1.8524164533   -0.5464245954
 H    0.4308579043   -0.2675841107   -1.0189604385
 H    0.7052473604   -0.4194171490    0.7234577698
 H   -1.7547396059   -0.1979528798    1.1234166127
 H   -2.0352192968   -0.0553198479   -0.6070013325
 H   -0.7902027209   -2.5103224225    0.7508646206
 H   -3.4419805995   -2.9923591877    0.9032182389
 H   -3.0043456060   -4.3099348257   -1.6236732566
 H   -0.4063142110   -3.4101134324   -1.4102719383
 H   -1.9559871559   -1.4259734628   -2.6204620055