20

 C   -0.0494944397    1.5179375105    0.0441690051
 C    0.0340009805    0.0090354355    0.0473155299
 C    0.9282939592   -0.7948471092   -0.9666630226
 C    0.7353147912   -1.9226484112    0.1163751929
 O    1.4998204112   -3.0839155832    0.1831411454
 C    0.7855882866   -0.7792505509    1.1652139759
 C   -0.7719499705   -2.1846760688   -0.0473396598
 N   -1.6222698000   -1.6706002725    1.0544129837
 C   -1.2798978451   -0.8009519591   -0.0990738305
 H    0.9444630314    1.9733375163    0.1033948132
 H   -0.5303212785    1.8870471103   -0.8695641660
 H   -0.6351493409    1.8797181656    0.8965604429
 H    0.5318147298   -0.9750506580   -1.9707777198
 H    1.9555894536   -0.4198879781   -1.0203242400
 H    2.4225050741   -2.8331134813    0.2928602253
 H    1.8031176172   -0.3971880332    1.2891008715
 H    0.2947719408   -0.9274974986    2.1246127111
 H   -1.1127459820   -2.9957350324   -0.6799862820
 H   -2.5669713750   -2.0254483744    0.9150880257
 H   -2.0570968839   -0.4656072171   -0.7776539118