21

 C    0.6371953898    1.7742676717   -0.1029852338
 C    0.2151183627    0.2973875071    0.0003201760
 C    0.7094422324   -0.5341151044   -1.1743925469
 C    0.1756552976   -0.3344498047   -2.5583962808
 C    1.6482873489   -1.4057886146   -0.7962838179
 C    1.9429176122   -1.3520565150    0.6805738679
 C    0.8296650379   -0.4396515231    1.2009147466
 C    0.7404582545    0.0236218939    2.5879465739
 O   -0.0957972474   -1.0379204227    2.1199408435
 H    1.7273496690    1.8692347843   -0.1461749210
 H    0.2259047725    2.2390063451   -1.0045738598
 H    0.2789797454    2.3496426682    0.7560669846
 H   -0.8780585110    0.2512754665    0.0894423505
 H    0.3411427303    0.6901426983   -2.9136691468
 H    0.6466255768   -1.0170802199   -3.2709982215
 H   -0.9083773286   -0.5036140332   -2.5907482038
 H    2.1606848100   -2.0861127630   -1.4686720775
 H    1.8901789128   -2.3278019937    1.1767114897
 H    2.9422227851   -0.9429629727    0.8858867137
 H    1.5098343412   -0.2658429539    3.3042421620
 H    0.2261374279    0.9548242056    2.8241831013