15

 C    0.0611928062    1.5214666696    0.0432144714
 C    0.0698820293    0.0309710524   -0.0272861843
 C    0.0041474091   -0.7815130341   -1.1180359989
 O   -0.0869432479   -0.5856992588   -2.4537827744
 N    0.0467475461   -2.0950956049   -0.6557416856
 C    0.0063267964   -3.2650085125   -1.4162551655
 O    0.0482867612   -4.3660632840   -0.9353487523
 C    0.1386263178   -1.9967908863    0.7306082340
 N    0.1538763219   -0.7614902807    1.1225098493
 H    0.9738651082    1.9013258664    0.5147121533
 H   -0.0100937831    1.9751954480   -0.9519288161
 H   -0.7865330216    1.8856215414    0.6334231743
 H   -0.1061080562    0.3613288236   -2.6260880326
 H   -0.0676469527   -3.0545180372   -2.4946841780
 H    0.1874039152   -2.8829939230    1.3420578354