18

 C    0.0690069293    1.5103499541    0.0268158079
 C   -0.0256076096    0.0238305111   -0.0584958546
 C   -1.1014610990   -0.7770075485   -0.0497911597
 C   -0.6524414001   -2.2170533253   -0.1671850965
 O    0.7655326138   -2.1749122400   -0.2410758909
 C    1.2101901698   -0.8274521509   -0.1745047194
 C   -2.5222283707   -0.3545404982    0.0461320461
 N   -3.4244948385   -1.3883048287    0.1092192614
 O   -2.8949612090    0.8080672448    0.0412371139
 H    0.6894826721    1.8038524797    0.8831783097
 H    0.5662744397    1.9099281629   -0.8663318298
 H   -0.9181237633    1.9589917178    0.1175291464
 H   -0.9548078933   -2.8270563263    0.7022559041
 H   -1.0584903359   -2.7095808049   -1.0652103769
 H    1.7937657851   -0.5751018492   -1.0749860498
 H    1.8810667845   -0.6895167689    0.6894507850
 H   -3.1433257767   -2.3277780592    0.3319227551
 H   -4.3828877281   -1.1338526303    0.2887952081