23

 C    0.0662820197    1.2269585941   -0.5248472242
 C    0.1419737435   -0.2617497614   -0.1511459515
 C    0.8744202172   -1.0494565267   -1.2476556865
 O    0.5068025715   -2.4143148268   -1.2796387492
 C    1.2079240642   -3.2579782423   -0.3966578341
 C    1.0104846018   -3.0317259138    1.0824098603
 C    0.7829448035   -1.9026628218    1.7542317348
 C    0.6979369815   -0.4694792675    1.2779679214
 C    2.0685011172    0.2049688195    1.5233911537
 H    1.0568972983    1.6551490121   -0.7113092185
 H   -0.5261823599    1.3654448406   -1.4348330268
 H   -0.4036327328    1.8135123349    0.2714889015
 H   -0.8799644302   -0.6613564405   -0.1502380485
 H    0.5885818317   -0.6466972172   -2.2260129454
 H    1.9684029498   -0.9439686838   -1.1605402917
 H    0.8751606257   -4.2717947763   -0.6456135494
 H    2.2920012526   -3.2238275806   -0.6202945766
 H    1.1132340686   -3.9445323838    1.6684707702
 H    0.7183253737   -1.9950776661    2.8383007315
 H   -0.0136880351    0.0357781639    1.9467142700
 H    2.8400772225   -0.2035070398    0.8632236405
 H    2.0207388478    1.2865407731    1.3691042960
 H    2.3981341371    0.0313491805    2.5523840026