18

 N   -0.9150883147    1.0828898279   -0.4705416829
 C   -0.8147047657   -0.1707480708   -0.5630637072
 O   -0.8715843613   -0.9296650601    0.5537924063
 C   -0.9265106921   -2.3386942237    0.3794281329
 C   -2.3538153358   -2.8307030920    0.2142972555
 O   -2.8296944027   -2.4012562657   -1.0442934359
 C   -4.1968956708   -2.6527409871   -1.2538186876
 C   -4.5833414652   -2.0860204666   -2.6095388410
 O   -5.6585605947   -2.2550287005   -3.1175849918
 H   -0.8184440790    1.5060214221   -1.3911784654
 H   -0.6632579859   -0.7538503163   -1.4796905252
 H   -0.3242157976   -2.6495572863   -0.4842732717
 H   -0.4904799550   -2.7766160875    1.2813252464
 H   -2.3751823178   -3.9309376224    0.2867437563
 H   -2.9774924303   -2.4239740082    1.0250360418
 H   -4.4293297908   -3.7297673260   -1.2356882314
 H   -4.8226456304   -2.1721292524   -0.4825905693
 H   -3.7769079302   -1.4892284843   -3.0898204098