14

 C    0.0055372014    1.5331578291    0.1196193325
 O    1.2775329754    2.0427867649   -0.3553149797
 C    2.2560088725    1.2130424492   -0.7779382748
 N    2.2774301124   -0.0589775764   -0.8458479121
 C    1.1043099589   -0.6672983716   -0.4141545644
 N    0.9145539917   -1.9828275424   -0.4012134543
 N   -0.3368146442   -2.1141548507    0.0834499640
 C   -0.9404158954   -0.9293273941    0.3756018252
 C   -0.0223766383    0.0423882073    0.0609540032
 H   -0.1201484473    1.9234796578    1.1373654378
 H   -0.7648092099    2.0002362034   -0.5067709197
 H    3.1163502019    1.8007125809   -1.0878810369
 H   -0.7182089345   -3.0381227765    0.1899471908
 H   -1.9435983147   -0.8877411110    0.7710247385