23

 C   -1.9035377333   -0.0900659175   -3.4052711255
 C   -1.1631357020   -0.5898787005   -2.1581568525
 C   -2.1154943982   -1.1374387800   -1.1140949925
 C   -2.5635313048   -2.5851202760   -1.1180975153
 C   -1.7334291898   -2.0459692422    0.0263956460
 C   -0.3124459914   -2.5189329905    0.2147843419
 O   -0.3215353629   -3.8835315759    0.6326507972
 O   -2.4110620769   -1.7333960128    1.2143830572
 C   -2.8426533594   -2.8444780259    1.9859246307
 H   -1.2044028884    0.2984703178   -4.1522452142
 H   -2.4806341794   -0.8971276229   -3.8683900311
 H   -2.6032000943    0.7137707887   -3.1519009022
 H   -0.4439542528   -1.3613284320   -2.4566405798
 H   -0.5744808201    0.2319438232   -1.7294792641
 H   -2.8903233714   -0.4356844403   -0.8145881252
 H   -3.6069245588   -2.8031149826   -0.9218414276
 H   -2.0796198059   -3.2683625134   -1.8091774141
 H    0.2503052309   -2.4090326407   -0.7222722511
 H    0.1633892141   -1.8773490848    0.9714270022
 H    0.5824333390   -4.1320213321    0.8489009448
 H   -3.4710687210   -3.5253888115    1.3952622565
 H   -2.0015950801   -3.4186188006    2.3871384843
 H   -3.4364838131   -2.4362240075    2.8080635544