18

 O    0.1703550247    1.4527369742    0.2489468430
 C    0.0426308013    0.0580229253    0.1070365351
 C    0.1734051148   -0.7413433704    1.4215558367
 N   -1.1733507292   -1.3959917902    1.2261319275
 C   -2.1353435425   -0.2726527883    1.2123318632
 C   -1.3618629627   -0.5388258483   -0.0139049359
 C   -1.9514657311   -1.0555108042   -1.3062116175
 C   -2.1717369468    0.0405889302   -2.2476437629
 C   -2.3168122002    0.9697169714   -2.9971489432
 H   -0.1279505084    1.8586106053   -0.5730961722
 H    0.7077896594   -0.3273178750   -0.6784268519
 H    0.9672553661   -1.4896752566    1.4184633775
 H    0.2406803364   -0.1329440308    2.3280533173
 H   -3.1702384393   -0.6011367959    1.2266317804
 H   -1.9230066213    0.6140119686    1.8045243417
 H   -1.2728187749   -1.7931650252   -1.7548856307
 H   -2.8914877511   -1.5822343616   -1.1050284666
 H   -2.4689950255    1.7738699116   -3.6740357318