19

 C   -0.0980989909    1.5430704723   -0.0018184209
 C   -0.0297686299    0.0384286576   -0.0182780401
 C    0.9767777730   -0.6868140348   -0.9047328409
 C    0.4343080905   -2.1294872497   -0.8497683856
 C    0.7814432964   -2.7657395235    0.4938319024
 O    0.4248816450   -1.8922212855    1.5674869058
 C   -0.3881604664   -0.8127290343    1.1902920052
 C   -1.2449764204   -0.8811052178   -0.0482944590
 O   -0.9927824853   -1.9822215883   -0.8912647077
 H    0.8286898514    1.9826942025    0.3851159824
 H   -0.2633975537    1.9434954920   -1.0094212973
 H   -0.9177267957    1.8964873989    0.6325462187
 H    0.9481555703   -0.2878036630   -1.9242271292
 H    2.0048903956   -0.6262184308   -0.5338298173
 H    0.7351540550   -2.7678761070   -1.6826175370
 H    0.2352953829   -3.7133283108    0.5932614633
 H    1.8569285385   -2.9715863212    0.5715409593
 H   -0.7799492897   -0.3151376959    2.0714617569
 H   -2.2765892367   -0.5500015607   -0.0806012190