17

 N   -0.2426242748    1.5725628948   -0.0444967346
 C   -0.0009430992    0.1361840610   -0.0503600778
 C   -1.2565281374   -0.5823089793    0.2158897790
 N   -2.2194783974   -1.1889114033    0.4136320804
 C    0.6206611342   -0.4179025627   -1.3904879228
 N   -0.1356130820    0.1061858909   -2.5170220837
 C    2.0895702240    0.0314968734   -1.4342613595
 N    2.9785842030   -0.7783820627   -0.8015446075
 O    2.4074523465    1.0874707170   -1.9545995181
 H    0.6370184518    2.0548490958   -0.2116892047
 H   -0.8476509330    1.7903033586   -0.8331314362
 H    0.6838647501   -0.0999105712    0.7742329379
 H    0.5599096311   -1.5109723769   -1.3656949229
 H    0.3832436874    0.8942651203   -2.8985833600
 H   -0.2160184023   -0.5866724987   -3.2514512110
 H    2.7264535336   -1.6895737559   -0.4601062138
 H    3.9508501143   -0.5133076010   -0.7940436847