20

 C   -0.1055310788    1.6717415655    0.0955513432
 C   -0.1220050206    0.1462139098    0.0209017882
 N    0.6655693270   -0.4363938052    1.1067192221
 C    2.1447323086   -0.5281224363    0.8873089848
 C    2.2548288095   -1.7561698867    1.8402994811
 C    3.0799357451   -2.5488831191    0.8267517099
 O    2.9221783804   -3.9455404981    0.9400590346
 C    2.0950844143   -1.7760003899   -0.0728411973
 C    0.9454722515   -1.8996968521    1.0031612921
 H    0.9066212664    2.0648500594   -0.0497998782
 H   -0.7447766522    2.1071750999   -0.6786536631
 H   -0.4594431844    2.0096685607    1.0736049363
 H   -1.1509516419   -0.2170716268    0.1382815257
 H    0.2168962828   -0.1814045243   -0.9784257158
 H    2.8052924680    0.3383393145    0.8383183990
 H    2.3211620955   -1.7217026022    2.9264265399
 H    4.1385984393   -2.2656502823    0.7379385460
 H    3.3481516251   -4.3602398417    0.1835098892
 H    2.0099358056   -1.7886559732   -1.1593824241
 H    0.1733057487   -2.6638553121    1.0849305262