19

 C    0.0193768865    1.5669404982    0.1716007724
 C    0.1118421441    0.0562436912    0.0506804802
 C    0.8062816652   -0.4690958158   -1.2283701965
 C    1.5875530937   -1.7131190887   -0.7387701290
 C    1.2656969256   -1.7783375062    0.7733816414
 C    2.4077669443   -2.2291763740    1.6665858788
 O    0.8926229797   -0.4515829332    1.1259639265
 H    1.0179033698    2.0130800404    0.1255791578
 H   -0.5846437216    1.9798274896   -0.6424428018
 H   -0.4419215795    1.8524946262    1.1211730403
 H   -0.9022551346   -0.3782011369    0.1100555747
 H    0.0822513596   -0.7011978559   -2.0137495627
 H    1.4875753929    0.2895126438   -1.6254113274
 H    1.2937021072   -2.6317397369   -1.2532600094
 H    2.6635725575   -1.5837438021   -0.8895038271
 H    0.3977845623   -2.4449780898    0.9248972785
 H    3.2733407101   -1.5718297286    1.5366144035
 H    2.1106698109   -2.2033321650    2.7187702425
 H    2.7068455566   -3.2523719664    1.4183770673