21

 C    1.1270775578    1.6857181106    0.6738783962
 C    0.4725310795    0.4321515184    0.0567845382
 C    1.1969689487    0.0301810044   -1.2234264626
 C    0.5137970858   -0.9762672264   -2.1741266916
 C    0.6097703797    0.1584225123   -3.2122251986
 O    1.1319534894    1.0757669907   -2.2270145493
 C    0.4756541776   -0.7186173274    1.0628830408
 C   -0.6275339831   -0.7197968877    2.1057219021
 O    1.3178843601   -1.5887682515    1.0265064162
 H    2.1518070878    1.4687405296    0.9924009998
 H    1.1595117567    2.4789642453   -0.0768228986
 H    0.5698422399    2.0531218282    1.5403431925
 H   -0.5685854673    0.6790638359   -0.1919737781
 H    2.2368575452   -0.2256521199   -0.9901390420
 H    1.0739275111   -1.8858780574   -2.3900456012
 H   -0.5058716682   -1.2431986854   -1.8867846267
 H    1.3271202722   -0.0152973808   -4.0244283385
 H   -0.3327445309    0.5142152266   -3.6444831043
 H   -1.5830090249   -0.9522083722    1.6196376038
 H   -0.4206970871   -1.4733389974    2.8666304431
 H   -0.7409657001    0.2648692642    2.5699977988