14

 O   -0.2220531721    1.4104178205   -0.1601475883
 C   -0.0276019416    0.0321702794   -0.0469616726
 C    1.0929209149   -0.5030507803   -0.9353297955
 C    2.3772220231    0.1037000191   -0.5799833826
 N    3.3633281131    0.6202080574   -0.2692002772
 C   -0.3106998491   -0.6274880497    1.2775718170
 C   -1.2758535004   -0.7750415353    0.1142945073
 H    0.5303172306    1.8546387140    0.2503024591
 H    1.1731375336   -1.5910732312   -0.8468308906
 H    0.8737289423   -0.2694801289   -1.9833392831
 H    0.2800983714   -1.4869080522    1.5759345344
 H   -0.6093473934    0.0253887611    2.0893476837
 H   -2.2022731805   -0.2150367073    0.1590632511
 H   -1.3458313018   -1.7356518967   -0.3843769228