18

 C   -0.2148812516    1.5278143379    0.0061860838
 C    0.0594108728    0.0258870963   -0.0681494284
 C    0.7904831201   -0.5425809832    1.1632081690
 O   -0.0365207343   -0.2451566437    2.3083549525
 C    0.9038745819   -2.0876690492    1.0754365698
 O   -0.3719173274   -2.6819598552    1.1044831552
 C    2.1245519553    0.0381463361    1.3276887101
 C    3.2344458894    0.4701098797    1.4950380723
 H    0.7165784964    2.0982197763    0.0764649612
 H   -0.7491394901    1.8633566390   -0.8875764174
 H   -0.8246923482    1.7665067546    0.8805899805
 H   -0.8750464571   -0.5351155291   -0.1649295739
 H    0.6652863769   -0.2100604585   -0.9499611971
 H    0.5274436100   -0.2612529261    3.0894313524
 H    1.3884299723   -2.3798233313    0.1389183554
 H    1.5372057929   -2.4367822357    1.9071699390
 H   -0.8400994073   -2.2438971754    1.8282103618
 H    4.2110283480    0.8658883975    1.6308080738