18

 C   -0.0411786208    1.5196988542    0.4050005548
 C    1.4271883441    1.6107629523   -0.0864643524
 N    1.4320465263    0.1553376944   -0.4496142557
 C   -0.0265896334    0.0384776461   -0.0545212932
 C   -0.6612344168   -0.3386460772   -1.3788442576
 C    0.0427041635    0.4405344285   -2.5304818451
 O   -0.0189069456   -0.7237340925   -3.4207731941
 C    0.3576966490   -1.2732109731   -2.1180044699
 C    1.3614421908   -0.1147811151   -1.8677798767
 H   -0.1688266887    1.6556437395    1.4802447481
 H   -0.7570251536    2.1604669717   -0.1146992101
 H    1.5921943746    2.2771882187   -0.9406438243
 H    2.1655717833    1.8475910717    0.6843174866
 H   -0.2131151696   -0.7013335921    0.7302847673
 H   -1.7265749840   -0.5507648589   -1.4549846799
 H   -0.1916205044    1.4157556850   -2.9574050380
 H    0.5008184695   -2.3502214645   -2.0325345563
 H    2.2948497759   -0.0760314486   -2.4276141935