19

 C    0.0466189446    1.5629842986    0.0860839730
 C    0.0039968888    0.0351750959    0.0532883200
 O    0.6976332911   -0.5182079126    1.1611107702
 C   -1.4424523095   -0.5281292176   -0.0263845663
 C   -2.2114207940   -0.0580405213   -1.2810864633
 C   -1.4312164701   -1.9866273068    0.0303335011
 C   -1.4581023273   -3.1945936647    0.0436495936
 C   -1.4358385221   -4.6327742953    0.0630270641
 O   -2.3816478865   -5.3333147078    0.3460710373
 H    1.0792108635    1.8906754475    0.2304814263
 H   -0.3277718365    2.0091259346   -0.8388902801
 H   -0.5552719217    1.9533373695    0.9169612374
 H    0.5528920665   -0.3273139690   -0.8238410685
 H    0.2991930081   -0.1722399394    1.9679095581
 H   -1.9829752590   -0.1624211344    0.8607196656
 H   -1.6663870474   -0.3272284635   -2.1909373318
 H   -3.1952861832   -0.5303659773   -1.3248980743
 H   -2.3522699286    1.0250897817   -1.2669613592
 H   -0.4545204368   -5.0727279581   -0.2092085032