16

 O   -0.0265019562    1.3338327594    0.0792888451
 C    0.0298989117   -0.0679106814   -0.0555136292
 C   -1.3926441879   -0.6007586257   -0.1522019719
 C   -1.3754697354   -0.5287241996   -1.6499976558
 C    0.2020204966   -0.5597633244   -1.5272108683
 C    0.1449131583   -2.1018198592   -1.4097230612
 C   -1.3167467437   -1.9014832253   -0.9888084036
 C   -2.3444667087   -2.8853873307   -0.9210306690
 N   -3.1676702568   -3.6981079763   -0.8734342785
 H    0.8685859375    1.6775054360   -0.0079744340
 H    0.7034225869   -0.5170567375    0.6894801569
 H   -2.2191258645   -0.4280378758    0.5239140957
 H   -2.0758154345   -0.1360454163   -2.3711612934
 H    0.9084708760   -0.0649626365   -2.1898871672
 H    0.2034996611   -2.5985355264   -2.3806356690
 H    0.8271819595   -2.5842484002   -0.7018577665