18

 C    0.9497640817    0.7463930358   -0.6290141448
 C    0.4515896030   -0.4812445362    0.0872267027
 O    1.4033180257   -1.5164358954    0.4132468908
 C    0.7583065163   -0.8197683293    1.4844062473
 C    1.6663261736    0.0085779671    2.3525112634
 C    2.8029032838   -0.6831058277    3.0487073588
 N    3.0702427011    0.2281499187    1.9440749387
 C    1.0394442289    1.1687031100    3.0474292763
 O   -0.1467747677    1.3859106947    3.0604300228
 H    1.8442057662    1.1649338520   -0.1642218952
 H    1.1782064902    0.5094782074   -1.6732632130
 H    0.1686721215    1.5137345843   -0.6227757979
 H   -0.4822807003   -0.8857526756   -0.3057459114
 H    0.0247010239   -1.4102376989    2.0329393646
 H    3.1293668401   -0.3408245963    4.0270399719
 H    2.8828899418   -1.7537669535    2.8795714368
 H    3.2096049780   -0.3202002820    1.0951964772
 H    1.7708545122    1.8263151449    3.5664907508