23

 C    0.2863994680    1.3040441015    0.3635663084
 O    0.1810821722   -0.1004750257    0.2323326412
 C    0.4753004700   -0.5687232837   -1.0600494626
 O    1.8167270787   -0.3260506322   -1.4182845890
 C    2.6341984274   -1.4199875288   -0.9693985799
 C    1.6706187543   -2.5162966487   -0.4789439700
 C    0.3090608760   -2.1023173690   -1.0886429758
 C   -0.8901003979   -2.6096384565   -0.2846784314
 C    0.2033063893   -2.5615320315   -2.5536755272
 H    1.3008176577    1.6544303624    0.1402888506
 H   -0.4172335252    1.8216185145   -0.3067603166
 H    0.0352518284    1.5499813847    1.3978002133
 H   -0.1430471177   -0.0360135231   -1.7984482735
 H    3.2447991304   -1.7461535381   -1.8188621817
 H    3.3115491072   -1.0768862435   -0.1793254294
 H    1.9823839361   -3.5158338009   -0.7934078067
 H    1.6032818785   -2.5084642161    0.6118796758
 H   -0.8431615207   -2.2716037491    0.7516631613
 H   -1.8319945021   -2.2509675152   -0.7144682305
 H   -0.9192155591   -3.7047327124   -0.2949937753
 H    0.2126594535   -3.6548012584   -2.6132060081
 H   -0.7308538042   -2.2123120858   -3.0068195314
 H    1.0308376093   -2.1791160544   -3.1577776416