20

 C    0.0462835724    1.5800786222    0.0002949512
 C    0.0407873908    0.0492302621    0.0206596309
 C    0.7043303790   -0.5213958091   -1.2377184317
 N    0.8313008130   -1.9727186074   -1.1716464776
 C    0.9892455745   -2.7270580503   -0.0426833715
 O    1.3374119735   -3.8928608364   -0.0862188233
 C    0.6163234265   -2.0470751542    1.2725584347
 C    0.7420326553   -0.5227735430    1.2595741611
 O    2.1053300810   -0.1120690502    1.1891161853
 H    1.0696435081    1.9619080782    0.0401953280
 H   -0.4327418573    1.9654297515   -0.9056414700
 H   -0.4971028588    1.9811671140    0.8616438212
 H   -0.9974177514   -0.3056426899    0.0524441125
 H    0.1048080631   -0.2641238965   -2.1179948149
 H    1.6905067082   -0.0546704921   -1.3617176554
 H    1.1249415330   -2.4534977827   -2.0106616020
 H   -0.4192760558   -2.3293818373    1.5010283239
 H    1.2350148350   -2.4951732075    2.0565822094
 H    0.2706919256   -0.1094280810    2.1655722373
 H    2.5859724142   -0.5322604904    1.9087846009