16

 O    0.0082796558   -0.0017561220   -0.3981030095
 C   -0.0077186866    1.1486592715   -0.0689939258
 C   -1.1048056954    2.1101836277    0.4174677561
 C   -0.0008544383    3.1967988282    0.6212347436
 O    0.3501407609    3.4708305678    1.9631566394
 C    1.2391789713    2.4540407254    2.4208021920
 C    2.0840568926    2.0526662106    1.2004103543
 C    1.0884423241    2.2302129960    0.0428591283
 H   -1.8341562536    2.3470377081   -0.3638925073
 H   -1.6452488804    1.8041783794    1.3178061855
 H   -0.1801467405    4.1470881339    0.1172830464
 H    1.8234464921    2.8712086444    3.2445317932
 H    0.6777841859    1.5882245481    2.8056699992
 H    2.9265420302    2.7384083500    1.0726368259
 H    2.4740100761    1.0344342864    1.2712649583
 H    1.5594015958    2.4874715244   -0.9079306796