18

 C    0.0077989730    1.5650807707   -0.0090551760
 C    0.0769284183    0.0555570158   -0.0424415977
 C    0.6853715689   -0.7384632311   -1.1522452109
 C    0.0374433489   -1.8033383568   -1.9723371549
 O    1.7871682139   -0.0352421489   -1.7324699005
 C    2.5337174529   -0.0913737738   -0.4926175153
 C    1.3597201722   -0.7409649817    0.2388176396
 C    1.4513479329   -1.7536100759    1.2302329378
 N    1.5252243844   -2.5823650678    2.0365345825
 H    0.8003507471    2.0104332401   -0.6139376099
 H   -0.9493493953    1.9044558629   -0.4177600686
 H    0.0891762935    1.9437254608    1.0143745510
 H   -0.7789166797   -0.4534376838    0.3960668719
 H   -0.4734851209   -1.3541312542   -2.8313278028
 H    0.7797550689   -2.5126924187   -2.3482407569
 H   -0.7039694534   -2.3458347773   -1.3800130380
 H    3.3945601834   -0.7593285526   -0.5903095160
 H    2.8588956509    0.8962935423   -0.1498030355