22

 C   -0.1102148987    1.5472268265   -0.0081798211
 C    0.0893419909    0.0220652423   -0.0963770075
 C    0.8978385599   -0.3276400786   -1.2705923907
 N    1.5489798435   -0.6023832589   -2.1855151124
 C    0.7244555799   -0.5590591879    1.1760902827
 C   -0.1049503122   -0.5253594140    2.4893233402
 C    0.4618635306   -1.9327098638    2.8345765104
 C   -0.4522030314   -2.9567281832    3.4877017884
 C    0.8351042290   -2.0986704731    1.3336244964
 H    0.8496302991    2.0566604400    0.1157102964
 H   -0.5894898816    1.9362677624   -0.9097689352
 H   -0.7419861162    1.7864765508    0.8514720622
 H   -0.8916159274   -0.4529030574   -0.2339029816
 H    1.7022232948   -0.0899284643    1.3296558880
 H    0.0751758156    0.2917861515    3.1919371576
 H   -1.1806523135   -0.5757939015    2.2809773557
 H    1.3767840999   -1.8198396690    3.4271985351
 H   -1.3748723242   -3.0853037119    2.9101334500
 H    0.0348122547   -3.9356445444    3.5587936968
 H   -0.7332900412   -2.6510667839    4.5017773541
 H    0.0380684688   -2.6118421155    0.7830601036
 H    1.7875904394   -2.5701919459    1.0835572807