17

 C    0.1234868263    1.5206303544    0.0144531901
 C   -0.0326022440   -0.0030411065    0.0431371139
 C    0.6158154947   -0.6152431903    1.3041773213
 C   -1.5072801381   -0.4011137483    0.0214219495
 O   -2.3753703271    0.2537686071    0.5360020289
 C   -1.8126215385   -1.7290211665   -0.7042913749
 C   -3.1704844145   -2.2162774900   -0.5026083447
 N   -4.2404945951   -2.6214147376   -0.3486466505
 H    1.1803068221    1.7958921069    0.0759376666
 H   -0.2882933346    1.9465603286   -0.9050594791
 H   -0.4067088169    1.9718484111    0.8564868339
 H    0.4543822547   -0.4431224977   -0.8370030616
 H    0.1515159891   -0.2066665230    2.2067087793
 H    0.5174766821   -1.7051634867    1.3356584878
 H    1.6828222335   -0.3763387738    1.3287893891
 H   -1.6355376768   -1.5694561177   -1.7761502193
 H   -1.0918224468   -2.4942928200   -0.3938739803