25

 C    0.0158270027    1.6073047265   -0.0047145079
 C    0.0222742794    0.0712863298    0.0498430996
 C    0.6114515867   -0.5317039991   -1.2367762603
 C    0.9130101763   -2.0432660306   -1.1393774104
 C   -0.3764712140   -2.8411698892   -0.8650163916
 C    1.5255614777   -2.5255837447   -2.4635718149
 C    1.9225054365   -2.2655891406    0.0108045099
 C    1.6091857782   -1.4602832318    1.2452918191
 C    0.7632347818   -0.4311026410    1.2646162383
 H    1.0359057845    2.0003509506   -0.0783400783
 H   -0.5478678820    1.9668134008   -0.8722153179
 H   -0.4427918748    2.0339182991    0.8937581948
 H   -1.0281270736   -0.2487212184    0.1369453155
 H   -0.0666880940   -0.3417493636   -2.0786768058
 H    1.5483603554   -0.0060625539   -1.4690108072
 H   -1.1413905952   -2.6231070721   -1.6189098834
 H   -0.1768698685   -3.9180172415   -0.8982061445
 H   -0.7949957266   -2.6139545955    0.1192370333
 H    2.4255169159   -1.9538281369   -2.7162443001
 H    1.8064480596   -3.5835401438   -2.4065444869
 H    0.8151380845   -2.4145486796   -3.2905465760
 H    1.9623387685   -3.3334174008    0.2660810787
 H    2.9369759049   -2.0144648363   -0.3343869227
 H    2.1178184726   -1.7539664599    2.1612110903
 H    0.5792094535    0.0972682923    2.1986454285