17

 C    0.0229294404    1.4944348337   -0.1958871778
 O    1.4282077836    1.5920808995    0.1036118920
 C    1.4803448299    0.2124790149    0.5135168751
 C    0.0299821807   -0.0435894746    0.0203656454
 C   -0.9598718791   -0.6544954205    0.9499468235
 C   -1.7905195659   -1.7324404889    0.7079511289
 N   -2.5135168579   -1.9301217844    1.8362519464
 N   -2.2182904937   -1.0537866377    2.8138754760
 C   -1.2782782005   -0.2799634945    2.2813021375
 H   -0.5935802450    2.0442724309    0.5278055245
 H   -0.2108569360    1.8479593020   -1.2067860928
 H    2.2778776822   -0.3411557997    0.0046138669
 H    1.6077880875    0.1079463437    1.5993202357
 H    0.0234010463   -0.5782505561   -0.9322819641
 H   -1.9135563103   -2.3549903232   -0.1647009278
 H   -3.2136226675   -2.6318472523    2.0062090826
 H   -0.8570701646    0.5235807173    2.8684978080