19

 C    0.3541327620    1.2446002350   -0.2524813766
 O    0.1156912903   -0.1286591149   -0.0213283669
 C    0.6032460976   -0.5787416679    1.1994338129
 C    0.2362424946   -2.0216213258    1.6552512404
 C    1.1919430431   -3.2283438552    1.2987917326
 C    2.2334523756   -3.1952432897    0.1649942531
 C    2.5279968033   -1.6994751960    0.1577652647
 C    2.0526220263   -1.1328993981    1.2847326812
 C    1.5924715096   -2.2011350835    2.2906375617
 H    1.4297001893    1.4684809229   -0.2992203266
 H   -0.1043829338    1.4967867129   -1.2111784088
 H   -0.0948821379    1.8705590270    0.5338860952
 H    0.3219545533    0.1199904875    2.0045829765
 H   -0.7205603885   -2.2617083367    2.1126665923
 H    0.7824738700   -4.1816982290    1.6292061656
 H    3.0615629721   -3.8822986599    0.3910768680
 H    1.8453132659   -3.4751518299   -0.8217773112
 H    2.5541955150   -1.1647486510   -0.7866170992
 H    1.8593988022   -2.2951770776    3.3342957052