17

 O    0.9228522311    0.1429668369   -0.1179376723
 C    0.8466486841    1.3139816386   -0.3362043372
 O    0.8123474444    2.2294966170    0.6560318783
 C    0.7144253589    3.5996429805    0.2827778263
 C    1.2609941207    4.5258257026    1.4002522536
 C    2.4064009726    4.9899406109    0.4665936295
 C    3.5985793013    4.0123817051    0.3685394879
 O    2.9822858000    3.2900010972   -0.7329744892
 C    1.8285986840    4.1297485539   -0.6902037064
 H    0.7819650803    1.7597142106   -1.3451321491
 H   -0.3067759512    3.8277598052   -0.0406510079
 H    0.5642104080    5.3242929746    1.6634879970
 H    1.5602899533    4.0016725581    2.3104732720
 H    2.6237427872    6.0536986020    0.3927060790
 H    4.5477884137    4.4597621732    0.0547258063
 H    3.7671436522    3.3699415248    1.2403475479
 H    1.5182903194    4.4863596789   -1.6754511855