16

 C    0.0596828992    1.5320280166   -0.0625046375
 C    0.0156814552    0.0415264342    0.0416786961
 N    0.0274230424   -0.6706028189   -1.0742194614
 O   -0.0220383087   -2.0531978480   -0.6661499490
 C   -0.0583924385   -2.0298464625    0.6475135203
 C   -0.0395193287   -0.7913290884    1.1874962786
 C   -0.0855985940   -0.9369672801    2.6815138953
 C   -0.1322761230   -2.5078106125    2.8039542071
 O   -0.1101873830   -3.0903139542    1.4506199445
 H    0.9399598075    1.9327512145    0.4509094828
 H    0.0971844683    1.8331224300   -1.1110161325
 H   -0.8243693717    1.9813993906    0.4017925678
 H    0.7930756173   -0.5327321922    3.1958113622
 H   -0.9682554496   -0.4842579825    3.1462159798
 H    0.7318305716   -2.9128971712    3.3339210541
 H   -1.0457739242   -2.8639804755    3.2838554718