24

 C   -0.1886062909    1.5110030006    0.1444204892
 C    0.0578811026    0.0039335655    0.0225130200
 C    0.7663816928   -0.4289495434   -1.2749176140
 C    2.2036089085    0.0966746356   -1.3653312530
 C    0.6943727046   -1.9660363139   -1.3987889450
 N    1.2808372400   -2.5274606476   -2.6113455958
 C    2.6016402287   -3.1352172254   -2.5652753458
 C    0.5491674390   -2.5967249723   -3.7592928277
 O    0.9221518227   -3.0634064911   -4.8161699770
 H    0.7454869740    2.0795665110    0.1773961567
 H   -0.7755368498    1.8840769847   -0.7022432193
 H   -0.7432828464    1.7411329272    1.0592543080
 H    0.6459932155   -0.3431146043    0.8836501198
 H   -0.9071845823   -0.5160033919    0.0875567814
 H    0.2011136785   -0.0137440188   -2.1222860504
 H    2.8198898113   -0.2953715800   -0.5466589680
 H    2.6698781382   -0.1904062271   -2.3116182133
 H    2.2322520702    1.1881284757   -1.3082281584
 H    1.1967061018   -2.4308973541   -0.5420149835
 H   -0.3579099462   -2.2712293110   -1.3443860523
 H    2.6162949918   -3.9823354358   -1.8681234728
 H    2.8359051418   -3.4918922212   -3.5684746505
 H    3.3622618860   -2.4151601073   -2.2489202721
 H   -0.4628328824   -2.1652848150   -3.6211381262