18

 C   -0.0283887128    1.5151739765    0.0997216329
 C    0.0076323059    0.0290143719   -0.0019763213
 C   -0.0071836436   -0.7892214614   -1.1109697600
 O   -0.1161778743   -0.4293201867   -2.4423969918
 C    0.0221752241   -2.1418300165   -0.6712196462
 O    0.0103294241   -3.2387852965   -1.4843498519
 C    0.0650522667   -2.1437475617    0.7025866847
 C    0.1086834212   -3.2735879058    1.6730127017
 N    0.0627443949   -0.8100396623    1.0865668524
 H    0.8978705103    1.9361015363    0.5128439104
 H   -0.1710841676    1.9387203292   -0.8977397792
 H   -0.8554921664    1.8676027119    0.7287083975
 H    0.7508080051   -0.1626222397   -2.7661455487
 H   -0.1479309514   -2.9094458623   -2.3772944395
 H    1.0334634476   -3.2875896248    2.2653472500
 H   -0.7313076971   -3.2508859193    2.3798283426
 H    0.0540371339   -4.2178405011    1.1262801498
 H    0.0823920794   -0.4996179077    2.0417772367