18

 C   -0.0203864052    1.4298597152   -0.1028146662
 C   -0.0172849102   -0.0964778041    0.0353595482
 C    0.7884685076   -0.5475814121    1.2492491593
 O    0.8979880187   -1.6972760284    1.6070128413
 C   -1.4197520119   -0.6893349947    0.0670298766
 C   -2.0839732691   -1.1384824070   -1.2225688358
 C   -1.6203132637   -2.1567375841   -0.2218539573
 O   -0.5165891225   -2.9329886685   -0.5669049469
 H    0.9972370249    1.8317522045   -0.1488287319
 H   -0.5444345973    1.7303883588   -1.0134121318
 H   -0.5292159740    1.9024091345    0.7450896173
 H    0.5088115459   -0.5401679568   -0.8209715892
 H    1.3109322079    0.2576729283    1.8129891965
 H   -2.0685704749   -0.2517169676    0.8224585054
 H   -3.1476244907   -0.9706439261   -1.3491325154
 H   -1.4984488089   -1.0631359997   -2.1326647904
 H   -2.3858147959   -2.6731205621    0.3579956628
 H    0.0765912294   -2.9069973001    0.2004810277