19

 C   -1.0846985448    1.3934535965    0.8647715554
 C   -0.7052543507   -0.0032588305    0.3529529816
 C   -0.1428917151    0.0727534257   -1.0061926889
 N    0.2775877224    0.1162871147   -2.0818080256
 N    0.3004207261   -0.5905259638    1.2474212144
 C   -0.1952955640   -1.3934225427    2.3690586008
 C    0.5322069490   -2.0375246075    1.2422357527
 C   -0.1462465271   -3.0123587011    0.3012038646
 O   -1.5613861480   -2.9185898079    0.4069437083
 H   -0.1964575311    2.0246542800    0.9365147622
 H   -1.8094074851    1.8668497255    0.1976235431
 H   -1.5313997326    1.3026006772    1.8584490482
 H   -1.6073393740   -0.6263950288    0.2795604360
 H    0.2949002608   -1.2214820705    3.3231820413
 H   -1.2642738000   -1.5844329996    2.4219039123
 H    1.5835421223   -2.2843921694    1.3817563163
 H    0.1867127825   -2.8143176720   -0.7281261806
 H    0.1992241758   -4.0234493540    0.5687921970
 H   -1.9493984362   -3.4009998317   -0.3291223392