21

 C   -0.2047279671    1.5404199363   -0.0779754402
 C   -0.0862205795    0.0229065226    0.0071939605
 O   -1.3563253088   -0.6017556559   -0.0040940022
 C    0.9906728935   -0.5720630911   -0.9594722654
 C    1.9751230300   -0.6218109551    0.2304325314
 C    3.1180536043   -1.6384623728    0.3914171424
 C    4.0359426292   -0.4023425934    0.4206492712
 O    2.9106553243    0.4872685739    0.2704186922
 C    0.7779771042   -0.4730281153    1.1954457199
 H    0.7802346982    2.0116256345   -0.0193319071
 H   -0.6635382808    1.8398762589   -1.0293903881
 H   -0.8268870852    1.9187810657    0.7394503321
 H   -1.8707027266   -0.2208308462   -0.7240808611
 H    0.6972623225   -1.5753875194   -1.2814420470
 H    1.3064701694    0.0242563758   -1.8196206074
 H    3.0864292840   -2.2239666826    1.3126194823
 H    3.2591323849   -2.3111614686   -0.4570766300
 H    4.5731031683   -0.2265345983    1.3605079811
 H    4.7429999427   -0.3113015002   -0.4128452584
 H    0.9182645346    0.1998596633    2.0446975740
 H    0.4167677778   -1.4450514520    1.5427071000