23

 C    0.0931602898    1.5072158527    0.0704080513
 C    0.0976532466   -0.0226626142    0.0965294554
 O    0.7573737908   -0.5177190921    1.2666637658
 C   -1.3106883646   -0.5981648666    0.0028970265
 C   -2.1010520288   -0.6972778050   -1.3400707209
 C   -1.1959952445   -1.8970816370   -1.7387770429
 C   -1.5539665032   -2.1304536267   -0.2345244782
 C   -1.1138138954   -3.2641829697    0.6530865628
 C   -3.0134550965   -1.7341782260   -0.6265945062
 H    1.1099514099    1.8918289843    0.1881319081
 H   -0.3167822605    1.8846996037   -0.8722360794
 H   -0.5217978166    1.9091606533    0.8855169222
 H    0.7215036406   -0.3827055042   -0.7266920833
 H    0.2377531010   -0.2417780298    2.0302773819
 H   -1.9106003704   -0.1888349326    0.8308657593
 H   -2.4220849666    0.1277685006   -1.9776028962
 H   -1.6297576044   -2.6095922522   -2.4468045423
 H   -0.1536028076   -1.6960764917   -1.9910129266
 H   -0.0315356117   -3.2365974623    0.8090966044
 H   -1.5927251477   -3.1984441113    1.6368503048
 H   -1.3795085816   -4.2337738957    0.2172450858
 H   -3.6527164436   -1.3589356264    0.1787113634
 H   -3.5515276849   -2.4346037010   -1.2719858859