18

 C    0.0925186998    1.4880937760    0.2736468181
 C   -0.0551012971    0.0146331190   -0.1447298061
 C   -1.4701394514   -0.4812819790   -0.1190187341
 C   -2.1612094460   -0.9942336037   -1.1457769195
 C   -3.4956835760   -1.4846251630   -0.6985958851
 O   -3.4130205895   -2.5420918371    0.2910478266
 C   -3.5873272329   -1.1991222560    0.7431970457
 C   -2.2992665102   -0.5014974004    1.1613751228
 H    1.1406030128    1.7989064560    0.2297419820
 H   -0.4834529789    2.1425653916   -0.3882406430
 H   -0.2595352182    1.6530630703    1.2967733203
 H    0.3564465302   -0.1254182249   -1.1504045770
 H    0.5551981249   -0.6050011677    0.5278173162
 H   -1.7937307673   -1.0954527629   -2.1601738996
 H   -4.3522463412   -1.5473814720   -1.3626516169
 H   -4.5225976289   -0.9959564142    1.2581805724
 H   -1.7883415216   -1.0386743416    1.9702155362
 H   -2.5038759085    0.5110853595    1.5319576309