14

 C    0.0557059029    1.3837445230    0.0095603814
 N    1.3168093312    1.8245286819   -0.0002484472
 N    2.0493698483    0.6894412849   -0.0139642859
 C    3.4111708646    0.6315278476   -0.0276929993
 N    4.0651992835   -0.4876322659   -0.0405346509
 C    3.3378733291   -1.6499978237   -0.0400323893
 C    1.9716009207   -1.6917715215   -0.0268260916
 C    1.2650019259   -0.4665824020   -0.0128641167
 C   -0.0487695511   -0.0167041452    0.0026470504
 H   -0.7480316204    2.1062563498    0.0215740243
 H    3.9151255199    1.5922521093   -0.0271471875
 H    3.9235347636   -2.5630443048   -0.0510149119
 H    1.4323652074   -2.6309925155   -0.0268875803
 H   -0.9420839256   -0.6183630776    0.0080154044