17

 O   -0.1062914316    1.3007765510    0.0706768616
 C    0.0369929686   -0.0941031322    0.0166733937
 C   -0.4458250830   -0.8053601138    1.2777952001
 O   -0.8435034810   -0.0232917595    2.3491426244
 C   -1.2613041847   -0.8558117692    0.0107371126
 O   -2.4649106768   -0.0780634464   -0.1240568391
 C   -3.0602676229   -1.1628278970   -0.8618661426
 C   -2.3143006170   -1.4442153927   -2.1263807276
 C   -1.8027971055   -1.9984106312   -0.8076100618
 H   -0.9624867852    1.5072963976   -0.3310076350
 H    0.9113530485   -0.4367069833   -0.5312225694
 H    0.0564761879   -1.7232729627    1.5753200793
 H   -0.7116387015    0.8938727612    2.0639804287
 H   -4.1016456635   -1.3814739827   -0.6630535032
 H   -2.7732852717   -2.1797040961   -2.7799835389
 H   -1.7822106445   -0.6429734250   -2.6316495051
 H   -1.6630369661   -3.0504836880   -0.6029585377