18

 C    0.0285078309    1.5342302033   -0.2670551983
 C    0.0021429973    0.0629724578    0.1659106724
 C   -1.3876341613   -0.5341351543    0.0919303628
 O   -2.3494579181    0.0419519749    0.9315306848
 C   -1.9019996347   -1.1200827125   -1.1908304322
 O   -1.0538641581   -1.1081445512   -2.2865660508
 C   -1.5864459022   -2.0440159767    0.0026990448
 C   -0.4730895504   -2.9380054299   -0.0933866545
 N    0.4158863880   -3.6714693262   -0.2012845127
 H    1.0422938005    1.9373057915   -0.1957793747
 H   -0.3049920038    1.6439424559   -1.3037589938
 H   -0.6091492379    2.1564416834    0.3712547102
 H    0.6747531795   -0.5178132035   -0.4688419123
 H    0.3588379130   -0.0352756665    1.1973465802
 H   -2.5242916151    0.9349035649    0.6130893734
 H   -2.9642490775   -0.9920166419   -1.3978009675
 H   -1.0738982740   -1.9725908616   -2.7132133947
 H   -2.4418651159   -2.4233642473    0.5507950128