18

 C    0.2609843208    0.8499268575   -0.4035768519
 N   -0.2845108180   -0.1163543092    0.5267092903
 C    0.5059811454   -0.9676960981    1.0018906776
 O    0.0495914302   -1.9126575942    1.8637221317
 C    1.0121159179   -2.7544061917    2.4324472516
 C    0.8116347859   -4.2413995049    2.3832416414
 C    0.2947456033   -4.6137384757    0.9958154540
 O    1.3882032138   -3.9031401861    0.3461227403
 C    1.9533993776   -3.5854956380    1.6101617458
 H    1.3424606106    0.7383252295   -0.5856187500
 H   -0.2580832470    0.7673029750   -1.3652987618
 H    0.0773217652    1.8636824733   -0.0296314239
 H    1.5800985351   -1.0403013806    0.7836504247
 H    1.4250579886   -2.3871439316    3.3706382658
 H    0.7966799003   -4.8705258094    3.2624958019
 H    0.3609589208   -5.6838380252    0.7784976804
 H   -0.6843059441   -4.2202189858    0.7079968241
 H    3.0335859936   -3.6013163648    1.7063192179