16

 N    0.0768976119    1.2200078954    0.4165988026
 C   -0.0153759504   -0.0534696258   -0.0742211647
 O    0.9340763287   -0.6444734113   -0.5621091157
 C   -1.3496762164   -0.6844437546    0.0365954384
 C   -2.6378894725   -0.3166591193    0.7754068631
 C   -3.1004843386   -1.7490726233    0.4009810688
 O   -3.2427560334   -1.6909390679   -1.0487327146
 C   -1.8245587889   -1.6467059826   -1.1010513945
 C   -1.5946952524   -2.1854616902    0.2521112968
 H    0.9319310747    1.7227982257    0.2401131987
 H   -0.7438436997    1.7477424211    0.6589719126
 H   -2.4692919204   -0.2164899250    1.8510195396
 H   -3.2625619135    0.5009739934    0.4003117633
 H   -3.9132273271   -2.2676938220    0.9032616252
 H   -1.2987109311   -1.7498191847   -2.0391924738
 H   -0.9548553709   -2.9489690389    0.6695187941