19

 C   -0.1432289229    1.4675742145    0.0273236611
 C    0.0011277401   -0.0174910950   -0.0468611003
 C    0.0614885397   -0.7960026780   -1.1242040624
 C    0.1525572022   -2.2503713668   -0.7645119653
 N    0.4331212316   -2.2049867006    0.6786573405
 C    0.0502093620   -0.8877256594    1.2138509113
 C    1.0625022583   -0.4115517497    2.2706511806
 C   -1.3077178115   -0.9135675974    1.8232605689
 N   -2.3644146781   -0.9662635908    2.2917003706
 H    0.7099790493    1.9323226110    0.5352046540
 H   -0.2203474169    1.9030608736   -0.9717378519
 H   -1.0408418307    1.7471046240    0.5924602132
 H    0.0302338068   -0.4470518438   -2.1494654340
 H   -0.7841299775   -2.7760181536   -1.0172032548
 H    0.9611095054   -2.7700528882   -1.2962837016
 H    0.0098392240   -2.9671178810    1.1921412533
 H    2.0504977747   -0.3526478449    1.8082805700
 H    0.7875874705    0.5659390848    2.6768696637
 H    1.1070482229   -1.1248572886    3.0979028332