20

 C    0.6085387135    1.4435285282   -0.1112942423
 O    0.8374484489    0.0554157411   -0.1032694727
 C    0.0165308126   -0.6385564484   -1.0218870315
 C    0.2941349891   -2.0999490540   -0.8963327858
 C    0.2793507662   -2.9624498374    0.3649115711
 C    0.8977510757   -4.0732710293   -0.5269227603
 C   -0.2287061824   -4.3346175456   -1.5389526446
 N   -0.0365045444   -2.9538611138   -2.0965765813
 C    1.3439870143   -2.9363158822   -1.5263822269
 H    0.8194855086    1.8878157965   -1.0971631259
 H   -0.4316169002    1.6889410799    0.1571693584
 H    1.2784554083    1.8903278628    0.6274479680
 H   -1.0487859684   -0.4354623173   -0.8123602633
 H    0.2102554019   -0.3131329024   -2.0563258518
 H    0.9911211011   -2.5684348422    1.0929834154
 H   -0.6780961043   -3.1787735805    0.8530361022
 H    1.5093057388   -4.8657045157   -0.1002454659
 H    0.0365100801   -5.0543698356   -2.3176003740
 H   -1.2329479028   -4.5531456783   -1.1556718660
 H    2.2385698834   -2.7094045058   -2.0912038928