15

 C   -0.0393818584    1.5468963593    0.0380557961
 C   -0.0661563698    1.5679555220   -1.5353759156
 C   -0.0084622600    0.0100465471   -1.5389802330
 C   -0.0211958850   -0.0267533093    0.0197211152
 C    1.5361573803    0.0105092660   -0.0427436079
 C    1.5342913552    1.5682749047    0.0145693918
 C    1.4927957139    1.5501512286   -1.5438801999
 N    1.5236731208    0.0180722051   -1.5751415541
 H   -0.6652396323    2.1592063769    0.6839145648
 H   -0.7108100617    2.1941500899   -2.1500812447
 H   -0.5464259616   -0.6597377493   -2.2104710761
 H   -0.6296128807   -0.6753210516    0.6479578299
 H    2.2244686341   -0.6589153693    0.4739915702
 H    2.1690450169    2.1947728177    0.6391908025
 H    2.1465726083    2.1030899022   -2.2189241391