17

 O    0.0884425992    1.4306125732   -0.1322625478
 C    0.0204945128    0.0393626933   -0.0063442147
 C    0.3133557443   -0.5993305549    1.3988689623
 C   -1.0893841897   -1.2679597109    1.3800348080
 O   -1.2133774995   -2.6487877636    1.5294048194
 C   -2.2706675265   -0.4237169731    1.9610040122
 O   -2.0042043674    0.9599833751    1.6961622167
 C   -2.5500819066    0.1482660026    0.6327719345
 C   -1.3930739821   -0.6441915513   -0.0159596030
 H   -0.4609248706    1.7904340245    0.5758347866
 H    0.6675667684   -0.3719270403   -0.7848141369
 H    1.1185352015   -1.3383309867    1.3824081461
 H    0.4947902316    0.1246420094    2.1963178797
 H   -0.9620330857   -2.8800606337    2.4311082454
 H   -2.9201794969   -0.6525399392    2.8001417640
 H   -3.4713539999    0.5036450840    0.1865302995
 H   -1.6731541330   -1.2769617985   -0.8573235020