19

 C   -0.3058652911    1.4818509681   -0.0619895851
 N   -0.1952846924    0.0441208487    0.0592313086
 C   -1.4644129120   -0.6839983240    0.1062360738
 C   -1.1038261959   -2.0162752971    0.7248431898
 N    0.0747796952   -2.6536482390    0.1060830394
 C    0.2293863703   -1.8690514914    1.3528554694
 C    0.6979615151   -0.4401100803    1.1086658987
 C    2.1428001067   -0.3971547247    0.6258193307
 O    3.0680300605    0.0053329193    1.2831531007
 H    0.6880971564    1.9289081055   -0.1631475024
 H   -0.8776730159    1.7348755989   -0.9607352427
 H   -0.8045475208    1.9568886600    0.8044580483
 H   -2.2174161058   -0.1884717659    0.7478486369
 H   -1.8880188873   -0.7708870825   -0.9018213009
 H   -1.8809224566   -2.6335903512    1.1615123843
 H    0.0785308365   -3.6428731467    0.3445806377
 H    0.5135418414   -2.3654545995    2.2731372060
 H    0.6337974339    0.1236872357    2.0558624486
 H    2.2655795517   -0.7872007940   -0.4062683119