22

 C    0.6366891897    0.0532282990   -1.4958304683
 C   -0.0055647604    0.3084012750   -0.1319432458
 O   -0.0833646930    1.7048772920    0.1587309329
 C   -1.3855920168   -0.3383141921   -0.0179924727
 C   -1.5117763789   -1.8613441585   -0.0499664763
 C   -0.9494165063   -2.4899493493    1.1615440032
 N   -2.3018744786   -1.9126093051    1.2473729619
 C   -2.1418392145   -0.4070794386    1.3515663206
 C   -1.5287200653    0.1389871368    2.6292750855
 H    1.6086277984    0.5500660490   -1.5575934535
 H    0.7809513094   -1.0180574582   -1.6696323126
 H    0.0016343748    0.4406848450   -2.3027960736
 H    0.6546520747   -0.0871492478    0.6472145297
 H   -0.6333093045    2.1126485492   -0.5198928285
 H   -2.0328910890    0.1182745423   -0.7771388991
 H   -1.8136784090   -2.4447631882   -0.9141986203
 H   -0.9607418981   -3.5747167472    1.2086289734
 H   -0.1225742688   -2.0320789026    1.6963386221
 H   -3.1453111422    0.0124817726    1.2401805562
 H   -0.5334480801   -0.2650641111    2.8345515133
 H   -1.4283354585    1.2252633503    2.5563961172
 H   -2.1701767731   -0.1020784225    3.4831456548