17

 O    0.2260518717    1.4228192747   -0.1744092051
 C    0.0523180459    0.0503461238   -0.0561377721
 C   -1.3533473665   -0.6584356692   -0.0003835142
 C   -0.6429891341   -1.7693893716    0.8400888076
 C    0.1281365520   -2.6993913017   -0.1316398314
 O    0.4482632805   -2.0124940185   -1.3295196867
 C    0.8930194824   -0.6831475588   -1.1377445232
 C    0.2960237768   -0.6427773064    1.2761419548
 O    0.8144003633   -0.2857653677    2.2985935210
 H    0.3517884306    1.7772222946    0.7148852023
 H   -2.0733264456   -0.0877673826    0.5883839820
 H   -1.7742920748   -0.9616076979   -0.9590697889
 H   -1.1869588332   -2.3205592255    1.6071245767
 H    1.0306177323   -3.0944786004    0.3601401776
 H   -0.4969973798   -3.5467352883   -0.4286008919
 H    0.7623013284   -0.1624369937   -2.0911100957
 H    1.9579864103   -0.6414640908   -0.8630075427