25

 C    0.0907119630    1.4931483649    0.3253383366
 C   -0.0345688996    0.0442147518   -0.1639583764
 C   -1.4478945121   -0.4967526405   -0.1093029941
 C   -1.9786727452   -1.0587267554    1.1912489650
 C   -1.7479956686   -1.9757806741    0.0095287310
 C   -2.9438803690   -2.3211438804   -0.8721443395
 C   -3.8786932199   -3.3929163475   -0.3077081554
 C   -3.6295923407   -0.9541255979   -1.1140122450
 C   -2.4972034205    0.0934759027   -1.0529101869
 H    1.1299932651    1.8345570957    0.2867348607
 H   -0.5052351451    2.1757059980   -0.2893638657
 H   -0.2577426635    1.5887632884    1.3592070344
 H    0.3394910818   -0.0249774205   -1.1951417090
 H    0.6183535341   -0.5980566964    0.4404982818
 H   -1.2751807582   -1.1360730211    2.0141557731
 H   -2.9923155122   -0.8320436568    1.5069730173
 H   -0.9394133002   -2.6972895991    0.0820153965
 H   -2.5451776438   -2.6823004324   -1.8310916604
 H   -4.2746085845   -3.0907871844    0.6683030252
 H   -4.7294636991   -3.5696803815   -0.9751033665
 H   -3.3574352929   -4.3468158242   -0.1740823501
 H   -4.1776672127   -0.9264610983   -2.0601003516
 H   -4.3661764355   -0.7663547030   -0.3242920648
 H   -2.8607590241    1.0784359947   -0.7394568425
 H   -2.0424353267    0.2222423377   -2.0442485336