20

 C   -0.1049631033    1.5809008352    0.0041506185
 C   -0.0070160836    0.0558599664    0.0819834985
 C   -1.3607100255   -0.6338049709   -0.0937340020
 C   -1.2761489423   -2.1556468219   -0.0908196010
 O   -0.2353955296   -2.7550139641   -0.1930335180
 C   -2.6188386935   -2.8706460340    0.0514921063
 O   -2.4644198946   -4.2450494135   -0.1221726687
 C   -3.6710553289   -4.9550416159    0.0295582199
 H    0.8769204034    2.0458982175    0.1346340499
 H   -0.5001947588    1.9063099504   -0.9649033956
 H   -0.7672107396    1.9808799883    0.7804754951
 H    0.6806135507   -0.3220688584   -0.6808377205
 H    0.4243692855   -0.2443189618    1.0437441178
 H   -2.0748239728   -0.3118910176    0.6772512831
 H   -1.8199698982   -0.3367152524   -1.0489711195
 H   -3.0249060167   -2.6262267143    1.0520888033
 H   -3.3312177772   -2.4388751880   -0.6763440952
 H   -3.4448693715   -6.0126549991   -0.1230362471
 H   -4.0997645473   -4.8234706924    1.0359387569
 H   -4.4271987160   -4.6420859734   -0.7082057616