15

 C   -0.4669870563    1.4752290557   -0.1121168867
 C    0.0880309287    0.0521429878   -0.0477011895
 C   -0.9794431622   -0.9600146372    0.3887475035
 O   -2.0878742403   -0.6569600532    0.7400502976
 C    0.7103113212   -0.4138492819   -1.3295516776
 C    0.6211313657    0.0427934403   -2.6077105600
 O    1.3508371661   -0.7362063673   -3.4022276428
 N    1.9215293714   -1.7398824904   -2.5638164952
 N    1.5333747674   -1.5230628639   -1.3884895437
 H    0.3227100985    2.1898572287   -0.3577033637
 H   -1.2598164348    1.5538110587   -0.8618179455
 H   -0.9069621037    1.7498362975    0.8479681720
 H    0.8692145561   -0.0124916490    0.7251076900
 H   -0.6418178951   -2.0180753076    0.3590288819
 H    0.1099681073    0.8720722118   -3.0670437703