19

 O    0.0194327206   -0.0160165375   -0.5340497209
 C   -0.0018629387    1.1186050546   -0.0966661775
 C   -1.3231705453    1.8378853633    0.1681527503
 C   -1.4430944386    3.1279941294   -0.6257861920
 C   -2.0427430705    4.3754577371   -0.0182396364
 C   -0.5563850803    4.2886599839   -0.2646861000
 C    0.4270452596    4.1274262234    0.8886243485
 C    1.4737091756    3.0663820360    0.6391319770
 C    1.2781711961    1.8106630229    0.2104436216
 H   -2.1294341673    1.1417230988   -0.0769604969
 H   -1.3901529134    2.0518480559    1.2420740478
 H   -1.6209828280    2.9740264889   -1.6861485644
 H   -2.6380719399    5.0246064678   -0.6508238416
 H   -2.3896036803    4.3186103274    1.0091691725
 H   -0.1664694408    4.8677486527   -1.0966485025
 H    0.9200583995    5.0837843060    1.0900877903
 H   -0.1203906485    3.8834768479    1.8085108296
 H    2.5029662414    3.3644883659    0.8306510124
 H    2.1385109688    1.1638090855    0.0591306921