15

 C   -0.0367869425    1.3383129609    0.0579304198
 O    0.0231840613   -0.0889878213   -0.0308815186
 C    0.6405920951   -0.5592714916   -1.1151657166
 N    1.1885754688    0.1250882469   -2.0920912816
 C    1.6822530786   -0.8289102307   -2.9513428706
 C    1.4293596504   -2.1000862923   -2.4891634506
 N    0.7458806055   -1.8997591020   -1.2836517069
 C    1.7256156976   -3.3752150304   -2.9964869857
 C    1.9751447052   -4.4749973014   -3.4233854893
 H    0.9694464271    1.7654692985    0.0820736206
 H   -0.5763126817    1.7552287762   -0.7968085368
 H   -0.5660873903    1.5525256326    0.9865252787
 H    2.1953803875   -0.5586651761   -3.8608346740
 H    0.3997081549   -2.6122795588   -0.6637380236
 H    2.2003382924   -5.4380658003   -3.8089069847