16

 N   -0.1565539899    1.2865137771   -0.1149662894
 C   -0.0539387704    0.0355459333   -0.0097510098
 C   -1.2148448429   -0.9270175042    0.1431262364
 C   -0.6294676478   -2.3075684482   -0.1827262556
 C    0.8573628465   -2.1593980316    0.0615306415
 N    1.6369131253   -3.1310419350    0.2752807842
 N    1.1444581317   -0.7607895864    0.0065770814
 C    2.4231934139   -0.2468496175   -0.1051850735
 O    2.6975974086    0.9292138403   -0.1527531129
 H    0.7593604313    1.7307049517   -0.1798327981
 H   -1.5687520270   -0.8818852773    1.1788790000
 H   -2.0423105686   -0.6238863680   -0.4982386410
 H   -1.0311859979   -3.1275964992    0.4117460855
 H   -0.7796447721   -2.5599016378   -1.2386373177
 H    2.6053738036   -2.8596552417    0.4394153618
 H    3.1912629155   -1.0365990851   -0.1647978326