19

 C   -0.5143936791    1.2532951338    0.0837481644
 C   -0.1611398895   -0.2133608215   -0.1762963059
 C    0.8998958970   -0.4149490913   -1.2824465907
 C    1.3447766185   -1.8918414837   -1.4639056280
 C    0.6307681805   -2.3771537748   -2.7144960278
 O   -0.7733029547   -2.1349788816   -2.6791692545
 C    0.0532820839   -1.2383146050   -3.4514331164
 C    0.3744933924    0.0097288634   -2.6672626676
 O    0.2822632066    1.1379138960   -3.0821098300
 H    0.3647696348    1.8179381996    0.4134830541
 H   -0.8969608127    1.7411310687   -0.8163389275
 H   -1.2756891573    1.3329293466    0.8657989625
 H    0.2313130065   -0.6641308361    0.7440133225
 H   -1.0573521370   -0.7833499212   -0.4425222196
 H    1.7580075800    0.2261248526   -1.0556975265
 H    2.4272860458   -1.9620334514   -1.6161323945
 H    1.0938796245   -2.5141784083   -0.5989593725
 H    0.9353477392   -3.2881076291   -3.2232851073
 H   -0.1284824694   -1.2045315268   -4.5206109647