21

 C   -0.0990519792    1.5243055390    0.0498968123
 C   -0.0537103859   -0.0134592086    0.0044096777
 C   -1.4715408958   -0.5173160720   -0.3355471879
 C    1.2476369081   -0.5067196790   -0.7163015865
 O    1.9926192996   -0.0375329621    0.4678425332
 C    0.8174239092   -0.5755162476    1.1797524393
 C    1.0444486513   -2.0848929198    0.9606616285
 C    0.2519991506   -2.8991655785   -0.0309621210
 C    1.3816466832   -2.0309687956   -0.5253788954
 H    0.8718020501    1.9570372344    0.2858432359
 H   -0.4352896800    1.9166449009   -0.9169356609
 H   -0.8252311563    1.8543073845    0.8019029066
 H   -1.4995151377   -1.0836541592   -1.2703243020
 H   -1.8907522501   -1.1463733029    0.4543100584
 H   -2.1511892690    0.3300627730   -0.4589096145
 H    1.5986724753   -0.0710229503   -1.6532609335
 H    0.7234529810   -0.2109981100    2.2040797617
 H    1.6853568260   -2.5911151648    1.6728450928
 H    0.4877806426   -3.9606512330   -0.0159749122
 H   -0.7820589283   -2.7085698443   -0.2586977857
 H    2.2747841551   -2.4968408343   -0.9247511869