21

 C   -0.0282104884    1.5734600969   -0.0012555969
 C    0.0490828176    0.0452878906    0.0181979087
 C    0.8025482469   -0.5546193000   -1.1911664034
 C    1.3132690139   -1.9454299622   -0.7152223289
 C    2.4748204207   -2.4284521539   -1.4528515253
 C    3.4366139809   -2.8160862879   -2.0618767070
 C    1.5342979973   -1.7677375548    0.7919918303
 C    2.2709987054   -0.5346586289    1.2461982219
 C    0.7599554615   -0.5487655207    1.2318155767
 H    0.9735411703    2.0155975885    0.0312425325
 H   -0.5265524727    1.9348833001   -0.9072242339
 H   -0.5879223812    1.9527528991    0.8601604973
 H   -0.9758409978   -0.3520603599    0.0180094668
 H    0.1756627275   -0.6354310285   -2.0824823016
 H    1.6548435320    0.0757622787   -1.4622257892
 H    0.5002428632   -2.6738091066   -0.8408901691
 H    4.2854537905   -3.1634225153   -2.5965424106
 H    1.5909980800   -2.6636196152    1.3994921957
 H    2.7545681063   -0.5839990517    2.2155150008
 H    2.8148380584    0.0588340746    0.5185626307
 H    0.2403373877   -0.5333130827    2.1843667445