20

 C    0.2255027023    1.7127115541   -0.0586381082
 C    0.0370247737    0.1859291541   -0.0491257847
 C    0.5582270464   -0.4735400977    1.1956429089
 C    1.6796527543   -1.2679186903    1.2965252490
 N    1.8295099941   -1.6390332405    2.6093179366
 C    0.8032094181   -1.1221065671    3.3572670373
 C    0.7552357672   -1.3509735008    4.8293552114
 O    1.2061358125   -2.6818907688    5.0876237491
 C    0.0031401522   -0.3893151385    2.5100105191
 H    1.2860082494    1.9738596365    0.0145553075
 H   -0.1737823995    2.1550786205   -0.9776003891
 H   -0.2872144572    2.1771633484    0.7898081227
 H   -1.0304034913   -0.0403956550   -0.1706467534
 H    0.5394057008   -0.2448891259   -0.9233835430
 H    2.3678264103   -1.6070957188    0.5379979711
 H    2.4847267040   -2.3098347993    2.9723185128
 H    1.3999062852   -0.6301479540    5.3605884400
 H   -0.2724828974   -1.1899891620    5.1862540826
 H    1.3504480967   -2.7671768000    6.0348292861
 H   -0.8850068119    0.1546606850    2.7982071242