18

 C   -0.3201549254    1.3202824459   -0.0594408337
 C    0.1299985325   -0.1286583903    0.1070244860
 C    0.9302174756   -0.6809413444   -1.0844474690
 O    1.8197835538   -1.6791046924   -0.5761377474
 C    1.7428578065   -1.7248237817    0.8529347573
 C    1.1068676981   -0.3837198374    1.2655218897
 C    0.9602799852   -2.8818428872    1.3055355423
 C    0.3168421984   -3.8247838028    1.6825287688
 H    0.5401810074    1.9865412628   -0.1909335188
 H   -0.9692155276    1.4365711108   -0.9339286605
 H   -0.8808963180    1.6647134646    0.8152143946
 H   -0.7496426858   -0.7654828810    0.2593670231
 H    0.2888822645   -1.1285119347   -1.8522125800
 H    1.5247380531    0.1139439974   -1.5592523237
 H    2.7672836407   -1.8227511292    1.2305274326
 H    1.8816131353    0.3912387515    1.2884408000
 H    0.6269053110   -0.4263469352    2.2448167224
 H   -0.2446283454   -4.6643961868    2.0106652163