19

 C    0.0227075710    1.4920597321    0.1367198654
 C    1.4543256772    2.0350716538   -0.0366968678
 C    2.0880651782    1.5498766661   -1.3421479273
 C    3.5822550352    1.1670419766   -1.2939612177
 O    3.7243795476    0.1582680975   -0.2872814954
 C    3.2952718782   -0.2449400352   -1.5907829423
 C    1.7850540223    0.0460787987   -1.7200625995
 C    0.7925111783   -0.6670876864   -0.8617083735
 C   -0.0274206419   -0.0067136269   -0.0436183407
 H   -0.3522311128    1.7591121490    1.1311393461
 H   -0.6591189151    1.9789949062   -0.5765823572
 H    1.4575740744    3.1294836977    0.0146390744
 H    2.0569741668    1.6617469748    0.7965973815
 H    1.8584860062    2.2146659533   -2.1794082487
 H    4.4546413437    1.7731843046   -1.5110181617
 H    3.8881065471   -1.0006567342   -2.0941994427
 H    1.5023139558   -0.0230844063   -2.7783099526
 H    0.7335107996   -1.7500749337   -0.9473851395
 H   -0.7681467919   -0.5545766975    0.5335474193