18

 C    0.0240907158    1.2987096935   -0.1701325094
 O   -0.0347058735   -0.0119708686    0.3522954999
 C   -1.2807001891   -0.6256350139    0.1756029272
 C   -1.6389336826   -1.1983861750   -1.2452630653
 C   -1.7502234868   -2.5953988103   -0.6110904676
 C   -0.4392052652   -2.9599815700    0.0471555965
 C   -1.3537117713   -2.0253293696    0.7731113824
 C   -2.7554487861   -3.5576219417   -0.9170624185
 N   -3.5811214953   -4.3271552554   -1.1758599017
 H    1.0240495500    1.6851199417    0.0383592819
 H   -0.1431375335    1.3170709178   -1.2573104194
 H   -0.7193558539    1.9568102787    0.3051883650
 H   -2.0879311763    0.0217416691    0.5462930263
 H   -2.5851205333   -0.8194718357   -1.6333706476
 H   -0.8632588233   -1.1023687536   -2.0099455850
 H   -0.3891607425   -3.9642302061    0.4523998273
 H    0.4842797584   -2.5916935305   -0.3884118752
 H   -1.7788414016   -2.2745877204    1.7365949430