17

 C   -0.0469863198    1.4612306729   -0.1278932410
 C   -0.2278171442    0.0117128729   -0.5188240487
 O    0.5076913122   -0.5782256090   -1.2697407902
 C   -1.4851366549   -0.6620426623    0.0958010206
 O   -2.6183230478   -0.1653294255   -0.6221684303
 C   -3.1541661995   -1.2379687361   -1.3648378674
 C   -2.2615303896   -1.9410742592   -2.3694426558
 C   -2.4152918882   -2.4634435454   -0.9581801528
 O   -1.4579640049   -2.0598573528   -0.0056476570
 H    0.7710957072    1.9051260181   -0.6955350668
 H   -0.9776108320    2.0105451529   -0.3058537042
 H    0.1685451385    1.5347458025    0.9448223304
 H   -1.5827425070   -0.3740642838    1.1538559731
 H   -4.2267322424   -1.1587085039   -1.4884971133
 H   -2.7652420214   -2.4979082111   -3.1535001298
 H   -1.3130224120   -1.4956203733   -2.6428711150
 H   -2.8549755343   -3.4247715568   -0.7251565517