21

 C   -1.6455651404   -0.8720474778   -0.7190563909
 C   -0.2871182292   -0.3761876508   -0.1730586412
 C   -0.0402760977   -0.9624630483    1.1434736058
 C    0.1304466218   -1.4588981992    2.2258152514
 C    0.8682868027   -0.6226759420   -1.1626437710
 C    0.6951704504    0.0718496822   -2.4955498842
 O    0.5249480331    1.4652690099   -2.2612466223
 C    2.2807498777   -0.7473338574   -0.6481815672
 C    1.5656108700   -1.9602281006   -1.1921788647
 H   -1.9212361960   -0.3269781407   -1.6253030319
 H   -1.6043955025   -1.9405838904   -0.9502085546
 H   -2.4323305632   -0.7137629392    0.0225563452
 H   -0.3557590667    0.7116998035   -0.0482244376
 H    0.2843662508   -1.8830638920    3.1869867705
 H    1.5848095614   -0.1206935242   -3.1152647951
 H   -0.1703581065   -0.3418331721   -3.0351994089
 H    0.2951641060    1.8855534932   -3.0949706348
 H    3.0717574458   -0.3030464092   -1.2426285459
 H    2.4375179409   -0.7000655773    0.4226698316
 H    1.2412067865   -2.7084212583   -0.4777648758
 H    1.8734665251   -2.3587328295   -2.1535983584