14

 C   -0.5848482777    0.7181942914    0.2525226237
 O    0.6443658252    0.8123281923   -0.4569085536
 C    0.9286392725   -0.2320097126   -1.2496444206
 C    0.2768252111   -1.4162509913   -1.5424963606
 C    1.1567640451   -2.0416222450   -2.4585327902
 O    0.9402790035   -3.2434842322   -3.0324758043
 N    2.2426318854   -1.3368105143   -2.7183221277
 N    2.0803130241   -0.2102399323   -1.9532705790
 H   -1.4315971406    0.6483664484   -0.4402430866
 H   -0.5874222675   -0.1545316080    0.9159374888
 H   -0.6678447552    1.6302443944    0.8442152578
 H   -0.6645210287   -1.7788451423   -1.1710056680
 H    1.6973161168   -3.4177619690   -3.6062514562
 H    2.7767647659    0.5130365206   -1.9591371435