18

 C   -0.2482843756    1.5287915201    0.0022558038
 C    0.0746806653    0.0307661274    0.0718634242
 C    0.7746517824   -0.4875215133   -1.1615940191
 C    0.0208610350   -0.9373251987   -2.4102580797
 C    0.8227384159   -1.9242365669   -1.5976123413
 O    2.1342513395   -2.2160931021   -2.0290209524
 C    2.8955699129   -1.0686160548   -1.9737185889
 O    4.0173488169   -0.9975534694   -2.3865395079
 N    2.1345456512   -0.0797143906   -1.3814524476
 H    0.6631164745    2.1319972686   -0.0722324906
 H   -0.8748728431    1.7581754361   -0.8656602059
 H   -0.7812412813    1.8544564285    0.9000038511
 H    0.7032615604   -0.1765571491    0.9459867273
 H   -0.8530670221   -0.5376205802    0.2056722021
 H   -1.0583106779   -1.0188805655   -2.3348760921
 H    0.3989938109   -0.6466758347   -3.3843813503
 H    0.3608422691   -2.7422874168   -1.0595472376
 H    2.4124603359    0.8769380515   -1.5266350351