13

 C   -0.0574810401    1.5661593516   -0.0193440332
 C   -0.0090612808    0.0713542037   -0.0237307621
 C   -0.1255475564   -0.8064105107   -1.0830294108
 N   -0.0153484605   -2.0605769166   -0.5854080436
 N    0.1695685887   -2.0757900902    0.7590412065
 C    0.1718533921   -0.7927981578    1.0846723961
 O    0.3333257482   -0.3776770330    2.3608287854
 H    0.8702064167    1.9989952958    0.3716109770
 H   -0.2083301874    1.9574852960   -1.0292462233
 H   -0.8720387980    1.9419358358    0.6099402516
 H   -0.2762659529   -0.6245558965   -2.1362275514
 H   -0.0557503279   -2.9327069475   -1.0809178174
 H    0.4360906183   -1.1683796307    2.9048151452