17

 C   -0.0276021052    1.5342289949    0.0124627714
 C   -0.0118901569    0.0381418593    0.0435326722
 C    1.1472779978   -0.8181726620   -0.3336783233
 C    0.5834102016   -0.9642390972    1.0774102135
 C    1.3596544874   -0.7437498225    2.2518049888
 N    1.9813332247   -0.5465964626    3.2090671666
 C   -0.7356245822   -1.6890626486    0.9947310721
 C   -1.8730862535   -0.7808250516    1.2550902749
 N   -1.2560572465   -0.7511253229   -0.0866037713
 H    0.9502761571    1.9384245936    0.2873210017
 H   -0.2715526273    1.8848577070   -0.9963106198
 H   -0.7717540541    1.9427054798    0.7027174690
 H    1.0134398417   -1.6393212483   -1.0318537408
 H    2.1064069294   -0.3137003044   -0.3910622676
 H   -0.8467829393   -2.7647442812    0.9056249608
 H   -2.8683041311   -1.2140093661    1.2513761547
 H   -1.7423282836    0.0690619128    1.9195749472