13

 O   -0.0033169189    0.0884047377   -0.2884100067
 C    0.0380562193    1.2450835571   -0.0155785351
 O   -0.9816720280    2.0450191939    0.4600585735
 C   -0.1077576481    3.2226428215    0.5101985419
 C    1.0356383443    2.3655327727   -0.0132865401
 C    2.4880587078    2.2834123820    0.3690093651
 C    2.1023940097    2.6296600029   -1.0402667061
 H   -0.4780347286    4.0066487260   -0.1545102359
 H   -0.0158312969    3.5917340815    1.5343711362
 H    2.8787513368    3.0714131655    1.0038248827
 H    2.8857914882    1.2944103403    0.5682609029
 H    2.2344413746    1.8791930373   -1.8118754770
 H    2.2288230798    3.6549140215   -1.3710939113