23

 C   -0.0334070658    1.5630599462    0.0384085022
 C    0.0448875523    0.0351242472   -0.0040530665
 C    0.7326478046   -0.4874108371   -1.2716441005
 C    0.6504676446   -2.0167373987   -1.3442353388
 C    0.9574097413   -2.6682386493   -0.0219961129
 C    0.9894712437   -2.0303368985    1.1523745477
 C    1.3148948377   -2.7199796645    2.4502631798
 C    0.7448737003   -0.5366284700    1.2459839378
 O    1.9752104364    0.1410131710    1.5495730305
 H    0.9674090040    2.0026175159    0.0571226158
 H   -0.5670765558    1.9500507399   -0.8359009727
 H   -0.5595699425    1.9091207759    0.9346871133
 H   -0.9789840454   -0.3674548968    0.0080290510
 H    0.2835308657   -0.0376110047   -2.1636257293
 H    1.7857033849   -0.1716459560   -1.2675570928
 H   -0.3575792707   -2.3187358163   -1.6686000081
 H    1.3288067063   -2.4044535815   -2.1148819072
 H    1.1504578786   -3.7399742820   -0.0432870448
 H    1.5889866237   -3.7673106166    2.2972656307
 H    2.1422052073   -2.2117184473    2.9580344951
 H    0.4600773273   -2.6885902220    3.1385355315
 H    0.1143363294   -0.3282834245    2.1202378145
 H    2.6370618922   -0.1842134902    0.9298331837