17

 C    2.6439012191   -1.1715545012    1.3342608905
 C    2.6887674954   -0.2566528306    0.1133716856
 C    2.8455623381    1.2012385439    0.4388013708
 O    2.7581717464    1.9916833443   -0.7294663756
 C    3.8775060905    2.6304092680   -1.1581498692
 O    3.8796191515    3.3408812394   -2.1146568259
 N    2.9811653049    1.6588342095    1.5991932275
 C    3.0624502409    3.0780890078    1.8850234680
 H    2.5240874332   -2.2126665597    1.0219223774
 H    3.5610668457   -1.0872834438    1.9218868935
 H    1.8108740321   -0.9069183249    1.9899966610
 H    3.5091113659   -0.5391734752   -0.5612281855
 H    1.7793715618   -0.3571201600   -0.4932772207
 H    4.7596008716    2.4037594054   -0.5328084557
 H    2.3693213213    3.3024366713    2.7019149620
 H    4.0673555551    3.3149671585    2.2515839070
 H    2.8302632463    3.7346764275    1.0384612494