15

 O    0.0018991274    1.3756343610    0.0670376275
 C    0.0220941418   -0.0003024278    0.0056267809
 C   -0.2922094191   -0.8209226859    1.2280048590
 C   -1.1550654149   -1.0298902758    0.0121836573
 O   -2.5156500077   -0.8263050907    0.0810608564
 C   -0.4314340004   -1.8088202213   -1.0527954606
 N   -0.2545645986   -0.8858732264   -2.2135027046
 C    0.6910168236   -0.8270856281   -1.0590447315
 H   -0.2669337425    1.6960778902   -0.8025959023
 H    0.3816623637   -1.5890112473    1.6001912491
 H   -0.7920996287   -0.2444581512    2.0006793646
 H   -2.8029403722   -0.5220553493   -0.7884873794
 H   -0.3615746077   -2.8829622190   -1.1822762321
 H    0.2064783343   -1.4177112784   -2.9541017763
 H    1.7454579309   -1.0400781200   -1.1940076778