16

 C    0.0349487564    1.4919551107    0.0486106135
 C   -0.0765455435    0.0093323501    0.0745437623
 C   -1.1289750115   -0.8649870548   -0.0436464200
 C   -2.5363782667   -0.5566983119   -0.2425004286
 O   -3.4162470029   -1.3863099903   -0.3386774577
 C   -0.5141008386   -2.1610617140    0.0753468954
 C   -1.1705144752   -3.4998691080    0.0234901409
 N    0.7763233769   -2.0573150594    0.2471428295
 O    1.0548169340   -0.6726445671    0.2465360087
 H    0.6973618082    1.8113599504   -0.7622980669
 H   -0.9425126203    1.9541462423   -0.0955684660
 H    0.4622610976    1.8596515764    0.9869743332
 H   -2.7727557939    0.5284840326   -0.3042754993
 H   -1.6922804111   -3.6333969549   -0.9280373723
 H   -0.4240626169   -4.2865923211    0.1463827194
 H   -1.9274483525   -3.5853729711    0.8078596479