16

 O   -0.0005960904   -0.0536098364   -0.3190271962
 C   -0.0520509563    1.1146189193   -0.0763334356
 C   -1.1784617423    2.0974775549    0.2944416610
 C   -0.0711858557    3.0664208869    0.7928580094
 O    0.0092051049    3.0231130805    2.2178314018
 C    1.1322946340    2.5300086360    2.8077017591
 N    2.1757958770    2.0340020262    2.3038637020
 C    2.3036730875    1.9298388358    0.8592818022
 C    1.0203057587    2.2143365497    0.0827853453
 H   -1.7038565869    2.4651462443   -0.5926699211
 H   -1.9064722480    1.7712279059    1.0398745654
 H   -0.1578373040    4.1136135919    0.4996474608
 H    1.0241096941    2.6121678507    3.8874977485
 H    3.1023060740    2.6126811254    0.5448375027
 H    2.6529806612    0.9190845048    0.6166964458
 H    1.2379575623    2.6240856140   -0.9102107411