16

 C   -0.3997381226    1.2372575446    0.0116755554
 N    0.1007900572   -0.1260126621    0.0967621652
 C    0.6506124253   -0.5703619980    1.2682077495
 O    0.6801047833    0.0489481738    2.3111495975
 C    0.2330488134   -0.8697882786   -1.1203825975
 C   -0.1322887612   -2.3313311049   -1.1601448730
 C   -1.0100646578   -1.3191430712   -1.8492536190
 H    0.2496468022    1.8570744754   -0.6197487554
 H   -1.4076180185    1.2498291989   -0.4148929577
 H   -0.4177565396    1.6502760817    1.0200348594
 H    1.0650507426   -1.5893185592    1.1611718658
 H    1.0666127275   -0.5616163159   -1.7515565133
 H    0.4861218188   -2.9873417845   -1.7616850748
 H   -0.5153631443   -2.7821455903   -0.2527820726
 H   -1.9640454602   -1.0966686716   -1.3848969371
 H   -1.0089250361   -1.2720529582   -2.9319678323