17

 O   -0.1306310454    1.3157204000    0.0718894882
 C   -0.0084831814   -0.0303452905    0.0398863462
 N   -0.0458961818   -0.7100215673   -1.0957072445
 N    0.1085945619   -1.9968621109   -0.6983415098
 C    0.2390699594   -2.1211062840    0.6435171026
 C    0.1686224388   -0.8486015129    1.1834176270
 C    0.2500835903   -0.3903662144    2.5851485518
 C   -0.3307569035   -1.2073066023    3.7215926813
 C    1.1609171543   -1.0675581365    3.5892086585
 H   -0.2388925067    1.6121894044   -0.8401353846
 H    0.1145164509   -2.7229748543   -1.3916427293
 H    0.3698421644   -3.0857352976    1.1091437229
 H    0.1580273473    0.6856656139    2.6834364838
 H   -0.8307307511   -0.6805927560    4.5271289913
 H   -0.7812879517   -2.1607951457    3.4663971951
 H    1.7278551095   -1.9257123998    3.2436747033
 H    1.6880727848   -0.4446120860    4.3035872662