16

 O   -0.7902388278    0.9926575189    0.2649885671
 C    0.0139232482    1.2386424350   -0.5956004958
 C    1.3312978109    1.9480725571   -0.3346959760
 C    1.5536423722    3.1707600362   -1.2625197906
 N    0.5534850047    4.2161202908   -1.0494919287
 C   -0.5902234795    4.2657088690   -1.7822122712
 O   -0.8938597693    3.4533108678   -2.6318432059
 C    2.8957925351    3.7205000910   -1.0903720476
 C    3.9961739123    4.1673182973   -0.9099269018
 H   -0.1545477526    0.9403088537   -1.6516989451
 H    1.3761631424    2.2446570756    0.7163410935
 H    2.1410796886    1.2317039331   -0.5271206491
 H    1.4184834534    2.8422451133   -2.2998926963
 H    0.7401770204    4.9278601718   -0.3610666916
 H   -1.2200125194    5.1355598311   -1.5178757197
 H    4.9736851103    4.5600271883   -0.7721684810