21

 C   -0.0177908797    1.6281807630    0.2428852508
 C    1.5013038480    1.3464275824    0.0182329334
 C    1.7641161856    0.4154094122    1.2210634634
 C    0.7109538796   -0.4133960434    1.2265049028
 C   -0.0940990379    0.0645185395    0.0185323917
 C   -1.2643889027   -0.5630050407   -0.7033854755
 C   -1.1803074331    0.0773481862   -2.1245550760
 C    0.2969352294    0.5733106272   -2.3448143271
 C    1.0474696644    0.2656897167   -1.0330931013
 H   -0.3171185613    1.9990072704    1.2255969760
 H   -0.4883427357    2.2203379840   -0.5465850629
 H    2.2270388181    2.1322920373   -0.1945114516
 H    2.6125225569    0.4592369950    1.8899323910
 H    0.4710771377   -1.2290902652    1.8942801092
 H   -1.1271431613   -1.6499778810   -0.7603779472
 H   -2.2356493782   -0.3823172468   -0.2318337971
 H   -1.4898368994   -0.6300899129   -2.8988180634
 H   -1.8693566571    0.9247788186   -2.1896179227
 H    0.7669114417    0.0485463892   -3.1806793014
 H    0.3097546210    1.6358153956   -2.6037221063
 H    1.7392419740   -0.5740718072   -1.1417447558