18

 C   -0.0299832162    1.5239577682   -0.0555742590
 C    1.4960063524    1.4330327802   -0.1912929659
 C    1.3401513953    0.0768824455    0.7445748366
 C    1.7055444122   -1.2352884235   -0.0813193001
 C    2.9900492054   -1.3713636783   -0.9491334374
 C    2.9816675052    0.0174155330   -1.5923211160
 C    1.7636967680    0.5475747753   -1.3704269210
 C    0.7062726776   -0.5500079453   -1.0162357917
 N   -0.0611460682    0.0385845309    0.1419322770
 H   -0.3664742574    2.0138241663    0.8631554455
 H   -0.6032683572    1.9007858133   -0.9084615063
 H    2.1892093374    2.2392168045    0.0474250559
 H    1.4462538952    0.1734410711    1.8274644573
 H    1.3672930574   -2.1277342276    0.4540487780
 H    3.9227674369   -1.4949139324   -0.3862762752
 H    2.9001203816   -2.2512852688   -1.6024994076
 H    3.8886699918    0.6134846660   -1.6256903309
 H    0.1525629026   -1.0382875084   -1.8179047093