16

 C    0.0083161720    1.4294479893   -0.1293916617
 C    1.3546833807    2.0485774037    0.1073627311
 C    2.4601882223    1.3592765564    0.3760298102
 C    2.5135373521   -0.1415025414    0.4799544543
 C    1.1757386483   -0.7653991001    0.2463684079
 C    0.6921560783   -2.0559012555    0.2288548270
 N   -0.6393037178   -2.0251871574   -0.0442810370
 N   -1.0139517686   -0.7854634058   -0.1988055937
 N    0.0799069071   -0.0157534129   -0.0241593846
 H   -0.7269100955    1.8006664353    0.5955790928
 H   -0.3751079556    1.6930394932   -1.1231122447
 H    1.3826071278    3.1320196945    0.0457991046
 H    3.3966756298    1.8858571166    0.5346856888
 H    3.2456027858   -0.5371802147   -0.2380605115
 H    2.8984484635   -0.4315189494    1.4677405702
 H    1.2166017297   -2.9833813118    0.3940655162