19

 C    0.7490465065    1.2609396036   -0.0499102758
 O    0.9266143463   -0.1184375868   -0.3009252121
 C   -0.0433143825   -0.6448137413   -1.1985992753
 C    0.1305038391   -2.1405394417   -1.2755491407
 N   -0.2268635099   -2.7431905917   -2.5691940523
 C    1.1669330914   -2.7974090115   -2.1197085426
 C    2.2081933094   -2.1003355026   -2.9841341204
 N    2.8485329155   -1.0656322048   -2.3743336411
 O    2.4797760940   -2.5052921081   -4.0963834284
 H    0.8337676246    1.8572138720   -0.9708459930
 H   -0.2337103970    1.4604672250    0.4017421596
 H    1.5303845545    1.5686525798    0.6486443009
 H   -1.0550211890   -0.4009132368   -0.8378376953
 H    0.0689239257   -0.2056080257   -2.1997650104
 H   -0.1461775458   -2.6696278542   -0.3651020200
 H   -0.6812552190   -3.6427508106   -2.4438092418
 H    1.5349452522   -3.7565811693   -1.7576911290
 H    2.5091490075   -0.6814416515   -1.5024554012
 H    3.5396366167   -0.5639409638   -2.9088155413