20

 C   -0.0612606109    1.4393075719   -0.0422228991
 N   -0.0140874224   -0.0130923832    0.0195123956
 C   -1.0882518810   -0.6681245616   -0.0093588039
 C   -1.1969170845   -2.1815835762    0.0317760015
 C   -2.6557372788   -2.4258868896    0.3970174364
 C   -3.0733428674   -2.2338280538    1.8891989666
 C   -4.0123603766   -1.0663421984    1.4661091672
 C   -3.3766083150   -1.0881750631    0.0580545574
 O   -2.3432260599   -0.1111028329   -0.0984776154
 H    0.7487093502    1.8475475828    0.5703257524
 H    0.1158313714    1.7743148582   -1.0723657481
 H   -1.0139993617    1.8670565071    0.2916668281
 H   -0.9581510644   -2.5841776008   -0.9593028889
 H   -0.4780688946   -2.6006369504    0.7383776610
 H   -3.0851091529   -3.3140537480   -0.0669730192
 H   -3.5559526646   -3.0913799518    2.3616442711
 H   -2.2413015072   -1.9165379008    2.5235917825
 H   -5.0666159243   -1.3545893374    1.4432170827
 H   -3.9151108558   -0.1209623082    2.0033179156
 H   -4.0400778397   -1.0229612537   -0.8078059436