18

 C   -0.8245044239   -0.1259654272    0.3843894734
 C    0.2373723692   -0.2401146765   -0.6850812611
 C    1.1835814931    0.9609923091   -0.9181039237
 C    2.2560922757    0.0060386739   -0.4481723991
 O    1.3844525468   -1.0466875700   -0.2366284928
 N    3.4969622807    0.0804216937   -0.2957270029
 C    4.2014917371   -1.1112295029    0.1931756967
 C    4.7888676493   -0.8810121489    1.5118484422
 C    5.2705283100   -0.7037444986    2.5980313166
 H   -0.4099322254    0.3078018875    1.2993992596
 H   -1.6423706005    0.5128497926    0.0346668419
 H   -1.2376003584   -1.1100472609    0.6242059704
 H   -0.1640425606   -0.6760714652   -1.6050173703
 H    1.2898735212    1.3043011628   -1.9481880141
 H    1.0203646716    1.8186279198   -0.2621059387
 H    3.5545368248   -1.9979342056    0.2354598261
 H    5.0068287888   -1.3346228025   -0.5181689411
 H    5.6984611506   -0.5453348912    3.5565435669