9

 C   -0.0190471830    1.4903980033    0.0323535433
 C   -0.0012047900    0.0063966805   -0.0332373639
 N   -0.1080112743   -0.7035655286   -1.1200896688
 O   -0.0409385259   -1.9895674265   -0.7013422271
 N    0.1117835100   -2.0034168821    0.6817838612
 N    0.1345071847   -0.8123984817    1.0789044544
 H    0.9129149262    1.8631580423    0.4668462881
 H   -0.1403820323    1.9072708998   -0.9678708623
 H   -0.8408935753    1.8331176730    0.6674188651