20

 C   -0.0500915482    1.5186599449   -0.1180705692
 C   -0.0275791734    0.0197258825    0.0565070171
 N    1.3096589429   -0.6436587533   -0.0997440082
 C    0.6327423927   -0.6564192662    1.1780578271
 C    1.1722420183   -0.2662234151    2.5681693434
 C   -0.1935480125   -0.7614490485    3.1363962147
 C    0.2435075301   -1.8290629137    2.0786574222
 O   -0.4372546446   -2.9361148131    1.6133386195
 C    1.6887577390   -1.7344837504    2.6802659860
 H    0.8316314731    1.9723114987    0.3421072479
 H   -0.0530667648    1.7876159880   -1.1798604239
 H   -0.9444435395    1.9528557522    0.3425173727
 H   -0.8723668068   -0.5092265875   -0.3841661368
 H    1.1988280128   -1.5422891227   -0.5662005889
 H    1.7086595467    0.6353141228    2.8491699251
 H   -0.1837413822   -1.0834295240    4.1814844465
 H   -1.0770026802   -0.1655769050    2.8969123097
 H   -0.5260545532   -3.5727631198    2.3303836332
 H    2.5139283057   -2.0130224055    2.0222515929
 H    1.8191534244   -2.1204208143    3.6956588089