23

 C    0.0276297700    1.5988990995   -0.0526437424
 C    0.1287577305    0.0717267460   -0.0559465903
 C    0.6122478674   -0.5013588015    1.2864339603
 C    0.6984833824   -2.0017952223    1.2953878235
 C   -0.4937702546   -2.9496131979    1.4451323326
 O    0.2833419109   -3.8792139550    2.2452047646
 C    1.4011497196   -2.9851178143    2.2113780448
 C    1.9049807815   -2.7986628572    0.8088127665
 C    1.8789630462   -3.8916209430   -0.2361306785
 H    0.9993648756    2.0593013010    0.1586236015
 H   -0.3174647878    1.9790391438   -1.0191368701
 H   -0.6748997470    1.9478851053    0.7124598268
 H   -0.8502710681   -0.3602338911   -0.3017054484
 H    0.8118301252   -0.2547723596   -0.8500701104
 H    1.5976770350   -0.0794957443    1.5250920302
 H   -0.0635100734   -0.1666748333    2.0865858631
 H   -1.3065042205   -2.5193511945    2.0434859968
 H   -0.9090404064   -3.4168955655    0.5443522639
 H    1.9769798056   -2.8668397828    3.1233494784
 H    2.7890253255   -2.1621184950    0.7811620693
 H    1.0823626856   -4.6097286440   -0.0274728598
 H    1.7270240654   -3.4857295084   -1.2420686059
 H    2.8249170512   -4.4437348261   -0.2380291464