20

 C    0.2664211827    1.0075471324   -0.2393969825
 O    0.0537832722   -0.3709422700   -0.4642205806
 C   -1.2274609692   -0.8162742092   -0.0975105290
 C   -1.5242473504   -2.2410208768   -0.5332823309
 C   -0.6230486231   -3.1863795369    0.1465862021
 N   -1.8095535971   -2.7077823663    0.8887706639
 C   -1.4966917221   -1.3024189311    1.3672880980
 C   -0.4461225051   -1.2236024261    2.4609697930
 O   -0.8442271348   -1.9915126563    3.5843729995
 H    1.2705082182    1.2416638828   -0.6002148786
 H   -0.4624145578    1.6222993374   -0.7893969041
 H    0.2048284000    1.2703891196    0.8265641524
 H   -1.9892464258   -0.0977086354   -0.4283910083
 H   -2.1601857732   -2.5235476381   -1.3649433962
 H   -0.7082573843   -4.2330550931   -0.1271942942
 H    0.3747019757   -2.8686677014    0.4304023656
 H   -2.4333143922   -0.8879511107    1.7508282819
 H    0.5408957699   -1.5348649086    2.0897039379
 H   -0.3447840738   -0.1888517788    2.8075124184
 H   -1.1670493096   -2.8350323133    3.2454539816