19

 N    0.1094071412   -1.1892892049    0.0998024773
 C    0.0481470525   -0.0352266285    0.0719313233
 C   -0.0228261149    1.4262756331    0.0451399050
 C   -0.7722149207    1.9807447275    1.2778780913
 C   -1.0235251197    3.4842471377    1.1024676965
 C    0.2414635689    4.2433359444    0.7594152718
 N    1.4184193232    3.9465358216    1.5876527028
 C    1.4142955016    3.5362510740    0.1693227710
 C    1.3969858431    2.0356941842   -0.0866676062
 H   -0.6012943231    1.7003305750   -0.8478833823
 H   -1.7215503992    1.4531821641    1.4039673812
 H   -0.1723516701    1.8009735066    2.1747162380
 H   -1.7545827742    3.6420486395    0.2981847876
 H   -1.4656736058    3.8967483074    2.0167652698
 H    0.0889870673    5.2782338055    0.4581895729
 H    1.9845112464    4.7804647036    1.7155981077
 H    2.0414795579    4.1098953290   -0.5088853374
 H    2.0659443444    1.5465381088    0.6281740035
 H    1.7838761610    1.8217551814   -1.0874896337