23

 C   -1.5880879506   -1.2302384575    1.4369349592
 C   -0.5825634891   -0.5698050125    0.5273347882
 O   -0.4665270573    0.8597107308    0.5610512644
 C    0.6935559098    0.0855693275    0.8790266541
 C    1.3868180648    0.2850981611    2.2284292902
 C    2.2734985662    1.5427097000    2.0896318840
 C    0.4307421766    0.4830475232    3.4163206395
 C    2.2732396622   -0.9511781711    2.4592001092
 O    3.0229626990   -0.7613888673    3.6497556722
 H   -1.6502500021   -0.7464194951    2.4094303870
 H   -2.5801078876   -1.1902710500    0.9740816816
 H   -1.3356555492   -2.2866270869    1.5823863098
 H   -0.6179937514   -0.9628635059   -0.4932729213
 H    1.4274705299    0.0873549646    0.0657004727
 H    1.6535707915    2.4304642469    1.9325091729
 H    2.8730024260    1.6855801723    2.9908711907
 H    2.9575681307    1.4544827825    1.2381052249
 H   -0.0529588474   -0.4509731404    3.7136147306
 H    0.9905348904    0.8440254922    4.2818742488
 H   -0.3418755740    1.2142476269    3.1665372620
 H    1.6342104248   -1.8458121924    2.5341113527
 H    2.9404291974   -1.0929367432    1.5928917738
 H    3.5919695793   -1.5261142858    3.7728042729