18

 C   -0.0180732741    1.2599219923    0.2684637058
 C   -0.2050100971   -0.2228060353   -0.0826539256
 N    0.5841688798   -0.5992683949   -1.2419426824
 C    1.7684368329   -1.0865497804   -1.0978343911
 C    2.5538837093   -1.4552264203   -2.2655285597
 C    3.7856210906   -1.9844551541   -2.1180790298
 N    4.3161160057   -2.1779669392   -0.8704811658
 N    3.6836001835   -1.8455433065    0.2685905517
 C    2.4953408983   -1.3368134376    0.1615930498
 H    1.0083166852    1.4619359089    0.5930139147
 H   -0.2196646679    1.8832263617   -0.6075202538
 H   -0.6971228806    1.5596042679    1.0736130989
 H   -0.0097264611   -0.8397506588    0.8091507551
 H   -1.2582045927   -0.3897744598   -0.3398220917
 H    2.1258259139   -1.2991327260   -3.2471302993
 H    4.4199426691   -2.2838524599   -2.9441289040
 H    5.2378009109   -2.5571412030   -0.7384350709
 H    2.0413434645   -1.0804621549    1.1115253481