13

 O    0.2408518786    0.9428957514    0.9335883631
 C   -0.1072265081    0.2156995994   -0.2155998305
 C   -1.4722355523   -0.4092929770   -0.0629451527
 N   -2.1653396979   -0.2271677520    1.0594384066
 C   -3.3558438274   -0.8282738449    1.0755972960
 N   -3.8816120650   -1.5644928901    0.0980052691
 C   -3.0912399247   -1.6725882439   -0.9736172990
 N   -1.8894186953   -1.1263513341   -1.1166280286
 H    1.1133614741    1.3201318381    0.7892402507
 H   -0.1400772353    0.8408867897   -1.1230716839
 H    0.5982320637   -0.6032156115   -0.4327945735
 H   -3.9541985981   -0.7038528559    1.9759449034
 H   -3.4680442825   -2.2632806693   -1.8061848405