22

 C    0.4829319222   -0.6955823127    1.2907197066
 C   -0.1446616597   -0.3265636889   -0.0563302349
 C    0.8748368200   -0.1832130186   -1.1978149833
 C    1.4690778770   -1.5325197923   -1.6550540875
 C    0.5503341758   -1.9642593042   -2.7987133232
 O    0.4764614800   -3.0560190359   -3.2977193916
 C   -0.2812709550   -0.7312302019   -3.1898415791
 N    0.2249342713    0.3952520626   -2.4052607801
 C    1.1058836365    1.2724618425   -3.1678836494
 H    0.9925292984   -1.6643038194    1.2579732099
 H    1.2196175139    0.0540885854    1.6013954002
 H   -0.2797341624   -0.7547773810    2.0728204865
 H   -0.8991186974   -1.0766561934   -0.3300512635
 H   -0.6777598457    0.6262169119    0.0275990115
 H    1.6594726325    0.5062784921   -0.8711193409
 H    2.4794006262   -1.4099693841   -2.0641135076
 H    1.5253884032   -2.3071403998   -0.8876029135
 H   -0.2163585757   -0.5513380281   -4.2666164229
 H   -1.3356615338   -0.9437063299   -2.9649591073
 H    0.5561629318    1.6958888441   -4.0139196989
 H    1.4294429719    2.1042134859   -2.5349585343
 H    2.0116445791    0.7793813157   -3.5692530666