19

 O   -0.0882565504    1.4570977970   -0.2924458305
 C    0.0384182810    0.0764956141    0.0029282832
 C   -1.3210392458   -0.5552475009    0.1525350963
 C   -2.2239000990   -0.2814701558    1.3804095460
 C   -2.8605947109   -1.6875763181    1.2037431534
 C   -3.8426738736   -1.7501194149    0.0018727619
 C   -2.6358777183   -1.7257933239   -0.9623062472
 O   -2.0831582149   -0.3930940011   -1.0811197637
 C   -1.6853669557   -2.0681078719    0.2187228716
 H   -0.6724045825    1.5132858980   -1.0584092499
 H    0.6016530084   -0.4547052401   -0.7811791241
 H    0.6041419055   -0.0006877066    0.9376082425
 H   -1.6222430625   -0.2357761027    2.2943142202
 H   -2.8750390337    0.5945100141    1.3305459522
 H   -3.1153346538   -2.2485551767    2.1020642479
 H   -4.3419855776   -2.7240839698   -0.0401304440
 H   -4.5846975928   -0.9545983590   -0.1094649206
 H   -2.6960970606   -2.2305324159   -1.9284100067
 H   -0.9963898327   -2.9053111160    0.2946897517