21

 C   -0.1448874128    1.4961164954   -0.0661131361
 C    0.0939597068    0.0021998086   -0.0211706832
 O    1.2457088051   -0.4450233013   -0.8020364877
 C    1.7392786951   -1.1924911283    0.3182974442
 C    2.3369217847   -2.5339653132    0.0417787557
 C    2.0991367633   -0.2512568430    1.4279418989
 C    0.6450970284   -0.6775898780    1.2342381493
 C   -0.1838501950   -1.3075569257    2.3091662797
 O   -0.8091116382   -0.3403085990    3.1485036632
 H    0.7210352063    2.0537251862    0.3006742184
 H   -0.3508739383    1.8205819863   -1.0909975411
 H   -1.0103389136    1.7454137765    0.5566425717
 H   -0.7983835130   -0.5330766781   -0.3752543526
 H    3.2472072654   -2.4261770332   -0.5589456831
 H    2.6067053226   -3.0377523713    0.9743102766
 H    1.6390192616   -3.1688050746   -0.5126507646
 H    2.5817433909   -0.7077737087    2.2883614147
 H    2.4347800560    0.7552484583    1.1956177226
 H   -1.0078029162   -1.8834588604    1.8725722585
 H    0.4297172381   -2.0104237467    2.8958297200
 H   -0.1117740671    0.2271432402    3.4943789249