22

 C    0.2167888230    1.5717034074   -0.1523137842
 C    0.0310926428    0.0826725844    0.1183884549
 O    0.3327907116   -0.6495200411   -1.0787905701
 C    1.3471182389   -1.6166509066   -0.8337786214
 C    2.0978008912   -1.1236079292    0.4006126528
 C    0.9548945685   -0.5114281535    1.2209850543
 N    1.4146341818    0.4759514841    2.1845447367
 C    0.5593683377    0.6993562239    3.3481575965
 C    1.8447444443   -0.0381028856    3.4806702975
 H    1.2672751996    1.8131030672   -0.3326245440
 H   -0.3613727633    1.8475494466   -1.0389058278
 H   -0.1309527127    2.1720340900    0.6928320041
 H   -1.0211020143   -0.1066124310    0.3732515619
 H    0.9007436246   -2.6080962755   -0.6515300757
 H    1.9737511343   -1.6912659173   -1.7282147933
 H    2.6301263411   -1.9181215322    0.9296052339
 H    2.8156588528   -0.3402174143    0.1377927585
 H    0.4080645754   -1.3300340617    1.7249013674
 H    0.4750594239    1.7294109367    3.6818477912
 H   -0.3569986383    0.1166085448    3.4286497986
 H    1.7849481937   -1.1122949260    3.6499723051
 H    2.7168268333    0.4428991192    3.9138100429