19

 C    0.0518909287    1.3274777593   -0.2993763852
 O   -0.0256757852    0.0145329383    0.2317310389
 C   -1.2960955586   -0.5392724052    0.1577095177
 C   -2.3759623807   -0.1310939692    1.1673598265
 C   -2.8248913601   -1.4895262015    1.7388970098
 O   -2.5641992556   -2.4621716696    0.7065278917
 C   -1.4348010721   -2.0274373197   -0.0121331530
 C   -1.7916573740   -1.1123400408   -1.1649372121
 O   -3.1239460476   -1.0038994153   -1.5477855583
 H    1.0998191608    1.6302760492   -0.2441992557
 H   -0.2810830845    1.3591570127   -1.3456067056
 H   -0.5543739608    2.0379674817    0.2800744877
 H   -1.9471469398    0.5159414668    1.9359814139
 H   -3.2052460947    0.3907670723    0.6817187900
 H   -2.2439148689   -1.7474034986    2.6349573701
 H   -3.8890071697   -1.5479592822    1.9809493475
 H   -0.5930625948   -2.7115533567   -0.0435132417
 H   -1.0904663658   -1.0692736035   -1.9949334805
 H   -3.5964816367   -1.6842558683   -1.0466248918