22

 C   -0.4625031437    1.5000096534   -0.1708971440
 C   -0.3053216558   -0.0167973492   -0.3078761729
 C    0.7872879575   -0.5275947498   -1.2429184594
 C    1.2362316561    0.2664057825   -2.4147366512
 N    2.1217862863    0.0932537431   -1.2436107950
 C    0.8142984763   -2.0378236944   -1.3467725515
 O   -0.3786161534   -2.5891560207   -1.8552630943
 C    2.0594344744   -2.7543399939   -1.7627841172
 C    1.5780510141   -2.8456619157   -0.3272252633
 H    0.4569926635    1.9870384669    0.1726477011
 H   -0.7606902414    1.9674993909   -1.1137329473
 H   -1.2369514793    1.7301580810    0.5666159479
 H   -0.1232392865   -0.4505362761    0.6852416227
 H   -1.2580632401   -0.4355720218   -0.6541327744
 H    1.5640984681   -0.2505653061   -3.3118662971
 H    0.8010390592    1.2456356024   -2.5883310803
 H    2.1144236408    0.9408480930   -0.6823915318
 H   -1.0035633009   -2.6704673612   -1.1275896947
 H    1.9159236237   -3.6245333634   -2.3923376989
 H    2.9442434160   -2.1604626444   -1.9543830184
 H    2.1452613054   -2.3102430101    0.4263293618
 H    1.1377404897   -3.7820275965   -0.0013662317