19

 C   -0.0271825113    1.5663556585    0.0107797179
 C    0.0271207469    0.0374108928    0.0022270326
 C    0.7189477621   -0.5142043540   -1.2556890053
 C    0.8351588596   -2.0386012799   -1.1891478225
 O    1.5126572840   -2.4671423944   -0.0200585967
 C    0.8490636181   -2.0512664664    1.1615134005
 C    0.7337446031   -0.5276824303    1.2458517515
 H    0.9820666590    1.9945894511    0.0070381093
 H   -0.5542959051    1.9500933192   -0.8694635296
 H   -0.5436903683    1.9405659094    0.9013519277
 H   -1.0064485332   -0.3424593017    0.0062927789
 H    0.1688687532   -0.2245872609   -2.1595363813
 H    1.7262174458   -0.0844903234   -1.3370277479
 H   -0.1721877120   -2.4909259499   -1.2265715796
 H    1.4082861899   -2.4308590515   -2.0345246474
 H   -0.1578002673   -2.5040295037    1.2059740239
 H    1.4321252115   -2.4525782039    1.9957739686
 H    1.7419307282   -0.0988010951    1.3199050964
 H    0.1944057559   -0.2478634160    2.1592079728