17

 O   -0.0219606399    1.2785123627   -0.5157616583
 C   -0.0405592079   -0.0462621366   -0.0352073419
 C   -1.4899572471   -0.5239191190    0.1384653620
 O   -2.1790676864   -0.3557002243   -1.1443431429
 C   -2.1942274048   -1.7823552920   -1.3833416893
 C   -1.7027052650   -2.0787733505    0.0378564118
 O   -0.5794673252   -2.9144469929    0.0847404673
 C   -2.1806499581    0.1481519026    1.2245729460
 C   -2.7490666114    0.6524690508    2.1562290565
 H   -0.6212748564    1.2902229753   -1.2734196975
 H    0.4765428300   -0.7400958664   -0.7123083711
 H    0.4829247507   -0.0555884783    0.9254881490
 H   -3.1928115271   -2.1391545796   -1.6518155129
 H   -1.4721390156   -2.0867564369   -2.1501177788
 H   -2.4960697152   -2.4160025725    0.7123453568
 H   -0.4085752131   -3.1546110590    1.0008315546
 H   -3.2470724177    1.1216888564    2.9687167885