19

 C   -0.7809375444    1.2116068041   -0.1408650165
 C   -0.0301554947   -0.1095615667   -0.0723124912
 C    1.2757431077   -0.2913407760   -0.8995343346
 O    1.9175749633    0.9618169112   -1.0943459957
 C    1.9221217636   -1.0473346778    0.3159562064
 O    3.2508776979   -0.7276505810    0.6192638190
 C    0.7891231564   -0.4694255981    1.1764544131
 C    0.9220618949    0.2457156179    2.4456504683
 O    0.2827072272   -1.0384720515    2.3660387565
 H   -0.1052928677    2.0561418118    0.0120895228
 H   -1.2640175478    1.3405520597   -1.1146701388
 H   -1.5624772271    1.2458715625    0.6252668207
 H   -0.7041358511   -0.9436152924   -0.3006499804
 H    1.1852304837   -0.8393854327   -1.8428666376
 H    2.6732038636    0.8146676117   -1.6721769588
 H    1.8522132355   -2.1354605101    0.2280235670
 H    3.3134559131    0.2315015912    0.5161250112
 H    1.8857615230    0.2530034288    2.9525038372
 H    0.2624156128    1.0821307674    2.6708161815