14

 N   -0.0291938831   -1.1310563984    0.0542245027
 C   -0.0261566715    0.0235928056    0.0532621193
 C   -0.0082246572    1.4698469411    0.0374374433
 O   -0.8649848257    2.0509302207    0.9795158558
 C   -0.6627466756    3.4711375007    0.7612411294
 C    0.3586192501    3.4600101749   -0.3600387316
 C    1.3361921407    2.2720559025   -0.0982593432
 O    1.4129202163    1.9599852234   -1.5213897111
 C    0.0039245231    2.2752501306   -1.3118528889
 H   -1.6151436934    3.9346521907    0.4835290659
 H   -0.2964226827    3.9314887342    1.6847743328
 H    0.7422428498    4.3871564864   -0.7787401624
 H    2.2420707315    2.2158463083    0.5028333232
 H   -0.6789785024    2.2228485792   -2.1580122352