17

 C   -0.0425411157    1.4031201115    0.0026694610
 O   -0.0021250425   -0.0192389848    0.0148635107
 C    0.6414406836   -0.6010770205    1.0548667706
 N    1.1892591312    0.1486202275    1.9957669400
 C    1.8137407178   -0.4638744284    3.0096079385
 C    1.9289543391   -1.8466421254    3.1348434017
 N    2.6556278774   -2.4377750699    4.1798426147
 C    1.3379962805   -2.6209071676    2.1225391912
 C    0.6865494566   -2.0026702541    1.0744901749
 H    0.9649920998    1.8296334265   -0.0274954888
 H   -0.5933274152    1.6734367826   -0.8999338748
 H   -0.5530336521    1.7945619034    0.8882079441
 H    2.2506025298    0.1872167072    3.7654597250
 H    2.7495102776   -1.8441221773    4.9928925104
 H    2.3106068156   -3.3479441202    4.4528187091
 H    1.3985238550   -3.7046739179    2.1656081295
 H    0.2170720915   -2.5679205824    0.2787962622