19

 O    0.0741150080    1.4344220065   -0.0246301613
 C    0.0990954433    0.0335990728   -0.0745639471
 C    0.1743788180   -0.6390769580    1.3271110617
 O   -1.2565430529   -0.3079176404    1.4449206927
 C   -1.3120083392   -0.6184789316    0.0056311244
 C   -1.2511141885   -2.1842649046   -0.1562163043
 C   -1.1538007874   -2.7618874030    1.2911094442
 C    0.3037405087   -2.2058109050    1.2261367805
 C    0.2440053328   -2.6122262616   -0.2787941765
 H   -0.5481210111    1.6622290544    0.6788000543
 H    0.7979168897   -0.2290664476   -0.8646864159
 H    0.7715096583   -0.1783013398    2.1167725590
 H   -2.1588533580   -0.1376962839   -0.4884806448
 H   -1.9902142752   -2.5696430155   -0.8603434197
 H   -1.8272437064   -2.3823687811    2.0545057131
 H   -1.1563247119   -3.8535064489    1.2769346965
 H    1.0834142538   -2.6122354442    1.8722855374
 H    0.3308323126   -3.6955004288   -0.3933410559
 H    0.8991866154   -2.1378757497   -1.0083405082