18

 C    0.1409304593    1.5868982675   -0.0325239251
 C    0.0644108477    0.0571649125    0.0374764348
 C    0.8136380442   -0.4884917972    1.2598500978
 C   -1.4233706930   -0.4199139539    0.0338636545
 O   -2.0269982151    0.0872164454    1.2163528373
 C   -2.1386248430    0.0337980581   -1.1691298070
 C   -2.7509606149    0.4023771718   -2.1344202945
 C   -1.4715541497   -1.9090515919    0.0494161662
 N   -1.5208760683   -3.0630407955    0.0784728677
 H    1.1882813841    1.9004669156   -0.0637863469
 H   -0.3574312127    1.9759966929   -0.9237920636
 H   -0.3253138681    2.0378682628    0.8471382651
 H    0.5095192075   -0.3643422353   -0.8712441856
 H    0.3774646361   -0.1046264225    2.1856446358
 H    0.7912993706   -1.5809942105    1.2970015792
 H    1.8603837640   -0.1739795466    1.2187362585
 H   -2.9727116655   -0.0957855413    1.1767641954
 H   -3.2881477931    0.7270264779   -2.9920847495