20

 C   -0.1389030592    1.7482911878   -0.0403823771
 C    0.0814523687    0.2436600704   -0.0423545528
 C    0.8187729828   -0.3256280186   -1.2788731022
 C    1.9421196290   -1.2039708470   -0.6824743517
 C    1.5228051706   -1.3362096520    0.7861136510
 O    0.8557175605   -0.1035710952    1.0773913264
 O   -1.1940193987   -0.4474694331   -0.0165530954
 C   -1.9143712632   -0.3882139782    1.1232649218
 N   -3.0950008486   -0.8405520581    1.1367543489
 H    0.8196948890    2.2649620539   -0.1297344787
 H   -0.7805303396    2.0308091816   -0.8783533500
 H   -0.6168235524    2.0690498107    0.8890257004
 H    0.1114518155   -0.9003397382   -1.8776973339
 H    1.2153405164    0.4792104130   -1.9009024130
 H    2.0349371834   -2.1719633084   -1.1793765668
 H    2.9080780080   -0.6962115222   -0.7519718069
 H    0.8384955959   -2.1824436198    0.9332001697
 H    2.3554422125   -1.4309862103    1.4861130129
 H   -1.3675250710    0.0368035973    1.9705967872
 H   -3.4839056396   -0.7449413638    2.0732330102