23

 C   -0.0793365137    1.5694573467    0.0704982775
 C   -0.0156636833    0.0362933128    0.0060547055
 C   -1.4254029168   -0.5564684076    0.1455647324
 C    0.7364067470   -0.4814211852   -1.2729145664
 C    2.2062652466    0.0048965168   -1.2786901970
 C    0.7381279043   -2.0299112781   -1.3173962578
 O    1.2985916649   -2.5124824068   -0.1054868927
 C    0.0661705558   -0.0226063621   -2.4938981651
 C   -0.4763957731    0.3350139100   -3.5063547269
 H    0.9121112906    2.0291577326    0.0881949904
 H   -0.6256417941    1.9772934953   -0.7863509949
 H   -0.6003483778    1.8835487224    0.9805944863
 H    0.5813450985   -0.3207152859    0.8520189294
 H   -2.0361846954   -0.3413835312   -0.7379662841
 H   -1.3976710099   -1.6387577117    0.2934692283
 H   -1.9304299757   -0.1212863931    1.0137642846
 H    2.7158573560   -0.3506958539   -0.3798311349
 H    2.7310089825   -0.3913701136   -2.1529506146
 H    2.2697282853    1.0931525014   -1.3196677856
 H   -0.2859404433   -2.3980920594   -1.4599056363
 H    1.3297677439   -2.3512156917   -2.1871393779
 H    1.3378737799   -3.4716809991   -0.1532203819
 H   -0.9538569821    0.6584498114   -4.3980629781