20

 C   -0.3191212004    1.4877195916   -0.0945782816
 C    0.1100474083    0.0242966702    0.0875369043
 C    0.8295732490   -0.5290462931   -1.1064951005
 N    0.1214131487   -0.9107961636   -2.3574534872
 C    0.9694495587   -1.9062487801   -1.6535237794
 C    2.3995390401   -1.6367399165   -2.1241977617
 C    2.2789394823   -0.1749027448   -1.5426554152
 C    2.4318031664    0.9795020282   -2.4964973405
 O    3.1764037988    1.9131590801   -2.3168080920
 H    0.5467181472    2.1312150867   -0.2801014027
 H   -1.0019350933    1.5960680214   -0.9430836958
 H   -0.8271841336    1.8593567501    0.7999269142
 H    0.7605706423   -0.0613355356    0.9672222963
 H   -0.7682689767   -0.6025624264    0.2922223298
 H   -0.8467439546   -1.1021819008   -2.0985522996
 H    0.5451079376   -2.8406322773   -1.3061468915
 H    3.1602419331   -2.2127291159   -1.5948972927
 H    2.5572415993   -1.7216477286   -3.2025688546
 H    2.9389909434   -0.0195544025   -0.6867144730
 H    1.7866573834    0.9174945370   -3.3975464366