14

 O   -0.0170200275    0.3409506679   -0.9971081538
 C   -0.0195604853    1.3022560924   -0.2913090111
 C   -1.1370600260    2.1458072135    0.3383408336
 C   -0.0279534620    3.1625151461    0.8415476266
 C    1.0928744672    2.1761189229    0.3050872148
 C   -0.0556349223    4.4451405415    0.1546414305
 C   -0.0787202954    5.4848106648   -0.4454387293
 C   -0.0086428074    3.3354591827    2.2940609668
 N    0.0071383413    3.4376047092    3.4449209264
 H   -1.8683886646    2.5670755172   -0.3531322492
 H   -1.6571754320    1.6332579414    1.1516869274
 H    1.6506804240    1.6781872070    1.1023834030
 H    1.7916037042    2.6168103395   -0.4076596693
 H   -0.0990527441    6.4126365141   -0.9629364764