19

 C    0.0198064084    1.4554467719    0.0216175526
 C   -0.0372438422   -0.0424597910    0.0862345564
 O    0.4472700923   -0.7581593597   -1.1131993801
 C   -0.2817547700   -1.9005892769   -0.5570604235
 C    0.5193924943   -2.2452351628    0.7051779748
 C    0.7947362241   -0.7800097577    1.1729944310
 O    2.1542974081   -0.4036958524    1.1111827988
 C   -1.3267470510   -0.8750754611   -0.0374246160
 O   -2.0372976433   -1.0945261323    1.1508797281
 H    1.0554005145    1.8008745617    0.0808011482
 H   -0.4298646702    1.8263704624   -0.9032619417
 H   -0.5274497751    1.8786185432    0.8703826934
 H   -0.5049632003   -2.6760270696   -1.2897863655
 H   -0.0644766721   -2.8217107384    1.4258813219
 H    1.4515617181   -2.7708955102    0.4873513695
 H    0.4535698509   -0.5753159760    2.1887629456
 H    2.4120167920   -0.5165883630    0.1865454688
 H   -1.9546194680   -0.4999345269   -0.8530929946
 H   -2.8633142806   -1.5413732213    0.9439074723