18

 C   -0.2043194229    1.6149823092   -0.1025067826
 C   -0.0089684056    0.1254682095    0.0883879120
 O    1.0510378096   -0.3580099931    0.4208463125
 C   -1.2265064249   -0.7558188059   -0.1531016839
 C   -1.4366164731   -1.1047550098   -1.6616720979
 C   -0.9796136211   -2.5297605410   -1.2810488093
 N   -1.0094680757   -2.1819291137    0.1678414738
 C   -1.9390331329   -3.6590691569   -1.5927698791
 O   -2.7843488588   -3.6204653340   -2.4490284139
 H    0.7616605843    2.1201906568   -0.1312956088
 H   -0.7728468801    1.8290579346   -1.0133030877
 H   -0.7885449237    2.0098869617    0.7373474110
 H   -2.0976809275   -0.3141024693    0.3472908352
 H   -2.4719454319   -1.0637352812   -2.0005102256
 H   -0.8028562416   -0.5693275488   -2.3698624713
 H    0.0153098057   -2.8024019975   -1.6613859293
 H   -0.1104303016   -2.3037587707    0.6282204679
 H   -1.8129179484   -4.5462976598   -0.9317357228