23

 C   -0.1201599996    1.5060215254    0.0184152200
 C    0.0386045754   -0.0178763990    0.0687503835
 C    0.7824058119   -0.5167504603    1.2818356314
 C    2.2693725434   -0.2642419221    1.6810042812
 C    1.7142021810   -1.1734650312    2.8181512515
 C    2.4408031452   -1.6952580440    4.0281876347
 C    0.4427335402   -0.2648226674    2.7890672528
 C    1.0574794497   -2.0047962632    1.6698116336
 O    0.0116622808   -2.9062339814    1.9169490813
 H    0.8537433275    2.0065127866    0.0029655693
 H   -0.6684933014    1.8157489875   -0.8764684469
 H   -0.6691805217    1.8759743947    0.8908817247
 H   -0.9506321748   -0.4942327503    0.0461944096
 H    0.5615846714   -0.3656025706   -0.8320335869
 H    3.0361059432   -0.6988061638    1.0309723577
 H    2.5246918020    0.7580457276    1.9709945134
 H    2.7546130007   -0.8809104009    4.6903122800
 H    1.7992489022   -2.3703173531    4.6055711850
 H    3.3354782312   -2.2563103720    3.7366597008
 H    0.5738280900    0.7578188260    3.1547060002
 H   -0.4948105771   -0.6749362108    3.1827051264
 H    1.7559973990   -2.5381407312    1.0171056775
 H   -0.6373965201   -2.4894712967    2.4927282193