15

 C    0.0421708266    1.5298979930   -0.0136596789
 C   -0.0789045565    0.0475202958    0.0649075147
 C   -1.1483430369   -0.6875120221   -0.2435185353
 N   -1.1119017036   -2.0762326086   -0.1184799229
 C   -0.0187548927   -2.7858508942    0.3151736779
 O   -0.0127947610   -3.9904791515    0.4143397649
 C    1.1839779616   -1.9231733771    0.6598163479
 N    2.2485325848   -2.4601109457    1.0707591310
 O    1.0773152169   -0.5562104253    0.5116231629
 H    0.8492551311    1.8210030719   -0.6954103009
 H   -0.8905167776    1.9713926693   -0.3706528525
 H    0.2763320740    1.9559940446    0.9684330022
 H   -2.0701801170   -0.2500460939   -0.5960670448
 H   -1.9211556009   -2.6317748315   -0.3523313234
 H    2.9564618913   -1.7467703348    1.2569462573