19

 C    0.0318518412    1.5357460726    0.0960288629
 C    0.0143868847    0.0075580795    0.0132792114
 C    0.7543464971   -0.5167837569   -1.2003513558
 O    2.1301310897   -0.2128295599   -1.1210541615
 C    2.7525943270   -1.1263853327   -1.9998275653
 C    1.8849230429   -2.4139500130   -1.8531814403
 O    0.6771780091   -1.9348979456   -1.2539320577
 C    1.6481321696   -3.0931689316   -3.1230058810
 C    1.4755325589   -3.6508717858   -4.1733372664
 H    1.0569930124    1.9104237860    0.1591864201
 H   -0.4372001433    1.9876123649   -0.7849407626
 H   -0.5141480717    1.8826699509    0.9776797324
 H    0.4764491640   -0.4390240315    0.8998780635
 H   -1.0137521648   -0.3659786119   -0.0412637114
 H    0.3382836847   -0.0950451895   -2.1354799541
 H    2.7280560411   -0.7684229858   -3.0382278101
 H    3.7885142606   -1.2704583599   -1.6884503324
 H    2.3470483664   -3.1144895768   -1.1471434921
 H    1.3164667805   -4.1494895530   -5.0975832497