17

 O   -0.3691713286    0.1543416678    0.1917111484
 C   -0.1006788691    1.3206812012    0.0341809781
 C    1.2689136197    1.8640443768   -0.0446811399
 C    1.4899212748    3.3280341564    0.3063260107
 C    1.5732778573    2.9312171063   -1.1277901681
 C    2.9342986484    2.6258931467   -1.7162599300
 C    3.5480789696    1.5313302385   -0.8221210947
 O    4.7047474333    1.2069279112   -0.8239097588
 C    2.4532114871    0.9318906592    0.0702575195
 H   -0.9026025284    2.0878530533   -0.0798242318
 H    0.6203068156    3.8953913008    0.6221761134
 H    2.4005768927    3.5704743495    0.8467542209
 H    0.7740959857    3.2451412484   -1.7898470863
 H    2.8469291790    2.2263186007   -2.7340447173
 H    3.6077705343    3.4866553385   -1.7662446582
 H    2.8312066402    0.7991046424    1.0879349251
 H    2.1826458684   -0.0643805677   -0.3001486711