20

 C   -0.1234759733    1.3531206652    0.0176677774
 O    0.1220441323   -0.0367751120   -0.0329083792
 C    0.7185989976   -0.5677701565    1.1043245253
 C    0.0120167025   -0.6122441636    2.5030254303
 C    1.0082447817   -1.7871087261    2.7164556440
 C    0.8122461234   -2.1088818638    1.2074010858
 C    2.3710107171   -1.0614104880    2.7132707125
 C    2.1543088560   -0.1244235390    1.4822162298
 H    0.8052516951    1.9399356543    0.0536090772
 H   -0.6656214697    1.6142454346   -0.8942037095
 H   -0.7407830351    1.6262695707    0.8860088383
 H    0.0909630884    0.2553520614    3.1651427768
 H   -1.0253424797   -0.9444403495    2.4231534123
 H    0.8411375983   -2.5395910974    3.4856398299
 H   -0.1460127830   -2.5865160729    0.9936863325
 H    1.6221261382   -2.6123537885    0.6712717542
 H    2.5474510420   -0.5058995679    3.6390267809
 H    3.2070570275   -1.7524017214    2.5717517963
 H    2.8584129493   -0.3119886745    0.6666487858
 H    2.2138310117    0.9349490549    1.7459067893