21

 C   -0.2877418144    1.4938443960    0.1646693463
 C   -0.0033774886    0.0143105595    0.0414384701
 C    1.1356300117   -0.4026108008   -0.9463665646
 C    1.9505736233   -1.0010280764    0.2349604074
 C    0.7686657358   -0.7039760493    1.2053862112
 O    1.0603721122    0.1360134270    2.3008408347
 C   -0.1404574803   -1.8931000433    1.5573902147
 C   -1.0533634128   -2.0131475705    0.3279899930
 O   -1.2285051097   -0.6839547471   -0.1453515831
 H    0.6332032799    2.0440675595    0.3735381644
 H   -0.7200937316    1.8722669048   -0.7671857629
 H   -0.9921773892    1.6811525562    0.9788978598
 H    0.8045674283   -1.1288155395   -1.6917930964
 H    1.6130015016    0.4311849462   -1.4654421197
 H    2.2407456800   -2.0512558272    0.1400836557
 H    2.8331007838   -0.4121865120    0.4947838729
 H    1.5890460756   -0.3643649962    2.9314239235
 H    0.4042450744   -2.8170015114    1.7748863546
 H   -0.7283666177   -1.6133582598    2.4368013801
 H   -0.5916226816   -2.6491982803   -0.4443037351
 H   -2.0413504007   -2.4228168956    0.5529426535