18

 C   -0.0267295418    1.5165464459    0.0652515762
 N    1.3085052091    2.1082822962   -0.0776710448
 C    2.2487355344    1.3457072435   -0.8699920795
 C    2.7643349300    0.0573707437   -0.2289276434
 O    2.2854442183   -0.2450641905    1.0489092162
 C    0.9271412522   -0.6566113662    1.1181253065
 C    0.0449097439   -0.0138522365    0.0459401016
 O    0.5196550098   -0.4357533237   -1.2359051063
 C    1.8404071405   -0.0054254776   -1.4256987566
 H   -0.4733855133    1.8595383109    1.0073175278
 H   -0.7119441503    1.8000642735   -0.7492077964
 H    1.2365884098    3.0490255889   -0.4390596161
 H    2.9453918550    1.9536360601   -1.4375707620
 H    3.8071021723   -0.2242482345   -0.3397603712
 H    0.8539395505   -1.7474014366    0.9933493883
 H    0.5766391041   -0.3971905888    2.1224219150
 H   -0.9670622712   -0.4187789296    0.1394491896
 H    2.2193561767   -0.3495464387   -2.3825392751