17

 N   -0.0296415410    1.3116474340    0.2065600100
 C   -0.0000734884    0.0722592770   -0.3596444682
 O    0.9817102788   -0.3416732382   -0.9570688377
 C   -1.2530575102   -0.7302125383   -0.1827683656
 C   -1.5914719540   -1.7522878754   -1.2520788354
 C   -1.1794695397   -2.2274197020    0.1024785522
 C    0.1520184847   -2.9333552499    0.3195893925
 C    0.0489900576   -4.3659872624    0.0426527450
 N   -0.0468531340   -5.4973335522   -0.1728345228
 H    0.7697679489    1.9101279422    0.0779964505
 H   -0.8502269227    1.6868621717    0.6474382015
 H   -2.0835086573   -0.2122870004    0.2865151636
 H   -2.6271829892   -1.8509823447   -1.5544183762
 H   -0.8605127709   -1.8378215569   -2.0487120793
 H   -1.9763584894   -2.5912105152    0.7441217654
 H    0.9166246018   -2.4874131947   -0.3224696057
 H    0.4897354351   -2.8063861446    1.3550767903