17

 C   -0.0566308860    1.5199138532   -0.0021874470
 C    0.0030574000    0.0217997950    0.0725494585
 O   -1.2169310486   -0.6449260039   -0.2042441110
 C   -1.4460651748   -1.4969241645    0.9039912000
 O   -0.1708733326   -1.8929473835    1.3852868134
 C    0.6804929194   -0.8125838894    1.0934280673
 C    1.2654329882   -0.7647666981   -0.3271186468
 C    1.2112287964   -1.9348634724   -1.2358461483
 O    2.0787149302   -2.1843463927   -2.0393243100
 H    0.9057733491    1.9587525599    0.2743980496
 H   -0.2996601656    1.8432610180   -1.0189074666
 H   -0.8249098791    1.9071598066    0.6745038279
 H   -2.0024197356   -0.9630006846    1.6925935975
 H   -1.9964236318   -2.3811704968    0.5728182112
 H    1.2596959098   -0.4353276803    1.9293746675
 H    2.1673459521   -0.1700984355   -0.4365647566
 H    0.3159649390   -2.5773086511   -1.1379817067