18

 C    0.0103728129    1.4720697832    0.0758506192
 C    0.0323262810    0.0164202880    0.0761628626
 C    0.0518910688   -1.1871339723    0.0846430126
 C    0.0464252041   -2.6450647148    0.0814867735
 C   -1.3283592446   -3.2424214324   -0.2244764867
 C   -1.4804340561   -4.7740022296   -0.0923485444
 C   -2.5862032219   -4.4270250440    0.9237521453
 O   -2.2854219468   -3.0190668651    0.8353212166
 H    0.4178838829    1.8795767049   -0.8561453039
 H   -1.0111607687    1.8529849869    0.1849111676
 H    0.6039053195    1.8793855937    0.9019857539
 H    0.7537058187   -3.0246252864   -0.6699781838
 H    0.3820026814   -3.0305050586    1.0529936889
 H   -1.6999427659   -2.8360805509   -1.1747663736
 H   -1.7920887169   -5.3093355508   -0.9900729959
 H   -0.6078044258   -5.2705373445    0.3385631566
 H   -3.6076051813   -4.6478855187    0.5876761882
 H   -2.4591318913   -4.8112770588    1.9424194533