21

 C   -0.0416626667    1.5625023292    0.0211555067
 C    0.0576396762    0.0510053954   -0.0405614607
 C    0.7703650932   -0.6050955210   -1.2443377296
 C   -0.5030218139   -1.4726284260   -1.3287607428
 C   -0.3926007981   -2.8623120870   -0.6953876595
 C   -0.2015362487   -2.7925428593    0.8275608220
 O    0.8499320543   -1.9229284029    1.2279528011
 C    0.4965284283   -0.5543106001    1.2991176004
 O   -1.2097594459   -0.5536369760   -0.4525822504
 H    0.9433971952    2.0107519629    0.1888102168
 H   -0.4481270407    1.9507316783   -0.9162437560
 H   -0.7040853044    1.8772503768    0.8350433719
 H    0.8772368818    0.0766097827   -2.0903837684
 H    1.7127586369   -1.1150927115   -1.0446812002
 H   -0.9817679488   -1.5254127850   -2.3120946212
 H   -1.3023475884   -3.4423080902   -0.8950662038
 H    0.4409821113   -3.4001388378   -1.1638413939
 H   -1.1433267785   -2.4788508516    1.2972499965
 H    0.0596587636   -3.7831948935    1.2134663035
 H    1.3903775218   -0.0388066835    1.6675456602
 H   -0.3172922685   -0.4009157200    2.0269489174