23

 C    0.8250439717   -0.5830804729    1.2617191158
 C    0.0881171934   -0.1813617522   -0.0127130452
 O    0.8086826382   -0.6087973241   -1.1813727486
 C   -1.4048110766   -0.6232497086   -0.0531692184
 C   -1.5756426890   -2.1310141968    0.1346853197
 O   -2.0765171794   -0.0212105837    1.0582052161
 C   -2.1064757310   -0.1890636515   -1.3786328851
 C   -2.0719105069    1.3193928872   -1.6607417548
 O   -1.6215112424   -0.9154920923   -2.4968728807
 H    1.8087672466   -0.1070095965    1.2929400929
 H    0.2519287602   -0.2823084884    2.1413947119
 H    0.9723610054   -1.6679911607    1.3117340705
 H    0.0998464981    0.9132053320   -0.0820497851
 H    1.0498062009   -1.5331414122   -1.0533373393
 H   -1.1879079825   -2.4522758457    1.1039096040
 H   -2.6384916370   -2.3844212928    0.0979613096
 H   -1.0774068987   -2.6838692018   -0.6641645860
 H   -2.0371996415    0.9351993622    0.9518644715
 H   -3.1555451440   -0.4869695909   -1.2612288360
 H   -2.5085236475    1.9114624714   -0.8476722172
 H   -1.0535022292    1.6765472162   -1.8442768250
 H   -2.6582860199    1.5207240138   -2.5608230354
 H   -0.6617303688   -0.7867080215   -2.4930758450