14

 N   -0.1273996031    1.2923165217   -0.3450352909
 C   -0.0150327030    0.0923552318    0.0445316488
 C   -1.2113933776   -0.8344977003    0.0039806208
 C   -1.1078818095   -1.9949592941    0.9496631768
 C    0.0728344368   -2.4072698635    1.3931167939
 C    1.3393078297   -1.7224702485    0.9875997427
 O    1.1747230481   -0.3863669417    0.5007781589
 H    0.7713149482    1.7722410303   -0.2633290296
 H   -2.0988537398   -0.2256667863    0.1923304419
 H   -1.3230915837   -1.2043390872   -1.0263154433
 H   -2.0250494459   -2.4994349974    1.2375618083
 H    0.1756011431   -3.2640408530    2.0518201645
 H    2.0262255961   -1.6411915627    1.8379796638
 H    1.8629429106   -2.3063058191    0.2146760634