23

 C   -0.0223371440    1.4207224001   -0.1297878909
 C    1.3508240088    0.8168760109    0.0666386157
 C    2.1198277079    1.0644923068    1.3526554579
 C    2.7647935876   -0.1825557650    2.0106623465
 C    2.0823276593   -1.5475288380    1.7754281918
 C    0.5823181551   -1.6781278573    2.0211154700
 C   -0.2584614618   -0.5798103365    2.6296856395
 C   -0.3892876673   -0.8977249732    1.1569856501
 C    0.1279320305   -0.0756067612    0.0121180034
 H   -0.4423596097    1.9582576224    0.7152081366
 H   -0.2934395660    1.8304736666   -1.0970767231
 H    1.9743454687    0.7684046064   -0.8227552711
 H    2.9053239732    1.8035543218    1.1537900294
 H    1.4556090521    1.5520895998    2.0709198246
 H    3.7978731662   -0.2863648612    1.6573602709
 H    2.8401617203    0.0019536170    3.0891181883
 H    2.2835501850   -1.8658604122    0.7438428862
 H    2.5996177453   -2.2751061069    2.4127946386
 H    0.2798158965   -2.6911343787    2.2743268265
 H   -1.0877231083   -0.8738112718    3.2649947916
 H    0.2201900472    0.3334632231    2.9535176901
 H   -1.3090609467   -1.4200111019    0.9037372806
 H    0.0377338501   -0.6194189412   -0.9262884832