21

 C    0.3451806169    1.1609131670   -0.0267037526
 O    0.1603754045   -0.2398076072    0.0440433692
 C    0.7178709160   -0.8208826197    1.1793050957
 C    2.2700232329   -0.9197501875    1.2711100041
 C    2.1447608217   -2.4555663124    1.5368241227
 C    0.6054775276   -2.3422665869    1.4406065644
 O   -0.0116507833   -2.1144371288    2.7234194669
 C   -0.0576303437   -0.6747168098    2.5197925738
 C    0.4844933948    0.1005062550    3.7021354328
 H    1.4103861192    1.4338098595   -0.0221940027
 H   -0.1005264161    1.4968299240   -0.9655545159
 H   -0.1505618782    1.6829983142    0.8049929018
 H    2.7297826641   -0.6972172100    0.3053983181
 H    2.7672399781   -0.3240185868    2.0394349788
 H    2.5985189036   -3.0718508224    0.7569354942
 H    2.4860973981   -2.8031896142    2.5134586264
 H    0.0471589660   -3.0409427175    0.8135801593
 H   -1.0904075837   -0.3640276619    2.3021214412
 H    1.5187301875   -0.1743767965    3.9266364731
 H    0.4403725010    1.1784942271    3.5121418192
 H   -0.1185425869   -0.1104336253    4.5912270594