25

 C   -0.0679863388    1.6348343453    0.0096365013
 C   -0.0107198435    0.0995063117    0.0883076735
 C    0.8385050422   -0.3368081360    1.2716590531
 C    1.6950665795   -1.5794229631    1.2368862263
 C    2.3415535919   -0.2185097377    1.1986107088
 C   -1.4267707270   -0.5445982206    0.0569079074
 C   -1.3492823115   -2.0773190753    0.0123377702
 C   -2.3194534558   -0.0957675834    1.2248111804
 O   -1.9929469697   -0.0779559181   -1.1787868158
 H    0.9356835815    2.0394875587   -0.1504062491
 H   -0.7116818255    1.9587828557   -0.8097864095
 H   -0.4475894927    2.0713834168    0.9399454343
 H    0.4822485657   -0.2583469893   -0.8261790941
 H    0.4121545017   -0.0921406011    2.2419548247
 H    1.7867263576   -2.1715608225    2.1412809792
 H    1.7032723811   -2.1653331670    0.3240966264
 H    2.7759719753    0.1042026819    0.2576247357
 H    2.8793809733    0.1260891520    2.0748581439
 H   -0.9270622951   -2.4931165215    0.9301437173
 H   -2.3538604441   -2.4992579154   -0.1147003514
 H   -0.7382817811   -2.4053327790   -0.8335279757
 H   -2.4633715877    0.9869099523    1.2166550428
 H   -3.3065679545   -0.5663880339    1.1438339413
 H   -1.9013384858   -0.3863509252    2.1934579305
 H   -2.8789269870   -0.4480576850   -1.2514442915