17

 C    0.0672194117    1.5733609360   -0.1108930528
 C   -0.0254338105    0.0436445882   -0.0113702425
 O    0.4806190762   -0.5901973265   -1.1850550556
 C    0.6308079483   -0.4541900364    1.2021934371
 C    1.2099510571   -0.8530498486    2.1829291037
 C    1.9091169109   -1.3454264051    3.3355008877
 C    1.2081886805   -2.2461459964    4.3015265035
 N    2.2561687717   -2.7863695291    3.4329232254
 H    1.1142806163    1.8921525786   -0.1360958478
 H   -0.4246807633    1.9067943489   -1.0282724898
 H   -0.4129644356    2.0506786832    0.7482213432
 H   -1.0841532608   -0.2421555588    0.0137082927
 H    1.4391860623   -0.4899272183   -1.1741920588
 H    2.6893495179   -0.6955135446    3.7234555115
 H    1.4675747582   -2.1904603957    5.3548882857
 H    0.1706932442   -2.4885886465    4.0923742962
 H    1.8308584549   -3.2759177890    2.6488618906