21

 C   -0.0142906351    1.6586958696    0.2052021025
 C    1.4367306320    1.1697348153    0.0510474487
 O    1.0977396919    0.0134013986    0.9352511939
 C   -0.0123154007    0.1201850601   -0.0469597219
 C   -1.1566461713   -0.8220429804   -0.2430208885
 C   -1.7534347528   -0.4693383939   -1.6333411611
 C   -0.7029202081   -0.3876513196   -2.7666631697
 C    0.4203711892    0.6498331734   -2.5083963514
 C    1.0340807510    0.2813096315   -1.1636424981
 H   -0.2916709479    1.9493463186    1.2192375804
 H   -0.4317934829    2.3258591113   -0.5510743979
 H    2.3713824449    1.6879329406    0.2677764980
 H   -0.7779717070   -1.8515799515   -0.2437123739
 H   -1.9177949956   -0.7456142746    0.5405967214
 H   -2.5151357643   -1.2099728759   -1.8977379381
 H   -2.2742422029    0.4941765218   -1.5586926857
 H   -0.2439019048   -1.3772791805   -2.8971962950
 H   -1.2123286129   -0.1582612125   -3.7090733297
 H    1.1570322711    0.6192977752   -3.3182812295
 H   -0.0037262134    1.6595427491   -2.5069126938
 H    1.6775183096   -0.6008720563   -1.2372795006