17

 C    0.0193945748   -1.1825208504    0.0710585447
 C    0.0141937115    0.0197803151    0.0084934573
 C   -0.0744803097    1.4398905126   -0.0168185802
 C    0.2573842604    2.3030682440   -1.1814465943
 N    1.1247127505    2.4090845138   -0.0032301554
 C    0.3684216518    3.2670441075    0.9859386773
 C   -0.7897060343    2.2700663662    1.0375021998
 C   -2.2425141693    2.3643155171    1.2901426117
 N   -1.3284778865    1.7484375999    2.2777706394
 H    0.0476939398   -2.2434350229    0.1145334265
 H    0.7419514680    1.8253810082   -2.0272732343
 H   -0.4083051528    3.1270122009   -1.4337755346
 H    0.9116200194    3.3207037533    1.9307543947
 H    0.1623838046    4.2759451691    0.6140701741
 H   -2.6863691731    3.3043630196    1.6067455294
 H   -2.8991697733    1.7211329561    0.7088451979
 H   -1.3851512117    0.7320121598    2.2312383059