20

 C   -0.0032640469    1.3730814720   -0.0639587132
 O    0.0099653953   -0.0345442057    0.0203336454
 C   -1.2743133157   -0.6008418202    0.0036471138
 C   -1.1427583935   -2.1334873721    0.0528229325
 C   -0.3476022428   -2.5880977631    1.2924491748
 C   -2.5653700127   -2.7656461591    0.0567167011
 O   -2.5413099170   -4.1728880618    0.0263645011
 C   -0.4714519771   -2.6057605916   -1.1695601413
 N   -0.0062656831   -3.0360585086   -2.1368333613
 H    1.0361295215    1.7072397367   -0.0491566828
 H   -0.4770803676    1.7190598847   -0.9951438525
 H   -0.5372292091    1.8259544371    0.7858215160
 H   -1.8632041421   -0.2700075008    0.8769078259
 H   -1.8242788948   -0.2976122790   -0.9023860208
 H   -0.8380553249   -2.2066462396    2.1940119311
 H   -0.3269652727   -3.6778098170    1.3442020027
 H    0.6713260906   -2.2014808104    1.2624291251
 H   -3.0610968497   -2.4863212852    0.9919904981
 H   -3.1506784599   -2.3493802946   -0.7767632696
 H   -2.1769907377   -4.4469818517   -0.8239076060