18

 C   -0.1372391902    1.5112794405   -0.0449167353
 C    0.0198604921    0.0116583111    0.1490105966
 O    0.5730754844   -0.5012289981   -1.0832607139
 C    0.9236278315   -1.8146790906   -1.1764230551
 N    0.9372038919   -2.4574362372   -2.2618495430
 O    1.3111612852   -2.4377725023   -0.0425636903
 C    1.5859095913   -1.6937247591    1.1228717711
 C    2.4094148621   -0.4363663223    1.0840629915
 C    0.9080601356   -0.3779313475    1.3088783274
 H    0.8387152561    1.9828396105   -0.1887312045
 H   -0.7596214970    1.7197416956   -0.9188408847
 H   -0.6123236695    1.9544453478    0.8353525131
 H   -0.9690056686   -0.4484069793    0.2913297817
 H    0.5657558292   -1.8687758658   -3.0043873964
 H    1.7033709111   -2.3850009178    1.9474894464
 H    3.0636771677   -0.2403161366    1.9257978819
 H    2.7893580096   -0.1069774593    0.1238525651
 H    0.5302270277   -0.1137074996    2.2913356086