18

 C    0.1739804290    1.6203777098   -0.1466078184
 C   -0.0942803314    0.1249165478    0.0968754705
 C    0.6687143269   -0.4416690587    1.2589565171
 C    0.1385801901   -0.8115951598    2.4819553008
 N   -1.1709379878   -0.8087524651    3.0241940305
 N    1.1717350773   -1.2659613357    3.2686472090
 C    2.3519363329   -1.1972537629    2.5787196083
 C    2.0732882235   -0.6887571832    1.3314198925
 H    1.2362712195    1.8008676905   -0.3390160626
 H   -0.3935297164    1.9903113861   -1.0072931945
 H   -0.1055746784    2.2161885598    0.7284898798
 H   -1.1681677461   -0.0250332627    0.2651761738
 H    0.1497772368   -0.4320859131   -0.8170246697
 H   -1.7861607596   -1.4502242928    2.5335641596
 H   -1.5969948246    0.1102962086    2.9743235894
 H    1.0397387557   -1.5904820069    4.2109589348
 H    3.2805781059   -1.5145643709    3.0249051003
 H    2.7949101267   -0.5158547109    0.5463566090