15

 C   -0.0005487389    1.5224563634    0.0531091669
 C   -0.0447534064    0.0309666057    0.0014192985
 C    0.0843966857   -1.0219106479    1.0846136401
 C   -0.4313434127   -2.1028288672    0.0567028903
 C    1.0045520249   -2.0848029071   -0.4862610236
 N    1.2261195380   -0.7523340197    0.1945330636
 C   -1.0425412427   -0.8800618027   -0.6621052056
 O   -2.0482677562   -0.6902726498   -1.2855969021
 H    0.6738397576    1.8616524976    0.8434291830
 H    0.3605342297    1.9300016296   -0.8963725115
 H   -0.9994619033    1.9279698366    0.2384839809
 H    0.0599919790   -0.9145817881    2.1602688359
 H   -1.0185261889   -2.9985742277    0.2382200409
 H    1.6701471856   -2.8135642430   -0.0181545932
 H    1.1471873185   -2.0856128797   -1.5727660840