20

 C   -0.1889317109    1.5351922669    0.0971232079
 N   -0.0813666339    0.0935137355    0.1720165969
 C   -1.3366720011   -0.6508037017    0.0357896229
 C   -1.1010308865   -1.8744792994    0.8712947661
 C    0.0134983064   -1.7728952914    1.5944799225
 C    0.5664392243   -2.7283104966    2.6017754225
 C    0.6847825524   -0.4386138024    1.2928508179
 C    2.1489993711   -0.6452073660    0.9028300486
 O    3.0639746548   -0.6827738427    1.6836849772
 H    0.8068504277    1.9897609809    0.1167953362
 H   -0.6638780840    1.8234622268   -0.8462256345
 H   -0.7794706715    1.9754869814    0.9227844520
 H   -2.2077285638   -0.0817183944    0.4152673595
 H   -1.5506830218   -0.8768374507   -1.0191937059
 H   -1.7950136376   -2.7061783396    0.9038988852
 H   -0.0460137743   -3.6312838674    2.6639332525
 H    1.5946844342   -3.0205225995    2.3626123502
 H    0.6034227643   -2.2694730477    3.5977109792
 H    0.6758511300    0.2019629865    2.1948216593
 H    2.2870710000   -0.7905488185   -0.1927298362