19

 C    0.4480253379    1.2943450195    0.0131815607
 C    0.2360500800   -0.1454062276   -0.0046255640
 C    0.0560559586   -1.3372734934   -0.0126402560
 C   -0.1528398035   -2.7899084651   -0.0379666868
 C   -1.6447216037   -3.1414893394   -0.0771451110
 O    0.5479738408   -3.3842638487   -1.1357343106
 C    0.5101269491   -3.3656345153    1.2533005364
 C    2.0027954491   -3.5972720789    1.1909977435
 O   -0.1544881061   -3.5875547033    2.2342653840
 H    1.3674255021    1.5667043421   -0.5162468202
 H   -0.3828794424    1.8257909791   -0.4631996094
 H    0.5342214187    1.6644081748    1.0405748174
 H   -2.1153222714   -2.6786491051   -0.9490337846
 H   -1.7583119899   -4.2264303718   -0.1429866672
 H   -2.1418838986   -2.7899214473    0.8278285005
 H    0.3665489908   -2.8507413933   -1.9165959386
 H    2.2139023093   -4.4289408789    0.5124125413
 H    2.5106713126   -2.7208135741    0.7789233019
 H    2.3750278567   -3.8259002732    2.1901879725