21

 C    0.3846025682    1.2493649191   -0.4396960869
 C   -0.1691006868   -0.0253654299    0.1349878296
 C   -1.6707460675   -0.2155647235    0.2950215294
 C   -1.8423797504   -1.4758725144    1.1871640985
 C   -2.1665454969   -2.7202715823    0.3606316456
 O   -2.3681623007   -3.8026717014    1.2625358811
 C   -0.5014843611   -1.6217564517    1.9608373520
 C    0.5122182824   -0.8758268565    1.1219344863
 O    0.4915907634   -1.2421282575   -0.2706301942
 H    1.4770638717    1.2230754788   -0.4529696919
 H    0.0363584517    1.3953054900   -1.4683750459
 H    0.0610789389    2.1151453762    0.1480505918
 H   -2.0921843421    0.6718908291    0.7816888598
 H   -2.1738912429   -0.3180067136   -0.6737096321
 H   -2.6698850988   -1.3409124233    1.8900193857
 H   -3.0760524884   -2.5333961259   -0.2338119003
 H   -1.3414739673   -2.9222797504   -0.3340922668
 H   -2.3968451359   -4.6161051260    0.7513697926
 H   -0.5587556758   -1.1523538507    2.9502031130
 H   -0.2455097388   -2.6734651735    2.1154256617
 H    1.4970031771   -0.6358737325    1.5181076510