14

 N   -0.0859261312    1.4759415520   -0.1957314815
 C   -0.0090431423    0.0836662603   -0.0557669279
 C   -0.2919115593   -0.8446478033   -1.2269575104
 C   -1.1237306884   -0.9966221813    0.0051763680
 O   -0.3703457392   -1.7442309461    0.9928491136
 C    0.5947979895   -0.7312654631    1.0549447102
 N    1.5537201174   -0.5632306786    1.8370942921
 C   -2.5327783114   -0.8997254489    0.1347738663
 N   -3.6822015430   -0.8064552840    0.2324565730
 H   -0.0421413975    1.9495427947    0.6993147398
 H    0.6452436872    1.8407612565   -0.7954475517
 H   -0.7783538237   -0.3396118079   -2.0554241581
 H    0.3913338286   -1.6462816757   -1.4886552061
 H    1.6346346036   -1.3205419045    2.5169834528