15

 C    0.1102509706    1.5008766291    0.1286794838
 C    0.1249140434   -0.0175104207   -0.0370108176
 C    0.8016795260   -0.4793005149   -1.3021399973
 O    1.2942277425    0.2555401089   -2.1243410765
 C    0.8603869133   -2.0096787406   -1.6002094408
 O    1.4515336315   -2.2383178287   -2.8391589834
 C    1.5835676606   -2.6928983361   -0.5077051517
 N    2.1395651842   -3.2098713044    0.3634894948
 H    1.1270950729    1.8997365780    0.1560951723
 H   -0.4102999983    1.9818989850   -0.7030812972
 H   -0.3937867631    1.7753154124    1.0585005524
 H    0.6272915173   -0.5106338391    0.8054945893
 H   -0.8933660364   -0.4317070277   -0.0395698834
 H   -0.1739099417   -2.3883725234   -1.5934397823
 H    1.7776172972   -1.3664752077   -3.1253551023