19

 C   -0.0318331791    1.4522899116    0.0370066149
 N    0.0158857382    0.0009379452    0.0142161028
 C    0.5127613764   -0.4998344387   -1.2637959246
 C    0.6534126197   -2.0152597768   -1.2874547238
 N    1.8738118827   -2.5526301885   -0.6890047509
 C    0.5702064321   -2.7930023797   -0.0138201219
 C    0.4089225914   -2.0394447040    1.2675357600
 O    0.0264591266   -2.5687085905    2.2846105413
 C    0.7304173231   -0.5527155241    1.1660831272
 H    0.9654284824    1.9245814277   -0.0495729087
 H   -0.6471978207    1.8126901890   -0.7941355813
 H   -0.4889231825    1.7930409762    0.9708105384
 H   -0.1964660977   -0.1904842796   -2.0402535536
 H    1.4952555939   -0.0613449138   -1.5252909878
 H    0.2707638428   -2.5087123614   -2.1771351600
 H    2.1637040210   -3.4057576468   -1.1598044967
 H    0.1533978146   -3.7955412725   -0.0157746575
 H    1.8266169197   -0.4116721002    1.1058636983
 H    0.3711609055   -0.0742927830    2.0797447836