23

 C   -0.2319917415    1.4957903219   -0.0017246787
 C   -0.0113989742   -0.0135530105    0.0533782403
 C    1.0890081344   -0.5251496416   -0.9246441496
 C    2.0903165657   -0.5711881014    0.2593500464
 C    0.8805044908   -0.5285694523    1.2382481323
 C    0.9941095933    0.2645843787    2.5109898317
 C   -0.0198413825    0.0752273105    3.6284215772
 C    1.3819699673   -0.4133981661    3.8093923096
 O    1.5440108036   -1.8036617505    3.8540245529
 H    0.7131951510    2.0490225214    0.0397475953
 H   -0.7330099122    1.7759911677   -0.9348636208
 H   -0.8550124519    1.8397736323    0.8303850140
 H   -0.9784600985   -0.5192269508   -0.0318557034
 H    0.8657478147   -1.5229144444   -1.3122728542
 H    1.3380848149    0.1254684449   -1.7676361123
 H    2.7625336841   -1.4315113677    0.3241118128
 H    2.6959355973    0.3387551668    0.3210277287
 H    0.5822384871   -1.5509248065    1.4886330761
 H    1.3777779272    1.2748317478    2.3903879814
 H   -0.3541544209    0.9369232662    4.1952023664
 H   -0.7721336428   -0.6926423039    3.4811828526
 H    2.0277357091    0.1397095397    4.4915763930
 H    2.3958616438   -2.0145695524    3.4567642485