23

 C   -0.3149738949    1.7242795488    0.2122053111
 C    0.1040258659    0.2613118874    0.0436413002
 C   -1.1628821752   -0.6333513640   -0.1137120326
 C   -1.9638036536   -0.3433983097   -1.2972078769
 C   -2.6155382760   -0.0980280661   -2.2778785778
 C    1.0815498959    0.0483603255   -1.1344178914
 C    1.8084858975   -1.2820703856   -0.8389232676
 C    1.7427715213   -1.4659444619    0.7063606888
 C    0.9373528642   -0.2575147758    1.2395314221
 H    0.5641510841    2.3683903139    0.3185269288
 H   -0.8914361321    2.0734699239   -0.6497316622
 H   -0.9375642777    1.8582305701    1.1046059073
 H   -0.8714665512   -1.6905169596   -0.1345790269
 H   -1.7866902906   -0.5114033974    0.7816364864
 H   -3.1985268633    0.1131346484   -3.1397134407
 H    0.5737354944    0.0549267458   -2.1027666380
 H    1.8009300713    0.8758991686   -1.1422284707
 H    1.3112691134   -2.1147682766   -1.3460000577
 H    2.8368878363   -1.2686770325   -1.2096617500
 H    1.2506163951   -2.4092629135    0.9623945786
 H    2.7375306529   -1.5092413418    1.1580625260
 H    1.6205846430    0.5384013813    1.5578614905
 H    0.3176085193   -0.5069051291    2.1076713026