21

 C    0.2580698494    1.5554426305   -0.1192725537
 C    0.1740082082    0.0263301014   -0.0486701391
 C    0.6844498993   -0.5333857543    1.2680428183
 C    0.8382794001   -2.0855289981    1.5226348137
 C    2.2277763544   -2.8049237521    1.2461617381
 C    3.3498958685   -2.2202297388    0.3679693812
 C    3.0492705187   -0.7338259113    0.5496033302
 C    2.1959380155   -0.5727116032    1.5814703934
 C    2.0448051559   -1.8758027422    2.3877077527
 H    1.2931388192    1.8996408782   -0.0230094317
 H   -0.1356449116    1.9329902110   -1.0678816796
 H   -0.3177229780    2.0194589061    0.6893633181
 H   -0.8708988906   -0.2882608498   -0.1720311003
 H    0.7350349822   -0.4193904681   -0.8782589266
 H    0.0723871307   -0.1507635700    2.0972818708
 H   -0.0096575597   -2.7274151106    1.7546542353
 H    2.1677435623   -3.8813549825    1.4008942562
 H    4.3287992376   -2.5926673833    0.7042027649
 H    3.2695361011   -2.4593267014   -0.6999377851
 H    3.0547725027   -0.0759559666   -0.3146128128
 H    2.1849262440   -2.0255426446    3.4501020563