15

 O    0.0915650157    1.3884022350    0.1869107493
 C    0.0597392499    0.0374377268    0.0150965149
 C    0.0504730022   -0.7338770150   -1.1384725894
 C    0.0611157111   -0.7747395871   -2.5894602260
 C    0.0322614477   -2.0609281861   -2.9870661465
 C   -0.0005689241   -2.9911935379   -1.7891942520
 N    0.0147573853   -2.0305861419   -0.7012588362
 N    0.0000268927   -2.1656235730    0.6229368003
 C    0.0278629405   -0.9024754192    1.0714970266
 H    0.1100542553    1.8167395458   -0.6736806430
 H    0.0879073383    0.0906880314   -3.2372172450
 H    0.0314553833   -2.4243560596   -4.0045437089
 H   -0.9026678694   -3.6149734637   -1.7605996602
 H    0.8686153853   -3.6593271082   -1.7464926054
 H    0.0241907962   -0.6965308475    2.1310043415