21

 C   -0.0805682712    1.6579216021    0.0395017639
 C   -0.0952818514    0.1260167013    0.0211993575
 C    0.7129736322   -0.5170588527    1.1717749269
 C    0.1116781525   -0.2128020096    2.5273241802
 C   -0.3399878549   -1.2947137756    3.1714199219
 C   -0.0817835486   -2.5081849384    2.3649566753
 O   -0.4507282783   -3.6373863811    2.5958745165
 C    0.7733857248   -2.0738604343    1.1583945184
 C    0.4009784834   -2.8239928146   -0.1203265028
 H    0.9444839363    2.0448718143    0.0154976411
 H   -0.6071276521    2.0610898289   -0.8306739173
 H   -0.5678452935    2.0628453702    0.9320043498
 H   -1.1306714624   -0.2331986440    0.0593563544
 H    0.3196960429   -0.2234886644   -0.9304031606
 H    1.7264633574   -0.0950750412    1.1203372718
 H    0.0427632431    0.8028924681    2.9028133383
 H   -0.8422384317   -1.3252505667    4.1300005990
 H    1.7976527902   -2.3643946229    1.4315737737
 H   -0.5988952250   -2.5574983274   -0.4741558612
 H    1.1122975309   -2.6272735265   -0.9279094394
 H    0.4003739954   -3.8969575555    0.0883777029