14

 C   -0.0150032576    1.5440438684    0.0404229689
 C   -0.0141662287    0.0067446580   -0.0272188011
 C    0.7459416958   -0.5064566507   -1.2315866136
 N    2.0191958104   -0.6974176805   -1.2808875672
 O    2.6310572054   -0.3757424999   -0.0692394583
 C    0.0210587059   -0.7814976723   -2.4277935715
 C   -0.6606031519   -0.9889846874   -3.3983257020
 H    1.0057341788    1.9254099406    0.1225802044
 H   -0.4730665166    1.9768923120   -0.8540031301
 H   -0.5814089254    1.8864631112    0.9114682924
 H    0.4497877295   -0.4020028127    0.8741655139
 H   -1.0406505803   -0.3658951987   -0.0800944316
 H    3.5537064739   -0.5896431679   -0.2453665573
 H   -1.2405239792   -1.1789710002   -4.2675215070