17

 O    0.0834698152    1.3789534964    0.2356685058
 C   -0.0160285612   -0.0089877118    0.0498571577
 C   -1.4621050640   -0.5419276804   -0.1081752979
 C   -1.1531089241   -1.9423968224   -0.7009844737
 C   -0.4220105737   -1.3913146500   -1.9489892100
 C   -1.4398061705   -0.3451168422   -2.4192652957
 C   -2.0456065416    0.1529150674   -1.3366226748
 C    0.6143720946   -0.4660721647   -1.2878894048
 O    1.6592953632   -0.0525735878   -1.7217511326
 H    0.9005293404    1.6526792325   -0.2029253514
 H    0.4900885410   -0.5522642383    0.8668527378
 H   -2.0589663633   -0.5097792685    0.8024898515
 H   -0.5204741884   -2.5605900356   -0.0549301767
 H   -2.0580378235   -2.4931767904   -0.9658630580
 H   -0.0296941972   -2.0773345701   -2.6964678226
 H   -1.5195539738   -0.0056881200   -3.4432247112
 H   -2.7533718529    0.9698021458   -1.3003758235