23

 C   -0.1217587580    1.5998090420   -0.1801590669
 C    0.0551882768    0.0886660814    0.0101296406
 C   -1.2786982856   -0.6197110192    0.1437869660
 O   -2.0907506820   -0.5245569066   -1.0547178226
 C   -2.4799840781   -1.9070957432   -0.9554365705
 C   -1.4085431427   -2.1670362849    0.1391908280
 C   -0.1932743129   -2.9533346298   -0.3381056212
 O   -1.8909883568   -2.6057950934    1.3926415951
 C   -2.3731934967   -3.9317912114    1.4390097974
 H    0.8447802157    2.0982729538   -0.2989192575
 H   -0.7240642815    1.8047290295   -1.0696173898
 H   -0.6291174122    2.0500715504    0.6799793787
 H    0.6099607512   -0.3254844238   -0.8385950699
 H    0.6460303550   -0.1131632976    0.9129382687
 H   -1.8293625329   -0.2242405602    1.0102085733
 H   -3.5086624110   -2.0222508571   -0.5880668614
 H   -2.3686740692   -2.4330310728   -1.9107087950
 H    0.1949686065   -2.5325214927   -1.2690762312
 H    0.6018601289   -2.9331894793    0.4132497816
 H   -0.4521199129   -3.9979042244   -0.5369002450
 H   -2.8490046062   -4.0596578381    2.4143427641
 H   -3.1232417449   -4.1248586341    0.6573113165
 H   -1.5727611006   -4.6782494585    1.3428648509