17

 O    0.1869042064    1.4227157349   -0.0851094081
 C    0.0718143809    0.0146259383    0.0584142632
 C    0.5229455089   -0.3716344207    1.4784095865
 O   -0.6611594791   -0.5619999319    2.2619397257
 C   -1.7118345309   -0.9187721400    1.4047409914
 C   -2.4631269507    0.2323202354    0.7637082299
 C   -2.3169004550    1.6304510282    1.2635472900
 O   -3.1163959048    2.4975944150    0.9988350484
 C   -1.3572999212   -0.5307773937    0.0093012198
 H   -0.2251158567    1.6804010850   -0.9167627893
 H    0.6877056499   -0.4934152642   -0.6961562770
 H    1.1045405983   -1.3033704084    1.4569968555
 H    1.1218220330    0.4187563300    1.9363333926
 H   -2.2306027960   -1.8335113094    1.6746359339
 H   -3.4628736373    0.0236956127    0.3950164972
 H   -1.4555214561    1.8168638058    1.9277492391
 H   -1.6714416695   -1.1126052171   -0.8485090288