18

 C   -0.0512333944    1.4262981433    0.1088810093
 N   -0.0088784012   -0.0125614229   -0.0551479360
 C    0.6296448870   -0.6023558458   -1.0890942297
 C    1.2286496275   -0.0591247369   -2.1724295641
 C    1.7302109803   -1.1350725089   -3.0203873506
 O    2.3163594600   -1.1069373567   -4.0668529159
 O    1.4180153889   -2.3477334641   -2.4062698331
 C    0.7331920187   -2.1131591164   -1.1825796682
 C    1.4929327190   -2.7658957646   -0.0283968091
 H    0.9509401150    1.8551561972    0.2423022272
 H   -0.5089702830    1.8952868533   -0.7691697391
 H   -0.6568194834    1.6714672475    0.9830280031
 H   -0.2699824043   -0.5836738555    0.7299385906
 H    1.3496481929    0.9809095796   -2.4287572002
 H   -0.2718444280   -2.5521820514   -1.2611691479
 H    2.4894655864   -2.3261357332    0.0659473569
 H    0.9604771949   -2.6395576778    0.9207297523
 H    1.5991574837   -3.8369934167   -0.2158215557