19

 C    0.2100762523    1.3447583246    0.1744833528
 O   -0.3701456388    0.2098608044   -0.4317309901
 C    0.5211697424   -0.5126859638   -1.2233251440
 C    1.5414186631   -1.4684640513   -0.5580531836
 O    1.0931599350   -2.5542337603   -1.4044085538
 C   -0.0627558994   -1.8069211191   -1.8356467020
 C   -1.3428722329   -2.3114202525   -1.2127127018
 C   -1.4633869673   -3.7132879423   -0.7934847384
 O   -1.2899960904   -2.6642201907    0.1646714806
 H    1.0167146464    1.0709477176    0.8704761408
 H    0.6202325314    2.0385072693   -0.5761290560
 H   -0.5790902787    1.8512607449    0.7340274031
 H    0.9919793355    0.1373897441   -1.9757689466
 H    2.6067315915   -1.2589977139   -0.6988020339
 H    1.3208512687   -1.6605448991    0.4979727271
 H   -0.1657278059   -1.8132612724   -2.9287246055
 H   -2.2401714935   -1.7688374159   -1.5127541779
 H   -2.4415623114   -4.1915930360   -0.7913288996
 H   -0.6048541580   -4.3694793876   -0.9118372212