16

 O   -0.1639379470    0.0386292624    0.3013946218
 C   -0.1153473769    1.2106424931    0.1257373871
 N   -1.1411499821    2.2339080259    0.1086267408
 C   -0.2707394833    3.0626694315   -0.7692086006
 C    0.7728048244    4.2570075248   -0.7611731676
 C    1.0648489420    4.6024001146    0.6937541239
 C    1.2192227001    3.1412876753    1.1949144561
 C    0.9048623237    2.4067052182   -0.1361221018
 O    1.7825467559    3.1913447930   -1.0658982604
 H   -2.0935791291    1.9794869000   -0.1287077212
 H   -0.3578195391    2.7553539950   -1.8142153245
 H    0.7471693122    5.0284878356   -1.5303909756
 H    1.9774546880    5.1931618493    0.7922389080
 H    0.2414797866    5.1429262709    1.1677559189
 H    2.2408823438    2.8982553410    1.4949457394
 H    0.5396999709    2.8806782394    2.0064505255