17

 O   -0.2645367978    0.2665017146    0.5152875319
 C    0.3711351421    0.6714468987   -0.4254587978
 C    1.3908834917    1.7642995175   -0.2732283767
 O    2.3029043844    1.9597454136   -1.3634800136
 C    1.4036739429    3.0167520200   -1.0676207697
 C    0.3905157201    3.3959192492   -2.1155769962
 C    0.9736907657    3.7278304579   -3.5140840890
 C    0.1999878720    2.4764373058   -3.9712459599
 O   -0.3471017984    2.2793077733   -2.6448618471
 H    0.2792765364    0.2557182025   -1.4435337662
 H    1.8348170714    1.8047708360    0.7218697627
 H    1.8693356624    3.8823366403   -0.5874536501
 H   -0.2803206967    4.1572220094   -1.6950245522
 H    0.6306241348    4.6702427694   -3.9412274254
 H    2.0595566020    3.6618307758   -3.5864720227
 H   -0.5915693924    2.6412559609   -4.7097693877
 H    0.8181675496    1.6273359153   -4.2814378404