23

 C   -0.2308050737    1.5641272308    0.0287963578
 C    0.0053767562    0.0479829289   -0.0454595460
 C    0.7669617877   -0.3787956543   -1.3155564000
 C    2.2860847588   -0.2614393383   -1.1211255117
 C    2.6866401187   -0.7360223059    0.2742121942
 C    1.7176171392   -1.6846708964    1.0647672535
 C    2.4056892718   -1.1872768687    2.3624172989
 C    2.1828193573    0.0836623222    1.5019623582
 C    0.7485392865   -0.4589375793    1.1945898385
 H    0.7120928400    2.1201302730   -0.0133281083
 H   -0.8557829372    1.9053508308   -0.8032515247
 H   -0.7339130162    1.8422274766    0.9615040138
 H   -0.9799218416   -0.4367714427   -0.0637672116
 H    0.5293476802   -1.4289107750   -1.5233072766
 H    0.4314165064    0.1940658436   -2.1871801664
 H    2.8044630170   -0.8513564722   -1.8857150496
 H    2.6234424893    0.7747375944   -1.2580569538
 H    3.7434775533   -1.0190037875    0.3292242115
 H    1.4501906889   -2.7145636783    0.8176242221
 H    1.8228472885   -1.2633051103    3.2849776805
 H    3.4435013277   -1.4972844875    2.5161069284
 H    2.4590526257    1.1089638321    1.7586196746
 H    0.0908951853   -0.4900842262    2.0711590967