18

 O   -0.8322881401    0.9820774706   -0.8897852109
 C    0.0623060119    0.9649274790   -0.0802733714
 C    1.2112928132    1.9294265550   -0.0354323924
 C    1.2402277229    3.1525662260   -0.9870943196
 N    1.4445227871    4.0845332875    0.1767439981
 C    0.2543618255    4.7623091977    0.7429777530
 C   -1.0130283252    3.9622261030    0.7142334907
 C    0.0285537696    3.6303421416    1.7548236520
 C    1.2712189370    2.9630551410    1.1522341199
 H    0.0845113718    0.1957508262    0.7261336078
 H    2.1340476267    1.3382077767   -0.0558630453
 H    2.0825811609    3.1801817056   -1.6821800072
 H    0.3135569857    3.3031820976   -1.5465460918
 H    0.2629058406    5.8377767366    0.8805524691
 H   -1.8699613931    4.4928977653    1.1186445388
 H   -1.2629351848    3.2837814510   -0.0921198401
 H   -0.1789106488    3.6880050252    2.8158670393
 H    2.0845559891    2.8156391544    1.8680717900