17

 C   -0.0391147317    1.4640945134    0.4003784601
 O    0.9729967244    2.0857169339   -0.4037454469
 C    1.8686503370    1.1036824127   -0.9184756197
 C    2.1192136680    1.1793552464   -2.4430234412
 C    1.9239092855   -0.2545152468   -2.9021300822
 C    1.4164186771   -1.0442285135   -1.9498025536
 C    1.1919199870   -0.2469034933   -0.7288363535
 O    1.1434789886   -0.7172698773    0.6179472112
 C   -0.0033611527   -0.0204058565    0.0909585157
 H    0.1513236420    1.6513818391    1.4664833421
 H   -1.0091636523    1.9011104102    0.1363777930
 H    2.8148688304    1.1421795534   -0.3616286721
 H    1.3813108697    1.8485436248   -2.9027737812
 H    3.1086707687    1.5724697220   -2.6975193132
 H    2.1418779615   -0.5701044669   -3.9165321847
 H    1.1602730908   -2.0918229107   -2.0414357765
 H   -0.9162300440   -0.6043292211    0.0166676826