20

 C   -0.0336458265    1.3293882376    0.0095593247
 O    0.1259453908   -0.0892978491   -0.0106403292
 C    0.6063677271   -0.6170731413    1.1492821187
 O    0.8881658699    0.0409911986    2.1300563597
 N    0.7237688855   -1.9637197135    1.0539932571
 C    0.4051973151   -2.7718764524   -0.1251051639
 C    0.5044266441   -4.2109902679    0.4044100971
 C    1.5624965598   -4.1083835840    1.5172169305
 C    1.2608588485   -2.7499085829    2.1657281641
 H    0.9251032071    1.8287716166    0.1734380879
 H   -0.4363234260    1.5956818024   -0.9686438885
 H   -0.7237226102    1.6346602126    0.8005521578
 H   -0.5860501127   -2.5255879479   -0.5138831008
 H    1.1285780531   -2.5898833145   -0.9312630614
 H   -0.4575834394   -4.5186720315    0.8287877704
 H    0.7665612660   -4.9253318634   -0.3792782671
 H    1.5174685292   -4.9319788514    2.2331212843
 H    2.5671483371   -4.0994608168    1.0802601932
 H    2.1403741358   -2.2600094518    2.5904356066
 H    0.5184828858   -2.8423684796    2.9698367987