18

 C    0.1267219033    1.5152321664   -0.0563228536
 C    0.0126001385    0.0305016255    0.0578040708
 C    0.3661268606   -1.0941714635   -0.8679767972
 C    0.8519245352   -1.0259609322    0.7146710528
 C   -0.3108895939   -1.8361178596    1.2107493166
 C   -0.5348846780   -3.1258102416    0.8882195585
 C   -1.2550641112   -3.0713109015   -0.4656233062
 N   -1.0076541472   -1.6508242475   -0.9373588665
 C   -1.2052977678   -0.8987462588    0.3380321372
 H    1.1433701733    1.8090878639   -0.3384085092
 H   -0.5583387478    1.9057943288   -0.8166489953
 H   -0.1073576304    2.0050392946    0.8954958503
 H    1.0923002239   -1.1657451529   -1.6686766773
 H    1.9127443432   -1.0384697850    0.9338973523
 H    0.1598894988   -3.9291391634    1.1146972353
 H   -0.8270589872   -3.8209588337   -1.1401898636
 H   -2.3437388261   -3.2047755883   -0.4704555447
 H   -2.2123054373   -0.6006850713    0.6302028998