16

 N    0.2784534312    1.2886408926    0.3873456354
 C    0.1391197542   -0.0604953933    0.1091486144
 N   -1.0610744599   -0.6114296543   -0.0491160705
 N   -0.7980577821   -1.9338880447   -0.2201569669
 C    0.5175938251   -2.2220298590   -0.1763408208
 C    1.1843773431   -1.0293233295    0.0282534227
 C    2.6626818518   -0.7770454345    0.1092636750
 C    3.0085304042   -0.1346820792    1.4418890938
 O    3.2743734093    1.0332268350    1.5759565889
 H    1.1856733157    1.6848381356    0.1938931989
 H   -0.4888802632    1.8590915306    0.0648983955
 H   -1.5665182142   -2.5650621497   -0.3599929072
 H    0.8894769645   -3.2270565224   -0.3047585081
 H    3.2053288031   -1.7248869970    0.0168231042
 H    3.0074196026   -0.1031425648   -0.6844788722
 H    2.9537707645   -0.8184825054    2.3177799470