21

 C    0.2580177987    1.7108401354   -0.0704174318
 C    1.7203509211    1.2564661717   -0.1383670364
 O    1.9851349534    0.4822951375    1.0410907564
 C    1.3372201921   -0.1589633173   -0.0614903327
 C   -0.1691807899    0.1989928909    0.0110671060
 C   -0.9304170152   -0.3107795435    1.2497831674
 C   -1.7184145015   -1.5715102170    0.7885766531
 C   -1.3767838103   -1.7536640081   -0.7103299559
 C   -0.9709153302   -0.3465851286   -1.1776317444
 H    0.0080067950    2.3417164906    0.7866632060
 H   -0.0892393941    2.1885888031   -0.9910328935
 H    2.5689932382    1.7375935289   -0.6105168724
 H    1.8085233649   -1.0490382768   -0.4660482916
 H   -0.2388045787   -0.5087348293    2.0724714788
 H   -1.6201777896    0.4633007998    1.6027127738
 H   -1.4629708614   -2.4590003652    1.3736500059
 H   -2.7940952479   -1.4140068939    0.9155001294
 H   -0.5277672147   -2.4381912819   -0.8246518756
 H   -2.2037058790   -2.1752521337   -1.2884309944
 H   -1.8623064283    0.2748534025   -1.3342801936
 H   -0.4033971327   -0.3430423052   -2.1146781046