20

 C   -0.0618600350    1.5050941856   -0.0603635109
 C    0.0114352439   -0.0220275112    0.0132686369
 C    0.7477491887   -0.5062886428    1.2533383974
 O    0.7672310509   -1.9231191948    1.2379209228
 C    1.3930145528   -2.5180957332    2.2864137633
 C    2.0181181967   -1.9394378556    3.3733872095
 N    2.4953468258   -2.9751338066    4.1534058311
 C    2.1841592214   -4.1761773776    3.5810024035
 C    1.4963435946   -3.9312543503    2.4152820298
 H    0.9378262676    1.9527068441   -0.0886896926
 H   -0.5952656127    1.8290654575   -0.9584520764
 H   -0.5868499503    1.9226727652    0.8059872511
 H   -0.9966833572   -0.4518637644    0.0164344412
 H    0.5191141290   -0.4219362390   -0.8718358272
 H    1.7789757812   -0.1182393861    1.2709180865
 H    0.2477781868   -0.1490864295    2.1680743451
 H    2.1635415981   -0.9119312272    3.6562990716
 H    2.9971588327   -2.8564615995    5.0143008344
 H    2.4736441518   -5.1058389245    4.0437224831
 H    1.1061408233   -4.6611750603    1.7245221198