19

 O    0.0261012041    0.0494413976   -0.4307243693
 C   -0.0085291724    1.2142419463   -0.0940769273
 C   -1.3151044337    1.9309359057    0.2099221163
 C   -1.2203175355    2.9098430334    1.3922985798
 C    0.0106104370    3.7733674556    1.2952299743
 C    1.1041910936    3.3817713414    0.6409225422
 C    1.2307478099    2.0598347810   -0.0151212724
 C    2.5475869226    1.2927950910    0.1156023879
 C    2.1982855205    1.8953142240   -1.1960407897
 H   -1.5613040382    2.5040339146   -0.6957596434
 H   -2.0969029145    1.1803379574    0.3458346997
 H   -2.1217870983    3.5315800985    1.4233658467
 H   -1.2120902885    2.3538229457    2.3412929069
 H   -0.0058373721    4.7388150123    1.7924956173
 H    1.9785583534    4.0277268154    0.5988623025
 H    3.3201884557    1.7578565757    0.7174180532
 H    2.4454455041    0.2189006582    0.2188058423
 H    1.8692232704    1.2302340150   -1.9860619574
 H    2.7182446520    2.7894491411   -1.5225569796