20

 C    0.0313460953    1.4816954472    0.0563126337
 C   -0.0103165710   -0.0327157015   -0.0507075384
 O   -1.3577816693   -0.4509929299    0.0538119451
 C   -1.5141269634   -1.8326089272   -0.0332474999
 C   -2.9909384400   -2.2141823111    0.0535408978
 O   -3.8703193737   -1.3900317601    0.0666676322
 C   -3.2620908063   -3.7132968100    0.1215955488
 C   -4.7402609591   -4.0651896271   -0.0301545470
 H    1.0619149297    1.8406063116   -0.0217758322
 H   -0.5592041116    1.9375681942   -0.7430152521
 H   -0.3807543280    1.8087453464    1.0148535249
 H    0.4172324841   -0.3668813714   -1.0116960802
 H    0.5949296568   -0.4958728174    0.7475283717
 H   -1.1188912331   -2.2320890265   -0.9870918252
 H   -0.9630769133   -2.3631462151    0.7658175430
 H   -2.6489408026   -4.2181797625   -0.6370252433
 H   -2.8739964037   -4.0705378853    1.0863951469
 H   -4.8939910516   -5.1432162621    0.0687267279
 H   -5.3378809185   -3.5550554665    0.7286127535
 H   -5.1189284507   -3.7509258956   -1.0065396875