16

 C    0.0007650145    1.4539237054    0.0201120396
 N   -0.0080628110    0.0116308900    0.0202716653
 C   -0.0596666439   -0.8242134335   -1.0850638089
 N   -0.0539233861   -2.1031589753   -0.8236346679
 C    0.0069170529   -2.1525622338    0.5638176881
 C    0.0486660328   -3.0426800855    1.6205479617
 N    0.1019038358   -2.2710361809    2.7588436059
 C    0.0963741060   -0.9130671628    2.4840360885
 C    0.0369413117   -0.8368997671    1.1112214739
 H    0.9142702131    1.8446334267    0.4835385209
 H   -0.0436767248    1.8118935261   -1.0109654521
 H   -0.8624118794    1.8553951104    0.5638245187
 H   -0.1013600535   -0.3953954832   -2.0782884844
 H    0.0455151865   -4.1180075192    1.6730673577
 H    0.1417242270   -2.6486668087    3.6890543529
 H    0.1348225786   -0.1822983984    3.2728872602