21

 O   -0.0873663436    1.3953492191    0.0306709973
 C    0.0296751853   -0.0232242702    0.0030587241
 C    0.7115723063   -0.5537664871   -1.2765120624
 C   -0.0456764705   -1.8492119942   -1.6124566039
 C   -1.5070367151   -1.5034652116   -1.2637106549
 C   -1.4051299171   -0.6365933729    0.0070217569
 C   -1.4589344921   -1.4137396839    1.3403131212
 O   -0.4612724971   -0.8427688038    2.1732092951
 C    0.6330349275   -0.5688373899    1.3189390131
 H    0.8006906864    1.7679028860    0.0178530859
 H    0.5566700441    0.1872296659   -2.0685976601
 H    1.7912751363   -0.6992489855   -1.1600097376
 H    0.0866142717   -2.1661015812   -2.6507258348
 H    0.3104030207   -2.6708583476   -0.9791442224
 H   -1.9513626625   -0.9211937774   -2.0783993639
 H   -2.1348415618   -2.3893501484   -1.1229351838
 H   -2.1321098535    0.1770440397    0.0164031861
 H   -2.4171720794   -1.3308591445    1.8590416861
 H   -1.2516440097   -2.4850486049    1.1699686868
 H    1.2153083278   -1.4872641398    1.1266124713
 H    1.2832653163    0.1587508921    1.8135103097