19

 O    0.0817768721    1.4922610972    0.0739144295
 C    0.0945384431    0.0691922932   -0.0279920624
 C   -1.3158500529   -0.5178295624    0.1102929127
 C   -1.3403986391   -2.0294335857   -0.2135682167
 C   -0.8674073548   -2.2618145606   -1.6718312646
 C    0.3164045157   -1.4075911159   -2.0409435976
 C    0.7511723236   -0.3842362359   -1.3069464941
 C   -0.5387561213   -2.7942406660    0.7419397388
 C    0.1164493162   -3.4222949284    1.5306452785
 H   -0.3684014027    1.8316043230   -0.7079743321
 H    0.7021423989   -0.2540898343    0.8264094830
 H   -1.7011533800   -0.3284963330    1.1154750911
 H   -1.9795157208   -0.0061847591   -0.5994524425
 H   -2.3766018328   -2.3807072132   -0.1311441798
 H   -0.6272381995   -3.3206895824   -1.8176189378
 H   -1.7017829667   -2.0469422373   -2.3551509547
 H    0.8298405185   -1.6659837247   -2.9644494521
 H    1.6238263760    0.1886223494   -1.6114477880
 H    0.6932124465   -3.9790044138    2.2270270389