19

 C   -0.0040938322    1.5215822998    0.1498213318
 C    0.1899212355    0.0021975136    0.1154925631
 C    0.7088238303   -0.5096459172   -1.2218084257
 C    0.9235754173   -2.0228927805   -1.3718307445
 O   -0.3568729341   -2.6574513084   -1.2547975813
 C    0.0121668882   -2.1131113720   -2.5190903056
 C   -0.2774039617   -0.5952909269   -2.4818432894
 C   -1.6625932479   -0.1934311807   -2.3472880059
 C   -2.8154338420    0.1337386153   -2.2437985857
 H    0.9385259194    2.0469568652   -0.0429899796
 H   -0.7294964311    1.8426421352   -0.6031973854
 H   -0.3713406385    1.8475010936    1.1278271035
 H    0.9038362092   -0.2953632168    0.8953202941
 H   -0.7516608542   -0.5061369085    0.3449109200
 H    1.6087245655    0.0379627821   -1.5224707798
 H    1.7937080701   -2.6153803924   -1.1132310632
 H   -0.0050415652   -2.7744463875   -3.3773427990
 H    0.1814338801   -0.0938364487   -3.3397242221
 H   -3.8347917288    0.4158806649   -2.1499875953