21

 C   -0.0115809542    1.5837962434    0.4363766980
 C   -0.0157292610    0.0998183433    0.1472064090
 C    1.1682822359   -0.5819369119   -0.5220407957
 O    2.3615961552    0.1313924902   -0.7303367758
 C    0.8712799656   -0.8603629999    0.9320882980
 O    1.7769705280   -0.3030806216    1.8410181141
 C    0.3416848391   -2.1914878359    1.3662663403
 C    1.2405915496   -3.1814015022    2.0636211763
 C    0.1398850966   -2.4905573569    2.8308680394
 H    0.9425701628    1.9032543750    0.8601768885
 H   -0.2079380127    2.1740735471   -0.4668651454
 H   -0.7889521489    1.8324817302    1.1654770134
 H   -0.9812135323   -0.3030640528   -0.1504402219
 H    0.9801500533   -1.3573540459   -1.2630841544
 H    2.1712475499    0.9117000780   -1.2611537077
 H    2.5217674564    0.0176008158    1.3126569412
 H   -0.3964839985   -2.6035064165    0.6838096955
 H    1.1289286934   -4.2331693365    1.8243465402
 H    2.2559594393   -2.8630480981    2.2682916581
 H    0.4372688845   -1.7245005661    3.5370145750
 H   -0.7330827419   -3.0651540488    3.1203371040