14

 O   -0.0273316254    0.0505295491    0.3897940100
 C   -0.0163594981    1.1951183362    0.0124197093
 C    1.2307119721    2.0066115133   -0.0779694548
 C    1.5578437727    2.9713248087   -1.1811228718
 C    0.3019479352    3.6400535653   -1.7618877250
 C    0.0349626713    4.1929960442   -0.3332505839
 O   -0.7291665043    5.0045833840    0.1001392018
 C    1.2594558383    3.5151224032    0.2276519138
 H   -0.9564651716    1.7124899830   -0.2751759886
 H    2.0905399535    1.4803686484    0.3271176945
 H    2.5231346159    2.9362535915   -1.6682847584
 H    0.5405910017    4.4741369224   -2.4286201221
 H   -0.4532114911    3.0118151867   -2.2386770178
 H    1.9122598798    3.8902258841    1.0058792031