17

 C   -0.0659523892    1.5330240236   -0.0080795409
 C    0.0833167909    0.0329477411    0.0053606204
 C   -0.7906109111   -0.8364274238    0.9342634007
 C    0.6969950379   -0.8188076229    1.0962651920
 N    1.3914887598   -1.9638091557    0.5254370461
 C    1.2715662754   -1.8938108570   -0.7523876590
 N    1.6966229596   -2.7948428601   -1.6715902992
 C    0.5130934399   -0.6692259298   -1.2401624659
 O    0.3774896265   -0.3468202085   -2.3972262508
 H    0.8630471406    2.0197013215   -0.3221852965
 H   -0.8519218443    1.8381361232   -0.7064068293
 H   -0.3264764953    1.9108527488    0.9846832158
 H   -1.4100231785   -0.2747821367    1.6273326403
 H   -1.2413502756   -1.7450292128    0.5480793110
 H    1.1499388412   -0.3798673431    1.9778771996
 H    2.3658763179   -3.4934176176   -1.3931821280
 H    1.7213490144   -2.4723960704   -2.6264137863