17

 O    0.0042271644   -0.0497614050   -0.0125652284
 C   -0.0613385260    1.1417425936    0.0443751718
 C   -1.3100813765    2.0196925494    0.1146731025
 C   -0.7848465479    3.4083917781    0.4668134036
 C   -0.7384059666    3.7518749938    1.9673431965
 O    0.4094906756    4.5664701024    2.1240234018
 C    1.4319136990    4.0072743804    1.3104347139
 C    0.7238493003    3.3299845367    0.1177453106
 O    1.0501328275    1.9331519106    0.0447739496
 H   -1.8003222186    1.9897632408   -0.8635560473
 H   -2.0112178402    1.6008910863    0.8401063072
 H   -1.2765188849    4.2103802331   -0.0855392042
 H   -1.6054159657    4.3172269859    2.3165912752
 H   -0.6577419664    2.8304283518    2.5696979654
 H    2.1028571459    4.8171525001    1.0142891346
 H    2.0100080742    3.2445963933    1.8517224432
 H    0.9810332959    3.7812182888   -0.8435198760