21

 C    0.0062165575    1.3832640274    0.2897478858
 N   -0.0023471357    0.0537412604   -0.2962568582
 C    1.2067850125   -0.7058942215   -0.0558232949
 C   -1.1974877177   -0.6703018400   -0.1699406301
 C   -1.3239329485   -2.0393871725   -0.0019049380
 N   -2.6695492079   -2.3527820756   -0.0037063196
 C   -3.2114068010   -3.6730522467    0.2173060098
 C   -3.3928313628   -1.2031416660   -0.1447437481
 C   -2.5234188004   -0.1421920539   -0.2523262781
 H    0.9264004688    1.8987167779   -0.0020276580
 H   -0.8348844927    1.9693692430   -0.0868336366
 H   -0.0505267189    1.3751637591    1.3929225468
 H    1.2898441943   -1.0804309267    0.9813936751
 H    1.2425352615   -1.5680275125   -0.7295548162
 H    2.0781631772   -0.0784789083   -0.2632663267
 H   -0.5840759686   -2.8124951459    0.1156849867
 H   -3.0822391865   -3.9988022393    1.2569149451
 H   -4.2787589709   -3.6662994633   -0.0130482148
 H   -2.7233211725   -4.4030817637   -0.4366064710
 H   -4.4712667101   -1.2305863138   -0.1593656976
 H   -2.8073385578    0.8873597019   -0.3992208414