19

 O    0.0135495744    1.3448371991   -0.0107999298
 C    0.0475352732   -0.0462668124   -0.0346536742
 C   -1.2867135665   -0.7954882006   -0.2134276851
 C   -0.3879488754   -1.9352506939   -0.7253802201
 C    0.6898777588   -2.2050093709    0.3700515226
 C    1.8547781552   -1.6311596332   -0.5086421056
 C    2.3061539404   -0.7379400360    0.6619455706
 C    0.8119235254   -0.7938672309    1.0753206971
 C    0.6782064168   -0.9046967392   -1.2242095793
 H    0.8906053268    1.6693574963    0.2206115759
 H   -1.9099367268   -0.9558840132    0.6726707984
 H   -1.8840524160   -0.3552256879   -1.0169530736
 H   -0.7592359954   -2.7684094543   -1.3190583663
 H    0.7549597752   -3.1119082511    0.9691981497
 H    2.5415142600   -2.2409622717   -1.0950896526
 H    2.9475419573   -1.2787485661    1.3639880179
 H    2.7583725843    0.2396730891    0.4481333941
 H    0.4863867877   -0.6137786008    2.1006799144
 H    0.7093724246   -0.4751318321   -2.2237496141