15

 O   -0.0319879424    0.0275307963    0.0455196640
 C   -0.0362258938    1.2151289851   -0.0053202240
 C   -1.1250386835    2.3265098796    0.0892995578
 C   -0.0136238248    3.1471425195    0.8173899503
 C    1.0458129076    2.3245792303    0.0077499800
 C    1.1525746306    2.9088400494   -1.4121566083
 O    2.2116378851    3.0809585125   -1.9713550169
 C   -0.1719279661    3.1844512933   -2.0167766258
 C   -1.2704779609    2.8679028801   -1.3120436490
 H   -2.0710693900    2.1123424812    0.5839954753
 H   -0.0292923969    4.2238981075    0.6401751779
 H    0.0351529081    2.9330698941    1.8869775917
 H    2.0323723696    2.1118837769    0.4162136505
 H   -0.1987783698    3.5899163206   -3.0213600184
 H   -2.2668557027    2.9656366738   -1.7301134349