19

 C    0.0201010393    1.4447211457   -0.0031716604
 N   -0.0604346447    0.0030921191    0.0072287697
 C   -0.0259104577   -0.8019292825   -1.1150176917
 C    0.0021614850   -2.1156041618   -0.6983972809
 N   -0.0632302548   -3.2800403807   -1.4972565431
 C   -0.0026054260   -2.1079354044    0.7291823676
 C   -0.0254791898   -3.3065322674    1.6210169610
 O    0.1278145940   -2.8801636979    2.9682715268
 C   -0.0326805802   -0.7883627905    1.1226107160
 H    1.0414104387    1.8008951436   -0.1894168308
 H   -0.6352449291    1.8539617194   -0.7781963384
 H   -0.3105394993    1.8313758536    0.9634023440
 H   -0.0342959670   -0.3751577418   -2.1056415700
 H    0.1183499377   -3.0763784556   -2.4727942575
 H    0.6051030210   -3.9815670782   -1.1967786990
 H   -0.9702078642   -3.8616331176    1.4886304185
 H    0.7826800251   -4.0079929540    1.3408676241
 H   -0.0147923129   -3.6418265368    3.5366727239
 H   -0.0329521551   -0.3635789420    2.1124911401