12

 O    0.1399405317    1.3483374781    0.0064812994
 C   -0.0104948527    0.0268210531    0.0009346631
 C   -1.1280829954   -0.7328517940    0.0032291113
 N   -0.6356398739   -2.0698165167   -0.0062239811
 C    0.7229875895   -2.1005517450   -0.0136334105
 O    1.5068627188   -3.0043900921   -0.0222565168
 O    1.1114729761   -0.7386592833   -0.0089974074
 C   -2.4857156131   -0.3946401150    0.0123312702
 C   -3.6637613233   -0.1391194054    0.0200762366
 H    1.0844751636    1.5480987843    0.0039698826
 H   -1.2009519558   -2.9003193400   -0.0069919219
 H   -4.6974366755    0.1033026160    0.0269426145