19

 C   -0.0577788099    1.6516299075   -0.1411323425
 C   -0.0227157272    0.1191706931   -0.0045425927
 O   -1.3599632909   -0.3557566565    0.1981513392
 C   -1.5101003071   -0.6782689713    1.5840918277
 C   -0.1001285616   -0.8487945559    2.1091213338
 C    0.7485191203   -0.4040466952    1.1933549838
 C    2.1764710994   -0.6575190359    0.8001150241
 C    1.9819801892   -0.8934574842   -0.6974403447
 C    0.7735329930   -0.5199617287   -1.1285774185
 H    0.9513373718    2.0675684759   -0.2215400000
 H   -0.6178618128    1.9345024250   -1.0378859484
 H   -0.5523974845    2.0973820905    0.7272390855
 H   -2.0766249799    0.1102853288    2.1079154831
 H   -2.0916989952   -1.6058973221    1.6691511074
 H    0.1291110951   -1.3553042035    3.0383812115
 H    2.8379207366    0.2031773468    0.9768929442
 H    2.6231218499   -1.5114184317    1.3203166969
 H    2.7703817126   -1.3039968334   -1.3191457952
 H    0.4205482412   -0.5679712793   -2.1522284154