17

 C    0.0037264213    1.5434863070   -0.0252760738
 C    0.0034239156    0.0249049288    0.0449875110
 O    0.0047474183   -0.5476592832    1.1205283711
 C    0.0011321888   -0.6989235700   -1.2400298039
 C    0.0000865332   -2.0661008526   -1.4055808845
 C    0.0022167465   -3.2098403309   -0.4601333844
 O   -0.0027074318   -2.3651561670   -2.7259219610
 C   -0.0034338158   -1.1889408668   -3.4233905598
 C   -0.0011360416   -0.1402458071   -2.5716338490
 H    0.8844395504    1.9054973202   -0.5672102285
 H   -0.8788131796    1.9059904473   -0.5639060425
 H    0.0057146510    1.9479397842    0.9871361441
 H   -0.8736407715   -3.8486823005   -0.6205770150
 H    0.8915038118   -3.8337253899   -0.6059380684
 H   -0.0081856744   -2.8264720320    0.5589988521
 H   -0.0058157267   -1.2840182541   -4.4961448720
 H   -0.0012314352    0.9033748067   -2.8427053155