13

 C   -0.0094004573    1.5119325376    0.0713134942
 C   -0.0205274230   -0.0057058131    0.0538308010
 O   -0.0432378943   -0.6801940777    1.0581887019
 C   -0.0012433816   -0.6365661903   -1.2780040686
 C    0.0229562617   -0.1444245316   -2.5243315576
 O    0.0319483777   -1.1705193952   -3.4213138224
 C    0.0123425677   -2.3501576799   -2.6917413297
 O    0.0135950681   -3.4394945939   -3.1548043389
 O   -0.0081159761   -2.0179396014   -1.3710566933
 H    0.8902971457    1.9001561372   -0.4179486401
 H   -0.8779322874    1.9146042823   -0.4606234783
 H   -0.0314277261    1.8483197729    1.1078890065
 H    0.0359350249    0.8579574631   -2.9161472845