16

 O   -0.1544715656   -0.0587531263    0.3752529220
 C   -0.0973137208    1.1180104855    0.0955700002
 N    1.0451799690    1.8138523037   -0.1788751346
 C    2.3479107378    1.2284798262   -0.1707145767
 C    3.3779497922    1.4651658735   -1.3345939680
 C    3.4569531863    3.0029288537   -1.3833992923
 C    3.5846455428    3.3052218367   -0.0876732048
 C    3.5644673225    1.9067781536    0.5583083952
 O    4.4142422609    1.1474706966   -0.3554317575
 H   -0.9922723326    1.7683907721    0.0319968897
 H    0.9711102342    2.7953726917   -0.4003749133
 H    2.2529927706    0.1749395361    0.0844087230
 H    3.4117083916    0.8767673402   -2.2497231743
 H    3.4221990596    3.6337802088   -2.2591727084
 H    3.6854849352    4.2570432652    0.4123543542
 H    3.7925121465    1.7783780828    1.6148709257