18

 C   -0.1078156355    1.5762445484    0.0065306059
 C   -0.0194804312    0.0774908499   -0.0300692048
 C    0.7482911199   -0.7308863069   -1.0811666842
 C   -0.2903227762   -1.8981643502   -0.9322746987
 N    0.2292455831   -3.1019783715   -0.2927380483
 C    0.6234075721   -2.9426829738    0.8990329512
 O    0.5919571595   -1.8062998378    1.6436131768
 C   -0.2750480579   -0.7784999938    1.1800975420
 C   -1.1355848440   -0.9976210180   -0.0101629235
 H    0.8614750038    2.0214894352    0.2612560842
 H   -0.4113528648    1.9771995384   -0.9672266340
 H   -0.8358001353    1.9192916576    0.7489385636
 H    0.6937335425   -0.2640515662   -2.0686216825
 H    1.7901391926   -0.9807274337   -0.8611234567
 H   -0.7747300005   -2.1702368922   -1.8690956754
 H    1.0646079183   -3.7564717538    1.4702789966
 H   -0.7079521122   -0.2708073201    2.0342988296
 H   -2.2154712443   -0.9184557516    0.0006099984