21

 O   -0.1125774414    1.4803410507    0.0593756583
 C    0.0242060357    0.0671560313    0.1327296222
 C   -1.3631866237   -0.5355293016   -0.0585273554
 C   -1.3742851715   -2.0640219078    0.0065870677
 O   -0.4576704838   -2.6325405545   -0.9150380645
 C   -1.2040608454   -2.6541968099    1.4333383007
 C   -2.7490175121   -2.7768189946    1.5407993623
 C   -2.8083984710   -2.6678468296   -0.0055463119
 O   -3.7903041712   -1.8696212454   -0.6228544606
 H    0.7623961317    1.8686910461    0.1492248234
 H    0.7046650758   -0.3126216348   -0.6423049097
 H    0.4408374199   -0.2400404980    1.1051549163
 H   -2.0399500668   -0.1209939323    0.6955751466
 H   -1.7635758526   -0.2116028085   -1.0269999392
 H   -0.6411659017   -2.2571103425   -1.7839947971
 H   -0.7113640070   -3.6273030419    1.3798299735
 H   -0.6953118484   -2.0361162669    2.1748614470
 H   -3.1573216959   -3.6782952190    2.0022639882
 H   -3.2004598466   -1.8984356552    2.0095530048
 H   -2.7503955457   -3.6657671538   -0.4633878635
 H   -4.6382098986   -2.3190151117   -0.5530886389