16

 C    0.1372007470    1.5278293443   -0.0465061974
 N    1.2824148147    0.6036508177    0.0752927097
 C   -0.0838552871    0.0666000660    0.0226903421
 C   -0.5921125176   -0.7002650175    1.2482661921
 C   -1.3597156948   -1.8804955628    0.6180971098
 O   -0.8200638955   -2.0393911836   -0.6903644046
 C   -0.5935177368   -0.7301478368   -1.1784446990
 H   -0.0432352968    2.1515997873    0.8253553763
 H   -0.0331451603    2.0286944138   -0.9978581994
 H    1.7406811320    0.4988726806   -0.8273611990
 H    0.2633306009   -1.0419765812    1.8357455791
 H   -1.2298290004   -0.0923850007    1.8954490274
 H   -1.2317781472   -2.8266722687    1.1485639829
 H   -2.4379889370   -1.6585451463    0.5599932734
 H   -1.5307590198   -0.2908799924   -1.5634691617
 H    0.1244052685   -0.7863737997   -2.0031290618