16

 C   -0.0275373182    1.4938970382    0.0841565368
 O    1.3283143085    1.9339710919   -0.0866404332
 C    2.0186605297    0.8882855091   -0.7459173240
 C    3.4534275219    0.5346435378   -0.3039990064
 C    3.4230266789   -0.9845016703   -0.4041203304
 C    2.1708933151   -1.4762637760   -0.4691855245
 C    1.2348658415   -0.3644549031   -0.4264057754
 C    0.0289462888   -0.0216591318    0.0237073960
 H   -0.3948796070    1.8677036850    1.0481679796
 H   -0.6721356935    1.9249330400   -0.7023711406
 H    2.0236875823    1.0658227837   -1.8370865311
 H    4.2338500319    0.9954061522   -0.9163725030
 H    3.6188549142    0.8499153506    0.7353463496
 H    4.3231817931   -1.5880677587   -0.3620898767
 H    1.9039885392   -2.5256359860   -0.4749012012
 H   -0.7708601166   -0.6613161527    0.3725279546