21

 O   -0.0021410563   -0.2080927262    0.1308062292
 C    0.0167481570    1.0001661805   -0.0247657988
 N   -1.1420221906    1.7546947537   -0.2956833384
 C   -1.6915428363    2.6916206239    0.7096397664
 C   -0.7287861371    3.7071414346    1.3291100091
 C   -0.0360156150    4.6729341262    0.3474819998
 C    1.3683633646    4.2461925743   -0.0990148412
 C    1.4292754759    2.9086900699   -0.8407255496
 N    1.1828633780    1.7309474637   -0.0035286527
 H   -1.8612201241    1.0789264930   -0.5284636326
 H   -2.4990036166    3.2379325266    0.2072553530
 H   -2.1548878123    2.1256626994    1.5327314485
 H   -1.3419779239    4.2859628470    2.0300874331
 H    0.0203294125    3.1923314734    1.9389578306
 H   -0.6726947990    4.8157433929   -0.5357835974
 H    0.0490294212    5.6579370863    0.8201322775
 H    1.7795466267    5.0181215261   -0.7622224529
 H    2.0325761072    4.1983355734    0.7736869530
 H    0.7062269809    2.9103135931   -1.6629304950
 H    2.4247061205    2.7901594965   -1.2825640875
 H    1.9774533966    1.1316523218    0.1613641359