23

 C    0.0293696577    1.5384989727    0.0381909026
 C    0.0528843357    0.0325379177   -0.0268780766
 C    0.0999519024   -0.5893475124   -1.2174601710
 C    0.0702315353   -2.0119536517   -1.5867061298
 C   -0.0172852140   -2.2299638382   -3.0849820719
 C    0.0871620097   -3.0838039139   -0.7759042576
 C    0.1912170662   -3.1602906326    0.7207848297
 C    0.8081758699   -1.9562438402    1.4355946793
 C    0.0089206877   -0.6521223121    1.3191678367
 H    0.9083579019    1.9255823316    0.5712039973
 H    0.0043818275    1.9934642873   -0.9551983403
 H   -0.8471394462    1.8925592179    0.5977617456
 H    0.1262957429    0.0687887875   -2.0854305168
 H   -0.9074044480   -1.7441157487   -3.5042763068
 H    0.8480530730   -1.7910469537   -3.5977372533
 H   -0.0582349579   -3.2915320912   -3.3395532195
 H    0.0172585138   -4.0565216521   -1.2604766574
 H   -0.8047747414   -3.3655640529    1.1441682456
 H    0.7862813165   -4.0496642615    0.9698331103
 H    0.9089417952   -2.2061611651    2.4983051544
 H    1.8231688771   -1.7885725316    1.0566696746
 H    0.3825430597    0.0538535319    2.0715194459
 H   -1.0398337751   -0.8368137885    1.5967966592