13

 C   -0.0341685128    1.5712135071    0.0074616007
 C    0.0531334056    0.0339329933   -0.0167645446
 C    0.7455981970   -0.4919500715   -1.2871204810
 O   -0.0523903707   -0.0867134489   -2.3831023966
 C    0.7451762972   -0.4793536164    1.1679693763
 N    1.3047222573   -0.8807079445    2.0961744754
 H    0.9657181316    2.0140276609    0.0377395095
 H   -0.5420116608    1.9124995571   -0.8958161989
 H   -0.5881494193    1.9168314854    0.8831818681
 H   -0.9629656412   -0.3801371650   -0.0116849501
 H    1.7627063660   -0.0755433713   -1.3437915237
 H    0.8323473104   -1.5864412424   -1.2292022806
 H    0.3872303296   -0.3539519239   -3.1953101944