18

 C   -0.0010580422    1.5262554743    0.2921085951
 C    1.3068644005    0.8450914110   -0.0252684758
 C    2.2598478452    0.4470972947    1.0990934356
 C    1.5603957675   -0.1607715022    2.3490669727
 N    0.6425690902   -1.2771679672    2.0451280924
 C   -0.0101766499   -1.0344856954    1.0003811696
 O   -0.8422550656   -1.8463799504    0.2628396492
 C   -0.8122380915   -0.8890633137   -0.8587743586
 C    0.0227023625    0.0525175072    0.0043571924
 H   -0.2186959994    1.8672165993    1.2985364587
 H   -0.4195320432    2.1525702439   -0.4897060505
 H    1.7616431580    1.0801277849   -0.9830543798
 H    2.9631535812   -0.2966984160    0.7048147324
 H    2.8547056662    1.3108509054    1.4181167406
 H    2.3325688439   -0.5362710036    3.0264856134
 H    1.0288818211    0.6246324825    2.9032111434
 H   -0.3230093745   -1.3393393829   -1.7267908529
 H   -1.8192424300   -0.5497079118   -1.1136975580