21

 C   -0.0786343940    1.5773755147    0.0298909601
 C    0.0652342654    0.0531401915   -0.0262517870
 C    0.7498503012   -0.4396653455   -1.3097091641
 C    1.0190206427   -1.9389739091   -1.2155368623
 O    1.9477329877   -2.2197335850   -0.1779683060
 C    1.5362685513   -1.8341552775    1.1163195043
 C    2.6705304822   -1.0640911129    1.8087208883
 O    2.0318598153    0.2004953668    1.5230730243
 C    0.7899397166   -0.4769826629    1.2059583689
 H    0.9060077072    2.0506451687    0.0760742532
 H   -0.6010993121    1.9503343402   -0.8569288118
 H   -0.6440126270    1.8922652439    0.9133063210
 H   -0.9391309809   -0.3964803078    0.0007889019
 H    0.1202621274   -0.2211856364   -2.1800736228
 H    1.7054577410    0.0780445714   -1.4524263402
 H    0.0754727198   -2.4899362306   -1.0573690649
 H    1.4786661969   -2.3242859972   -2.1299735160
 H    1.0848149463   -2.6817941374    1.6476318451
 H    2.7515034946   -1.2439958964    2.8891038382
 H    3.6507005924   -1.1574828554    1.3330232517
 H    0.1207256859   -0.4485081331    2.0798510081