15

 C    0.0344326456   -1.2228889301   -0.0267487331
 C    0.0148068956   -0.0219421820   -0.0290793715
 C    0.0091860877    1.4328634905    0.0175234974
 C   -0.1761567039    2.1346509733    1.4261874316
 N    1.1280401911    2.8580113166    1.3185253792
 C    2.1604504340    1.8103565498    1.2117024155
 C    1.3845152588    2.1495983246    0.0082732381
 C   -0.9072724103    1.9844339176   -0.9816085015
 N   -1.6250302470    2.4380587043   -1.7651345115
 H    0.0472122265   -2.2852283945   -0.0415163516
 H   -1.0099751808    2.8358223810    1.4318681597
 H   -0.2487110600    1.4488464192    2.2739195001
 H    3.1693372905    2.2048195401    1.2734975405
 H    2.0063516586    0.8539870163    1.7055354821
 H    1.7884933436    2.6509545033   -0.8636719349