19

 O   -0.1454203359    1.4522785247    0.0284762971
 C   -0.0012600505    0.0328071453   -0.0179613911
 C   -1.4165937122   -0.5365342762    0.0010417490
 O   -2.0784632043   -0.0885009434    1.1782388636
 C   -2.2287491006   -0.1743365294   -1.2764647859
 O   -3.1459863186   -1.2423485286   -1.4999904939
 C   -2.6135595563   -2.4015797051   -0.9194225876
 C   -1.2064897223   -2.7998730355   -1.2759691432
 C   -1.4948635653   -2.0512329849    0.0178826026
 H    0.7145361847    1.8477504506    0.1952078874
 H    0.5356244814   -0.2860593365   -0.9220139346
 H    0.5438816813   -0.3377887080    0.8611489616
 H   -1.8538738756    0.8474650697    1.2604368215
 H   -2.7993371237    0.7469902283   -1.1440965865
 H   -1.5642582013   -0.0486435525   -2.1433361876
 H   -3.3738448372   -3.1433858682   -0.7083998125
 H   -0.9447856825   -3.8477331952   -1.1768079089
 H   -0.7045661524   -2.2930749545   -2.0929701583
 H   -1.3539548387   -2.5371471507    0.9750767074