21

 C   -0.1536676192    1.5280578505    0.0324719626
 C    0.0536645868    0.0147781238    0.0475706092
 C    0.9736017856   -0.5421291915   -1.0950305614
 C    2.0115989025   -1.2952286106   -0.2442141190
 C    1.1125590285   -2.0012875568    0.8290480479
 C    0.8348504233   -0.5360127737    1.2660288690
 C    2.3191377202   -0.2606551075    0.8911944404
 C    3.1152705687   -2.0332244411   -0.9231295889
 O    3.2767838054   -2.0898363467   -2.1179133706
 H    0.7959830765    2.0712984174    0.0832305327
 H   -0.6614925446    1.8428759895   -0.8853061112
 H   -0.7683228999    1.8510768092    0.8799857657
 H   -0.9300328827   -0.4672276109    0.0060570191
 H    0.4497920866   -1.2058126407   -1.7869452791
 H    1.4358048983    0.2533247569   -1.6863447280
 H    0.2762113157   -2.6031566519    0.4615446363
 H    1.6954787730   -2.5652004872    1.5613222718
 H    0.4411657705   -0.2986818473    2.2554740110
 H    3.0194055971   -0.6488800741    1.6347116487
 H    2.6164607822    0.7450426460    0.5841191921
 H    3.8160051054   -2.5540890832   -0.2278440084