18

 C   -0.3794185865    1.5436701776   -0.0693475637
 C   -0.0432593609    0.0586578433   -0.0090490024
 C    1.1474494477   -0.6044493734   -0.7914222140
 C    2.1230292233   -0.0969448992    0.2978094644
 O    2.4931497766    1.2578467817    0.2519078216
 C    0.8676634345   -0.5879837740    1.0935497847
 C    0.9684799738   -1.8396134042    0.1587752994
 O   -0.0785460908   -2.7503499680    0.0119634144
 H    0.4943752926    2.1797960008    0.0453465996
 H   -0.8560754568    1.7772781641   -1.0285733758
 H   -1.1028260598    1.7918942150    0.7164966175
 H   -0.9898901783   -0.4818494938   -0.1450648754
 H    1.3173298358   -0.6148753223   -1.8691579828
 H    3.0150416528   -0.7249382042    0.4364464954
 H    2.9726843390    1.4594830429    1.0614696926
 H    0.7179108707   -0.5802868944    2.1752618990
 H    1.8648738068   -2.4496733195    0.2947473466
 H   -0.9067416206   -2.2748790125   -0.1079441811