21

 C   -0.1354294925    1.5707503581    0.0594609059
 C    0.0249868142    0.0483532493    0.0236181758
 C    0.7928811874   -0.4754501332   -1.2279190735
 C    1.4433498832   -1.7873013056   -0.7371158869
 C    2.8386734009   -2.2203340645   -1.1307867763
 C    3.5832338728   -2.4936416679   -0.0547309363
 C    2.8355603125   -2.2615096263    1.2536791737
 C    1.6278919937   -1.5189253437    0.7479761061
 C    0.8615870727   -0.5164142429    1.1657974316
 H    0.8417463110    2.0666715998    0.0664727775
 H   -0.6881018169    1.9287673296   -0.8159529707
 H   -0.6820780110    1.8939478093    0.9520576603
 H   -0.9826903991   -0.3975381417    0.0414594268
 H    0.1471216087   -0.6011607287   -2.1024507754
 H    1.5753996770    0.2482854784   -1.4874320753
 H    0.7413812791   -2.6215050761   -0.9114709054
 H    3.1606793131   -2.3485074202   -2.1585726482
 H    4.6002106837   -2.8703040779   -0.0767643088
 H    2.5841736904   -3.2217887873    1.7304083652
 H    3.4125920069   -1.6920851480    1.9912885332
 H    0.8417137021   -0.0953163306    2.1658752406