23

 C   -0.5046729064    1.6093164802    0.5084897710
 C   -0.4918763940    0.1247675747    0.8865472794
 C    0.8703544116   -0.5173554168    1.1667057663
 C    2.1113395765    0.1153240171    0.6425864930
 N    1.8098876033    0.1531848051    2.0841712180
 C    0.7782067476   -2.0202837987    1.3725452800
 C    0.0741244093   -2.4380252741    2.6496392833
 C    0.6839561507   -2.8774529700    0.1596207528
 N    1.8908687644   -2.9082568856    1.0040257690
 H   -0.0410728118    1.7884086222   -0.4659200392
 H   -1.5355847097    1.9705878048    0.4519586584
 H    0.0109188504    2.2340703294    1.2468228868
 H   -1.1187355169   -0.0165127725    1.7758691658
 H   -0.9762415968   -0.4496545479    0.0879386054
 H    2.9842235605   -0.4743214482    0.3755384255
 H    2.0159288097    1.0292198016    0.0642830717
 H    1.4650181256    1.0750354230    2.3420208423
 H   -0.9811245963   -2.1460917020    2.6498423022
 H    0.1312213535   -3.5224907754    2.7663104895
 H    0.5618994540   -1.9727178166    3.5119416090
 H    0.0863347761   -3.7855258344    0.1731478204
 H    0.7456302415   -2.3921222860   -0.8121003060
 H    2.6412748271   -2.3943759399    0.5527347956