15

 O    0.1039243023   -0.0036161129   -0.5261471025
 C    0.0510123499    1.1495732346   -0.1693829348
 C    1.2675605695    1.9873067582    0.0199244220
 C    1.2650164256    3.4900455595   -0.1202852194
 O    0.0251582403    4.0509518230    0.3197757972
 C    0.3224946381    3.6446414436    1.6972591765
 C   -0.7492466097    2.9522089727    2.3858755807
 C   -1.6269164844    2.3895498924    2.9838372854
 C    1.5716908886    2.8960429440    1.2192952022
 H   -0.9136277861    1.6588549548    0.0086303398
 H    2.1723271673    1.5087251170   -0.3455892668
 H    1.8497801526    4.0484885005   -0.8408890729
 H    0.6135203757    4.5388096408    2.2621478312
 H   -2.4026121864    1.8819712559    3.5032901756
 H    2.4952071868    2.8014187360    1.7724513158