19

 C    0.1598308999    1.6026756900    0.0257858169
 C   -0.0476853542    0.0813277673    0.0416246221
 C    0.7141349838   -0.5869744308    1.1952970791
 O    0.2592631329   -0.0246751333    2.4136071999
 N   -1.4595475594   -0.3166627624    0.0227787664
 C   -1.8293707156   -1.4549308922   -0.8025408368
 C   -2.3864684988    0.2065534810    0.8808393234
 O   -3.5399458974   -0.1678941754    0.9723911124
 H    1.2150347367    1.8244837529   -0.1618400561
 H   -0.4357519519    2.0616682709   -0.7672540922
 H   -0.1065719459    2.0609024367    0.9792819906
 H    0.3801509321   -0.3200129843   -0.8843898499
 H    0.5366146015   -1.6719001299    1.1634233730
 H    1.7945443169   -0.4200473871    1.0551061932
 H    0.5566285215   -0.5772863996    3.1411528327
 H   -1.2898140045   -2.3631314221   -0.5032876059
 H   -2.8986081259   -1.6232322358   -0.6776684739
 H   -1.6086505700   -1.2556700159   -1.8577549117
 H   -1.9796327117    1.0259228201    1.4917448168