20

 N   -0.1975094026    1.2613168096    0.5681095072
 C   -0.0045265260   -0.0150692756    0.1114796594
 O    1.0873885198   -0.4143230498   -0.2446455884
 C   -1.2646490353   -0.8787162557    0.0983664805
 C   -0.9407457214   -2.3561869618   -0.0938928323
 C   -0.4566270562   -3.0794521828    1.1980393760
 C   -1.8976409935   -3.6237507750    1.4082267257
 C   -2.1871517625   -3.2811414600   -0.0784424532
 O   -3.3976144807   -2.6385092816   -0.4160262435
 H    0.5650251865    1.9121625417    0.4709466769
 H   -1.1199742821    1.6303442412    0.7219874702
 H   -1.8343607848   -0.7082386514    1.0195744663
 H   -1.9117210713   -0.5315820051   -0.7170493137
 H   -0.2856904651   -2.4578981914   -0.9601697257
 H    0.2640337693   -3.8711812434    0.9816299504
 H   -0.0430821757   -2.4462126778    1.9857484664
 H   -2.0160778965   -4.6626062535    1.7269195743
 H   -2.4878086049   -2.9820534877    2.0689718001
 H   -2.0181945575   -4.1579060553   -0.7202338421
 H   -4.1094099395   -3.2834670945   -0.3587125146