23

 C    0.2288024339    1.7137937749    0.0331542739
 C    0.0983413878    0.1925077308   -0.1250080946
 C    0.6741525424   -0.5343099987    1.0809741292
 C   -0.1285562996   -1.1661975541    2.1973600730
 C   -1.5565092904   -1.6758084704    1.9418657309
 C   -1.4462609263   -2.9389390159    1.0726606933
 C   -1.0131100636   -2.8507252416   -0.3702167586
 C    0.0121823321   -3.1273395356    0.7042776996
 C    0.8135935084   -2.0227092269    1.3637748486
 H    1.2791857597    2.0142980099    0.1153629083
 H   -0.2032594528    2.2404516069   -0.8235038438
 H   -0.2858444399    2.0601147264    0.9358488015
 H   -0.9592131268   -0.0485822610   -0.2623571141
 H    0.6114736437   -0.1228268799   -1.0421701456
 H    1.5429517922    0.0011026920    1.4651587859
 H    0.1134166682   -0.8865854407    3.2180733184
 H   -2.0119565665   -1.9404190997    2.9013520645
 H   -2.2073075332   -0.9143759902    1.4941230264
 H   -2.0658359650   -3.7856921829    1.3495132905
 H   -1.2865210156   -3.6902525340   -1.0024988194
 H   -1.0155297673   -1.9050997179   -0.8907396815
 H    0.4685518764   -4.1110138136    0.7187219322
 H    1.7731511320   -2.3309441078    1.7659731913