16

 N   -0.6303736847    1.0976614259   -0.5096223316
 C   -0.6654512610   -0.1601275293   -0.5661847056
 O   -0.2707347367   -0.8863767036    0.5087876243
 C   -0.4224624673   -2.2977723725    0.4091519398
 C   -1.8500456852   -2.7039464374    0.6898667864
 O   -2.7637718588   -2.6937275661   -0.3991205499
 C   -2.4713802962   -3.9604174334    0.2019762480
 C   -1.7258438297   -4.9387398744   -0.6508681355
 O   -1.7269455795   -6.1236064645   -0.4413195336
 H   -0.9363248219    1.4947473887   -1.3955089622
 H   -0.9842915806   -0.7754859967   -1.4168109509
 H   -0.0985607689   -2.6558423759   -0.5747190447
 H    0.2421572551   -2.7198469912    1.1681241500
 H   -2.2526724344   -2.2911553365    1.6158739041
 H   -3.2674367876   -4.4002691216    0.8009183850
 H   -1.1827121625   -4.4845003316   -1.5076047138