20

 C   -0.7020367810    1.2032416225   -0.1182716028
 C    0.0225302197   -0.1325053365   -0.0797032354
 C    1.3274169060   -0.3318055494   -0.8955873849
 O    2.0149646778    0.9051793375   -1.0146750067
 C    1.8607464613   -1.2341314042    0.2506368748
 C    0.7772025480   -0.6179221936    1.1950837195
 C    1.3173460494    0.4819679542    2.1012499815
 O   -0.0160081902   -1.5380545527    1.9246563028
 H   -0.0202271780    2.0364000424    0.0651389829
 H   -1.1644464664    1.3647491911   -1.0978384141
 H   -1.4982315560    1.2314221162    0.6330724129
 H   -0.6652440468   -0.9417621715   -0.3464922983
 H    1.2154607482   -0.8044651001   -1.8797621022
 H    2.9035009116    0.7180495829   -1.3335584959
 H    1.6534692904   -2.2920483980    0.0704209782
 H    2.9126245439   -1.1050751416    0.5245940324
 H    1.9053470099    1.2034675680    1.5301655653
 H    0.4992841437    1.0073437985    2.6036765015
 H    1.9706171228    0.0492890817    2.8709290104
 H    0.4382570457   -1.7402847976    2.7496526680