23

 C   -0.1102820818    1.5855371943    0.1038641698
 C   -0.0725068056    0.0635622163   -0.0096920399
 C    0.4228288161   -0.3823187099   -1.4079244846
 C    0.2967597031   -1.8597754880   -1.6957161081
 C    1.0821572582   -2.8205720951   -1.2036061152
 C    2.2079253781   -2.5936985197   -0.2323642309
 C    1.7490871612   -2.6324569296    1.2426765170
 C    0.5603142121   -1.7092040408    1.5291702201
 O    0.7769124361   -0.3948675961    1.0357292607
 H    0.8899700200    2.0034825277   -0.0494018255
 H   -0.7833914693    2.0176635259   -0.6426162460
 H   -0.4528227032    1.8813007173    1.0987689170
 H   -1.0872997745   -0.3346470363    0.1481120888
 H   -0.1451289436    0.1782237042   -2.1588840562
 H    1.4662048342   -0.0543202889   -1.4964424373
 H   -0.5209950728   -2.1489448572   -2.3527812459
 H    0.8697513162   -3.8537186622   -1.4732936529
 H    2.9946462449   -3.3420184066   -0.3785300841
 H    2.6601199847   -1.6132565609   -0.4112714636
 H    1.4625401075   -3.6516553359    1.5341780829
 H    2.5969062847   -2.3488278805    1.8770582883
 H   -0.3545125294   -2.1298834051    1.0954000026
 H    0.4087842731   -1.6419010230    2.6155310929