14

 O    0.0580459815    1.3489532235   -0.1459862632
 C    0.1171253382   -0.0085997405   -0.0189787705
 C   -0.0950632258   -0.9168872402   -1.2447680596
 C    0.6016761957   -2.2221010108   -0.8917257904
 N    0.0553234840   -2.0682426558    0.5276520769
 C   -0.9809268647   -1.0897845726   -0.0511131823
 C    0.7987556200   -0.8600880255    0.9809863786
 N    1.5331505709   -0.6336681828    1.9734323161
 H   -0.0011073438    1.7257443286    0.7403813834
 H   -0.3325823797   -0.4719219885   -2.2037156622
 H    0.1492059339   -3.0970032604   -1.3648170056
 H    1.6939964124   -2.2802686212   -0.9450324442
 H   -2.0366742765   -1.0711564863    0.1710068985
 H    1.6851765739   -1.4923602777    2.5071842545