19

 C    0.0246890945    1.6108656311   -0.0091825061
 C    0.0728392051    0.1141726281    0.0488293683
 C    0.6277101230   -0.8102256267   -1.0291874805
 O    1.1069349666   -1.7511142370   -0.0297421913
 C    0.6736142399   -0.8766784985    1.0166294395
 C    1.4981758168   -0.8033168448    2.2570093150
 C   -0.8479216592   -0.7540031195    0.9326895322
 C   -1.5499113973   -0.1123545020    2.0018289110
 C   -2.1371619104    0.4232220976    2.9067392460
 H    1.0016639863    2.0274274466   -0.2776048256
 H   -0.7017882261    1.9511419185   -0.7567860596
 H   -0.2756872816    2.0298706214    0.9543432090
 H   -0.0789676182   -1.2679739516   -1.7316731562
 H    1.4693919629   -0.3743987007   -1.5810199478
 H    2.5130933415   -0.4602613157    2.0342353794
 H    1.0395065386   -0.1234424688    2.9786017648
 H    1.5671959878   -1.7946690361    2.7187492514
 H   -1.3706371180   -1.5840488272    0.4601126632
 H   -2.6632798521    0.8861136054    3.7042704873