14

 N   -0.0406411659    1.3546214412    0.0295486198
 C   -0.0638128183    0.0126865103   -0.0606360425
 N   -1.1528558217   -0.6547133544    0.1072867653
 C   -1.0804576699   -2.0377010974    0.0666261396
 C   -2.2785907752   -2.7718085804   -0.0637818553
 N   -2.2752857190   -4.0895464181   -0.0938117960
 C   -1.0591438845   -4.6509535967    0.0046360734
 N    0.0981856973   -4.0145809644    0.1380622009
 N    0.0858808574   -2.6846057446    0.1803892195
 H    0.8034181885    1.8737750391   -0.1271129413
 H   -0.8881087346    1.8511629324    0.2528762954
 H    0.8975691329   -0.4558818544   -0.2844395410
 H   -3.2277021142   -2.2469874879   -0.1406328249
 H   -1.0048188929   -5.7347295348   -0.0194807328