25

 C   -0.0792515860    1.5852501261   -0.2086430095
 C    0.1041634463    0.0664206222   -0.1527885883
 C    0.5020710689   -0.4407575906    1.2395625332
 C    0.6970612595   -1.9537905303    1.2814950412
 C    1.9994133607   -2.5038229724    0.6564729099
 O    2.4647823087   -2.9978634099    1.9266370731
 C    1.2305319954   -2.6164427493    2.5856975017
 C    1.4750319651   -1.7916902703    3.8385409946
 C    2.2468282167   -2.5860620283    4.8977599515
 H    0.8457442560    2.1061882846    0.0624461985
 H   -0.3660352991    1.9166590716   -1.2114773137
 H   -0.8588830543    1.9152335793    0.4870209162
 H   -0.8251975716   -0.4284101791   -0.4646644198
 H    0.8671990264   -0.2365835769   -0.8819903345
 H    1.4242849234    0.0638319046    1.5554537484
 H   -0.2708641615   -0.1483899337    1.9630804151
 H   -0.2049360779   -2.4446416497    0.9032147527
 H    1.8713955404   -3.3115058519   -0.0758710204
 H    2.6810883306   -1.7526956534    0.2349664675
 H    0.6578855993   -3.5174351452    2.8568027639
 H    2.0336803695   -0.8863131018    3.5775911048
 H    0.5056588360   -1.4671444516    4.2393614623
 H    3.2021086911   -2.9307238366    4.4921307966
 H    2.4499957306   -1.9745067818    5.7818452050
 H    1.6822008558   -3.4674415858    5.2217816700