19

 C   -0.4436358038    1.4297244007    0.0035851333
 C    0.1355581548    0.0291174021   -0.0723755501
 O    1.2264978075    0.0146174203   -1.0380809602
 C    2.1948209335   -0.7376069897   -0.4680541511
 N    2.0648504767   -1.1509846255    0.7212387258
 C    0.7761381769   -0.5998105979    1.2164088059
 C    1.0976450179    0.4109121806    2.3271468755
 C   -0.0931218082   -1.7337772637    1.7683160525
 H    0.2996200387    2.1544498528    0.3438800422
 H   -0.8011048397    1.7421741158   -0.9814847780
 H   -1.2927821466    1.4517958000    0.6938190997
 H   -0.6263615355   -0.6568292028   -0.4645219044
 H    3.0496854094   -0.9262861657   -1.1093327160
 H    1.7274652967    1.2252261169    1.9583975168
 H    0.1862212174    0.8420068865    2.7534288603
 H    1.6453741956   -0.0956479198    3.1261022568
 H    0.3990200139   -2.2118429179    2.6196074864
 H   -1.0647611238   -1.3518556781    2.1022533629
 H   -0.2666311714   -2.4974351047    1.0045241015