23

 C   -0.7346850273    0.8512832772   -1.0171922358
 C    0.3286599053   -0.0890212266   -0.4699540280
 C    1.7620459667   -0.0233309681   -1.0705014689
 C    2.3433276967   -0.1880848250    0.3683218281
 O    3.4414750997    0.6275734892    0.7226090934
 C    0.9424384252    0.2124568500    0.9271647117
 C    2.7176937054   -1.6191874139    0.6907749249
 C    4.1277574399   -2.1151447420    0.5057873949
 C    3.5580322094   -1.9510911077    1.8958177298
 H   -0.3873413710    1.8910236115   -0.9974683252
 H   -0.9890919327    0.6063365434   -2.0545439303
 H   -1.6566370578    0.7984732195   -0.4272456804
 H   -0.0434195335   -1.1185030165   -0.5011082034
 H    2.0520480903   -0.7635985594   -1.8206311930
 H    1.9800061616    0.9770152978   -1.4639902304
 H    3.2124591796    1.5393000382    0.5206650541
 H    0.9072237861    1.2856570590    1.1508296848
 H    0.5685542578   -0.3367871740    1.7951136981
 H    1.9279638022   -2.3255727181    0.4504835690
 H    4.2734468807   -3.1176132893    0.1182557976
 H    4.8695586812   -1.3910073186    0.1915669588
 H    3.9302722606   -1.1205545929    2.4832014754
 H    3.3114728839   -2.8406290337    2.4652734849