15

 O    0.0071716866    0.0902748251   -0.4379310373
 C    0.0059465812    1.2169537694   -0.0276933647
 C   -1.2308765170    2.1044343311    0.1906233874
 N   -0.8196154348    3.3038364856    0.9241787049
 C   -0.2136580973    3.0226813943    2.2218905936
 C    0.6770765164    3.2665980781    1.0463086796
 C    1.2470412677    2.0421572482    0.3537477030
 C    1.3725063529    4.5217579525    0.9064053104
 N    1.9650522679    5.5084569486    0.7989851625
 H   -1.6326793353    2.3968994039   -0.7866716067
 H   -2.0148597157    1.5569993031    0.7215124164
 H   -0.3417920030    3.8023608324    2.9654794246
 H   -0.2430356892    2.0047200557    2.6101320117
 H    1.9247773883    1.4528222846    0.9755011870
 H    1.7868499615    2.3116069075   -0.5603528623