17

 C    0.0503428873    1.5488018665   -0.0722631078
 C    0.0006375878    0.0510319384    0.2463447539
 C   -1.3885026279   -0.5385941362    0.0420473330
 N   -1.7724482380   -0.8874791143   -1.3288607588
 C   -1.6423005100   -1.9812506491   -0.3579020765
 C   -0.5145180554   -2.9397243060   -0.5835549777
 O   -0.4779501775   -4.0335833082   -0.0833355210
 C   -2.4196445689    0.0279809040    0.8909520291
 N   -3.2392537057    0.4990100046    1.5576894890
 H    1.0627593504    1.9351842586    0.0715643327
 H   -0.2400802601    1.7324949640   -1.1109640702
 H   -0.6224030623    2.1174644234    0.5768966980
 H    0.6971247966   -0.4880742785   -0.4002745582
 H    0.3097603347   -0.1326047356    1.2813312680
 H   -2.7507872135   -0.6805552844   -1.5128352888
 H   -2.5348359676   -2.4414854194    0.0577149452
 H    0.2797799502   -2.5703142876   -1.2652469800