18

 C   -0.1566562154    1.4475562048   -0.0482896401
 C    0.1377106738   -0.0348728518   -0.0077882601
 C    1.4402758157   -0.5967406048   -0.4723535971
 C    1.1093946443   -0.6573935726    1.0070036186
 C    1.8872924308    0.2217521140    1.9294740337
 O    2.4920960847    1.2077619249    1.5817726406
 N    1.8397879235   -0.2116046544    3.2688538999
 C    2.4451859957    0.3665552279    4.3809626567
 O    3.1303235988    1.3502910226    4.3987887700
 H    0.7336914714    2.0351317346    0.1808521546
 H   -0.5110307006    1.7298323279   -1.0454735294
 H   -0.9384808101    1.7146370885    0.6708165223
 H   -0.7293339704   -0.6666992941   -0.1846566669
 H    1.4563693426   -1.5322278705   -1.0197976975
 H    2.2204760942    0.1108704642   -0.7319906326
 H    0.8114146135   -1.6211981817    1.4082757125
 H    1.2952123398   -1.0400169383    3.4579007359
 H    2.2038381178   -0.2246118812    5.2892713889