24

 C    1.0164193860    0.9930448221   -0.3883161596
 C    0.3288906205   -0.1301124386    0.3718586270
 O   -0.7113046861   -0.6390004101   -0.4380039537
 C   -1.3577579195   -1.8084203964    0.0611725994
 C   -2.2999088876   -1.5188108596    1.2317560015
 C   -2.0227902487   -2.4818005473   -1.1385652165
 N   -3.4737186803   -2.7346918316   -1.1104511577
 C   -2.9278695514   -1.8022809714   -2.1083111565
 C   -3.3524518932   -0.3551576341   -2.0477444334
 H    1.8317210563    1.4153120628    0.2069783810
 H    1.4276633978    0.6222284722   -1.3314964267
 H    0.3044883128    1.7914135742   -0.6166310397
 H    1.0488611661   -0.9320512583    0.6101915483
 H   -0.0596142920    0.2468753414    1.3307625063
 H   -0.5768427287   -2.4976149043    0.4267999184
 H   -3.0897013589   -0.8194609242    0.9521974098
 H   -2.7806298630   -2.4441496540    1.5588744328
 H   -1.7461226830   -1.1025302206    2.0782958474
 H   -1.4017846267   -3.2599657353   -1.5795548112
 H   -3.6892689522   -3.6357435471   -1.5267939860
 H   -2.8486900443   -2.1838403091   -3.1270075222
 H   -3.4390047978    0.0008581053   -1.0212813547
 H   -2.6199888330    0.2753909162   -2.5602129375
 H   -4.3236731932   -0.2252331821   -2.5384379865