14

 N   -0.0369949710    1.3368375626   -0.3940514900
 C   -0.0495247870   -0.0198566621   -0.1322285716
 C   -1.0859909346   -0.8980972661    0.0006704888
 C   -2.5734027019   -0.8305822608   -0.1178226811
 C   -2.9826778226    0.2259662234   -1.0453099918
 N   -3.2638945182    1.0837637428   -1.7667425097
 O   -0.5439948901   -2.1257384160    0.3387831288
 C    0.7790923455   -1.9037292317    0.3857486953
 N    1.1415483890   -0.6916071581    0.1180421243
 H    0.8561396358    1.6481791504   -0.7493841644
 H   -0.8117910618    1.6758845125   -0.9486196167
 H   -2.9567826328   -1.7888804606   -0.4882541365
 H   -3.0689107527   -0.6504931489    0.8475604129
 H    1.4075827823   -2.7438516073    0.6364584117