17

 O   -0.0811882094    1.3951697527    0.0678762913
 C    0.0050271390    0.0064276355    0.0488982740
 C    0.9136233456   -0.7179044152    1.0401950169
 C    0.6987172887   -2.0054920636    0.7760889185
 C   -0.3267659801   -1.9716094477   -0.3553303826
 O   -0.7577219787   -3.1576051517   -0.9419212626
 C   -1.3362939246   -0.7919069089   -0.0350759037
 C   -1.4336454222   -0.4836285076   -1.5501289986
 C    0.0642667453   -0.8007348152   -1.3143282842
 H    0.7780419001    1.7554071559   -0.1754685928
 H    1.5549460755   -0.2452459223    1.7713082730
 H    1.1246610068   -2.8965490388    1.2163350793
 H   -1.2345162507   -3.6677700678   -0.2788504037
 H   -2.1274798807   -0.7940080676    0.7199770594
 H   -1.9855170128   -1.2038044923   -2.1548909732
 H   -1.6732799930    0.5468385980   -1.8140709325
 H    0.8879621309   -0.8113778834   -2.0337011786