19

 C    0.2245708544    1.5360949804    0.0401854800
 C    0.0830596327    0.0171061077    0.0519230872
 O   -1.2390502127   -0.4069556406    0.3707042718
 C    0.4938360160   -0.6016957828   -1.2800914906
 O    1.9059369408   -0.3400418023   -1.5942626907
 C    2.1948000264   -1.6851273660   -1.6476282603
 O    3.2524952526   -2.1892282669   -1.8457343589
 C    0.7551278575   -2.1266429736   -1.3693353103
 C    0.5224837649   -3.0463350445   -0.1754720221
 H    1.2571918116    1.8249652402   -0.1725934560
 H   -0.4138852316    1.9794306118   -0.7350729332
 H   -0.0694214014    1.9511926450    1.0076993467
 H    0.7168754827   -0.3966570116    0.8435516741
 H   -1.8520348357    0.0969267972   -0.1763508695
 H   -0.1359579569   -0.2069888440   -2.0862345568
 H    0.3093467315   -2.5600366674   -2.2699180125
 H    1.0325869400   -2.6894538606    0.7230781388
 H   -0.5438302839   -3.1214040798    0.0485785307
 H    0.9088028311   -4.0442025723   -0.4001192283