14

 N   -0.0257508819    1.3377724980    0.0097697027
 C    1.1243680661    2.0638522651    0.0028342969
 C    2.3489544335    1.4345612557   -0.0125561764
 C    2.4459510024    0.0264121928   -0.0215306252
 C    1.2785399848   -0.7066571570   -0.0144692491
 N    1.0040808365   -2.0456628770   -0.0195015046
 C   -0.3284255452   -2.0660358265   -0.0067471367
 N   -1.0050759099   -0.8697209953    0.0066319899
 C    0.0069790695   -0.0159806042    0.0017252408
 H   -0.9258618302    1.7997063058    0.0210838160
 H    1.0081187138    3.1387568262    0.0100945601
 H    3.2420582244    2.0461767347   -0.0176712934
 H    3.4152885224   -0.4602452497   -0.0336602832
 H   -0.8803882861   -2.9986162288   -0.0067591380