21

 C   -0.0664675500    1.5417226931   -0.2532747029
 C    0.0805007269    0.0512762618   -0.0276255533
 C    1.3396338180   -0.7546114736   -0.1733415956
 C    2.5685687245   -0.0262698462    0.3963491903
 C    1.8927586473   -0.0384796378    1.8062158459
 C    1.8327232525    1.2052690014    2.6589803366
 C    3.0007883001    2.0774276873    2.8455009599
 O    1.8987536194    2.4921664682    2.0355446202
 C    0.6246906111   -0.6587765431    1.1877708159
 H    0.7816839979    2.1139302826    0.1216514952
 H   -0.1775449715    1.7508740457   -1.3237247419
 H   -0.9632530749    1.9191475833    0.2511373686
 H   -0.7709008191   -0.5082085305   -0.4161500357
 H    1.3991197250   -1.6075903464   -0.8390616231
 H    3.4835699634   -0.6205738441    0.3613265401
 H    2.7743416976    0.9607510729   -0.0257204994
 H    2.3725818498   -0.8100498296    2.4209341642
 H    1.1100161037    1.1594149902    3.4770010659
 H    3.1301721027    2.6283952482    3.7759762426
 H    3.9202406343    1.8629148847    2.3018516939
 H    0.0368519013   -1.4189764082    1.6910075527