20

 O   -0.1788049459    1.4167610855   -0.1905707199
 C   -0.0968094041    0.0254731322   -0.0657811790
 C   -0.5622737276   -0.6338080577    1.2089238503
 C   -1.3928566318   -0.7310360084   -0.0608713523
 C   -2.7174618088   -0.0064812479   -0.1699769159
 C   -3.8531579906   -0.7729100412    0.5206963881
 N   -5.1356340116   -0.0945490826    0.4118973208
 C   -6.1801711366   -0.5807650351   -0.3101389384
 O   -6.1953988329   -1.6387712418   -0.9033775231
 H    0.5107552288    1.8038142212    0.3584119230
 H    0.7429198470   -0.4274412807   -0.5926298207
 H   -0.0407851739   -1.5118337827    1.5740905000
 H   -0.9313931436    0.0315102941    1.9835866651
 H   -1.3667235924   -1.6936820014   -0.5656007949
 H   -2.6188260796    0.9945672651    0.2632868216
 H   -2.9782556775    0.1362565292   -1.2255092880
 H   -3.9931547124   -1.7546782173    0.0624130879
 H   -3.6078563345   -0.9313129351    1.5781957319
 H   -5.2370180336    0.8175286317    0.8286942582
 H   -7.0456391284    0.1120087028   -0.2911953144