14

 N   -0.0979489805    1.4297694662   -0.1574183198
 C   -0.2412819776    0.0811295578   -0.3175111452
 N   -0.8874209096   -0.6353206224    0.5160028397
 C   -0.9652844615   -2.0449947978    0.2734907539
 C   -1.5954173792   -2.7574508902    1.4690865593
 O   -1.7849661483   -3.9454664159    1.5087365490
 C   -1.7491018960   -2.4393336509   -0.9970452219
 O   -1.9780312853   -1.6836351899   -1.9006017351
 H    0.1342098487    1.9791425820   -0.9677618848
 H   -0.7182212823    1.8669819030    0.5081654907
 H    0.2936712321   -0.3112342893   -1.1896764661
 H    0.0154126787   -2.5384662444    0.1259833177
 H   -1.8808921688   -2.0677431202    2.2904517210
 H   -2.0645922505   -3.5024693480   -1.0054711683