16

 C    0.0058769256    1.4453484674   -0.0985891886
 C   -0.0041674600   -0.0458774156   -0.0168789506
 O    0.5758822513   -0.8284241477   -1.1110916940
 C    0.1096460768   -1.8330815815   -0.1697736752
 C    0.5077630914   -1.0244429616    1.0975345565
 C   -0.8889533604   -1.1552101840    1.7412547280
 C   -1.1891793619   -1.0373999612    0.2280925217
 O   -2.3951901968   -0.9505437627   -0.4254801348
 H    1.0299592997    1.8187135012   -0.1928348538
 H   -0.5693824012    1.7809341503   -0.9665365026
 H   -0.4415782998    1.8787931740    0.8013690868
 H    0.2601692003   -2.8868136614   -0.4030838740
 H    1.4887623677   -1.0096297024    1.5654215498
 H   -1.1170004247   -2.1140195378    2.2166669635
 H   -1.2194595273   -0.3250331065    2.3715291534
 H   -2.9054632606   -1.7485762706   -0.2494692261