19

 C   -0.2698795807    1.4612355686    0.0907033412
 N    0.0647127619    0.0468474026    0.0439990940
 C    1.1080992169   -0.4614573269   -0.9001607953
 C    1.8910439226    0.5365924393   -1.6345708909
 N    2.4928955234    1.3407470539   -2.2076447004
 C    1.8174077117   -1.1547068813    0.2713267311
 C    2.1802438297   -0.1249087545    1.3147472480
 C    0.7478406933   -0.5766668816    1.1871029822
 C   -0.0600638966   -1.1870515448    2.2925413983
 H    0.5851812505    2.1284657218    0.2810700424
 H   -0.7274775507    1.7594396952   -0.8572095989
 H   -1.0095576237    1.6138875772    0.8825576820
 H    0.6688212558   -1.1556892161   -1.6248294828
 H    2.2381246325   -2.1500703112    0.2311296106
 H    2.7164304460   -0.5230758168    2.1705340231
 H    2.4970830429    0.8704572333    1.0156951364
 H   -0.5314626789   -0.4127361101    2.9091215467
 H   -0.8513890006   -1.8249805813    1.8875734336
 H    0.5746543941   -1.7880614473    2.9503690887