19

 N   -0.0282507662    0.9687650193   -0.5010144452
 C   -0.1856532388   -0.3569313087   -0.1569891635
 O    0.6320111788   -1.2103924346   -0.4800736036
 N   -1.3394464699   -0.6333672785    0.5644921551
 C   -2.6331282799   -0.0397551805    0.1527638340
 C   -3.5172193331   -1.2476938146   -0.2834221715
 C   -2.5656343542   -2.4624299698   -0.2403114267
 O   -1.9051278104   -2.6066091085   -1.4891195283
 C   -1.5908384289   -2.0486437658    0.8622537462
 H    0.8810593393    1.1811671286   -0.8799343139
 H   -0.4266035672    1.6726417344    0.0996446442
 H   -3.0888182897    0.5014408095    0.9892703033
 H   -2.4671609500    0.6688148002   -0.6595553654
 H   -4.3503312890   -1.3877684945    0.4120868764
 H   -3.9262298127   -1.1232538708   -1.2871523115
 H   -3.1003691179   -3.3909232585   -0.0056620639
 H   -0.9582444511   -2.4583423390   -1.3595927432
 H   -0.6548428184   -2.6051792752    0.8604770837
 H   -2.0604210608   -2.1341594929    1.8496952140