17

 O   -0.0147531432    0.0107176377   -0.3145317912
 C   -0.0254671308    1.1827192188   -0.0428484115
 N   -1.1671273466    1.8703644897    0.3047190427
 C   -1.3884354286    3.2540341847    0.4864884431
 N   -0.8608357121    4.2896515461    0.0020380993
 C    0.1824198911    4.4593923587   -0.9906172892
 C    0.6039759550    3.3138367071   -1.9352373505
 C    1.5845793803    2.3494372434   -1.2776879359
 O    1.0815930822    1.9736761417    0.0131832642
 H   -1.9559510499    1.2693008821    0.4974508352
 H   -2.2204612173    3.4020205114    1.1807156712
 H   -0.1534445522    5.3017502377   -1.6075367445
 H    1.0695303931    4.8318778766   -0.4587331973
 H   -0.2804305459    2.7783363709   -2.2995837595
 H    1.0832072381    3.7502437675   -2.8198561815
 H    1.7674721542    1.4537549943   -1.8820394653
 H    2.5409586425    2.8385326015   -1.0764435292