18

 O   -0.0864368047    1.4361002319    0.0099346266
 C    0.0082250855    0.0216739727    0.0021155654
 C   -1.4108367761   -0.5329064381    0.0126635191
 C   -1.4264401452   -2.0637460317    0.0048249776
 N   -2.7776915343   -2.6007129729    0.0147803290
 N   -3.4385137952   -2.8252372769    1.1448931868
 C   -4.6405994820   -3.2312778113    0.7291723970
 C   -4.6523408210   -3.2279151702   -0.6713024238
 N   -3.4573791575   -2.8198425529   -1.1051741019
 H    0.8041984212    1.7987435089    0.0033728270
 H    0.5438998188   -0.3389475886   -0.8918996102
 H    0.5605080718   -0.3476332118    0.8823763748
 H   -1.9331239722   -0.1664710198    0.9023128095
 H   -1.9497420763   -0.1572154378   -0.8631349760
 H   -0.9395805215   -2.4581358134   -0.8905264605
 H   -0.9225297167   -2.4673722974    0.8865704723
 H   -5.4093787047   -3.5039161657    1.4341821290
 H   -5.4328091600   -3.4972620949   -1.3646357117