17

 C   -0.0344634506    1.5391025420   -0.1222809637
 C    0.0632089457    0.0231541382   -0.0113882173
 N    0.8628947692   -0.5687264263   -1.1164372614
 C    1.4696291428   -1.5518012804   -0.5845922916
 N    2.6307258162   -2.2927560820   -0.7971925039
 C    2.9040664399   -2.2349437461    0.6864044028
 C    1.4114256341   -1.8049953695    0.8862500850
 C    0.8012403957   -0.4477017610    1.2974043707
 O    0.8769034449    0.1455719513    2.3339844827
 H    0.9625564543    1.9830219479   -0.1941498927
 H   -0.5989690999    1.8184862596   -1.0149285257
 H   -0.5325170362    1.9498639075    0.7597920347
 H   -0.9515194246   -0.4041573654    0.0125304758
 H    3.3160918512   -1.9554879157   -1.4653655588
 H    3.1926233815   -3.1951473674    1.1166273801
 H    3.6253491147   -1.4593346606    0.9605118549
 H    0.7713530610   -2.6177927020    1.2380939182