18

 O   -0.0073074713    1.4409933832    0.3147978717
 C   -0.0555548695    0.0766990987    0.0040682805
 C   -0.6146814826   -0.8942716752    1.0147623378
 C   -1.4143009314   -0.5169065596   -0.2211511109
 C   -2.6635298148    0.3327737768   -0.0965413856
 C   -3.8717704051   -0.4904958162    0.2793822554
 C   -5.2116279543   -0.2097740711   -0.2483971031
 O   -4.4401548044   -1.2989627930   -0.7583180656
 H    0.6857130212    1.5702185442    0.9701954966
 H    0.7546784902   -0.2693348728   -0.6376347753
 H   -0.1868406404   -1.8881851979    1.0880190115
 H   -0.9411022298   -0.4688987503    1.9590410263
 H   -1.4742885586   -1.2752319212   -0.9964594324
 H   -2.5027003108    1.1153808729    0.6521795277
 H   -2.8640610045    0.8387926654   -1.0483521087
 H   -3.8047554109   -1.0038147305    1.2406904654
 H   -6.0941353912   -0.4883805143    0.3263530504
 H   -5.3521746618    0.6246760908   -0.9349390618