19

 C    0.0224480871    1.4907437921    0.0579514038
 C   -0.0093456016   -0.0043021576   -0.0245476138
 C   -0.9454390494   -0.8945867028    0.8151459993
 C   -1.0801305742   -2.2453097110    0.1082133542
 C    0.4212038108   -2.0778458376   -0.2578815556
 C    0.5509694775   -1.0411124098    0.9386010262
 C    0.4132533214   -0.8647183668   -1.1934568685
 C    0.2923364575   -0.7297862576   -2.6428249323
 O    1.5487482754   -0.5101753216   -1.9627326887
 H    0.9683866765    1.8744692629   -0.3376891525
 H   -0.7931700227    1.9439152794   -0.5178497418
 H   -0.0759101471    1.8318768169    1.0936587222
 H   -1.6275237873   -0.4423260681    1.5251394804
 H   -1.2369776746   -3.0540797473    0.8274514241
 H   -1.7902511714   -2.3446756087   -0.7212453768
 H    1.0698993400   -2.9264168221   -0.4618586198
 H    1.2337184871   -0.9456472332    1.7699248709
 H    0.2592055874   -1.6165923959   -3.2751561737
 H   -0.1589133326    0.1621598389   -3.0759995477