19

 C    0.0709096269    1.5947515088   -0.0981283950
 C    0.0228578853    0.0670129248   -0.0751810028
 C    0.8607532037   -0.5521211760   -1.2005222132
 O    0.8821804548   -1.9735969765   -1.0959099420
 C    1.3653042063   -2.3897137772    0.1533078328
 O    0.5705667641   -1.9291140708    1.2131858413
 C    0.5294462347   -0.5048267926    1.2545394666
 C    1.2684855206   -3.9154260832    0.1696332538
 O    2.2125307326   -4.6419148196    0.3109065904
 H    1.0946095579    1.9640631068    0.0329475631
 H   -0.3054193650    1.9872164862   -1.0482763715
 H   -0.5417936537    2.0209528933    0.7027334084
 H   -1.0114765788   -0.2727550545   -0.2082168199
 H    0.4477522936   -0.3218682168   -2.1862136032
 H    1.8918789508   -0.1610361698   -1.1612142272
 H    2.4155670317   -2.0737429065    0.2889525272
 H    1.5361143284   -0.1102522722    1.4750915365
 H   -0.1287903882   -0.2395657767    2.0861250202
 H    0.2310412843   -4.2875574375    0.0369056845