21

 C   -0.1350850993    1.5577964134   -0.2013928983
 C   -0.0120791191    0.0456463718   -0.0275714106
 C   -1.3698576865   -0.6043907876    0.2384515553
 C    0.7523222043   -0.6849504425   -1.1543855261
 O    2.0960377324   -0.1928632584   -1.1799344723
 C    1.7569357180   -1.2087250359   -0.2211415251
 C    1.1001648449   -0.5021697609    0.9769711935
 C    1.9758671011    0.4668689308    1.7602094554
 O    2.9340162115   -0.2174615762    2.5604989381
 H    0.8201542055    2.0026548553   -0.4887363786
 H   -0.8658639059    1.7930980037   -0.9838020733
 H   -0.4779190450    2.0389312613    0.7213420510
 H   -2.0795946363   -0.3712168287   -0.5638048383
 H   -1.2876526517   -1.6945905100    0.3068805476
 H   -1.7980208591   -0.2406587781    1.1787288668
 H    0.3591068137   -1.0982588971   -2.0777790332
 H    2.3320912898   -2.1274666611   -0.2540105691
 H    0.6619121531   -1.2249522022    1.6722381360
 H    2.4619619887    1.1739138595    1.0759066035
 H    1.3642934925    1.0470152438    2.4593294953
 H    3.5901913774   -0.5958405310    1.9670486023