22

 C   -0.2090790425    1.5361304320   -0.0095737307
 C    0.0057171674    0.0407434013   -0.0678720868
 C    0.6448809484   -0.6738608816   -1.2057159289
 C    1.4435501956    0.1045474607   -2.2081025332
 C    2.8336666203   -0.4389082456   -2.4516465155
 C    2.6307532921    0.6988768896   -1.4781766100
 C    3.2038005733    2.0616209568   -1.7859932802
 C    2.4948995570    0.2763225148   -0.0107593372
 N    1.3198208713   -0.6170680136    0.1165558502
 H    0.4643593811    2.0929606636   -0.6625525230
 H   -1.2352901006    1.7688908698   -0.3135321366
 H   -0.0802927719    1.9091421061    1.0130473354
 H   -0.7732750258   -0.5139010096    0.4543722842
 H    0.2693628544   -1.6519270545   -1.5021965101
 H    0.9387719497    0.6434974231   -3.0036727620
 H    3.0732588427   -1.4255743860   -2.0654223543
 H    3.3039858039   -0.2011734281   -3.4001821564
 H    3.1808378088    2.2710278573   -2.8601159496
 H    2.6477295936    2.8585664918   -1.2773935404
 H    4.2485274677    2.1328770772   -1.4606307095
 H    3.3758315994   -0.2755081020    0.3382228269
 H    2.3881060642    1.1531085469    0.6399288978