21

 C    0.1221803589    1.5989522992    0.0782789763
 C    0.0069778806    0.0847325917    0.0002515416
 C    0.6132264562   -0.5008740561   -1.2925616334
 C    0.8621503137   -2.0162834525   -1.1552756432
 C   -0.3826733320   -2.7494981888   -0.6287711342
 O   -0.3820943173   -2.5229435976    0.7919813636
 C    0.8130207053   -1.8426590394    1.1431729628
 C    1.8039149808   -2.2262532290    0.0427106935
 O    0.6350842310   -0.4415691843    1.1765888325
 H    1.1725825749    1.9062833941    0.0584956350
 H   -0.3937205019    2.0670965152   -0.7659934395
 H   -0.3247359839    1.9668500631    1.0057145975
 H   -1.0562308216   -0.1938445115    0.0363894995
 H   -0.0656007390   -0.2879978539   -2.1268015437
 H    1.5645929708   -0.0017745292   -1.5145497179
 H    1.2272886159   -2.4456009228   -2.0912555462
 H   -1.3212395110   -2.3715296244   -1.0503078931
 H   -0.3256718692   -3.8288861810   -0.8225303154
 H    1.0861416103   -2.1330733509    2.1594484679
 H    2.1119869590   -3.2717221310    0.1443670736
 H    2.6866291082   -1.5846207709    0.0373322030