16

 O   -0.0701902357    1.4362060002   -0.1079378095
 C    0.0192136140    0.0245442842   -0.0381041792
 C   -1.4024148926   -0.5218561568    0.0098314396
 C   -1.4275533049   -2.0580808987    0.0954549768
 C   -2.8135354745   -2.6023922386    0.0932441452
 N   -3.3977917137   -3.1960603271    1.0946564060
 O   -4.6366215465   -3.5029699215    0.6410268895
 N   -4.7541056331   -3.0627566758   -0.6742952953
 N   -3.6667107264   -2.5256437547   -0.9989570367
 H    0.8209984883    1.7961586920   -0.1362937267
 H    0.5459886660   -0.3899952890   -0.9137709170
 H    0.5732597942   -0.3001760869    0.8583603371
 H   -1.9185270740   -0.0914170004    0.8746939015
 H   -1.9409923795   -0.1892063105   -0.8834753833
 H   -0.8896556009   -2.4853365439   -0.7591659753
 H   -0.9281201905   -2.4040542624    1.0048782073