19

 O    0.0079975041    1.3677257043   -0.1825145183
 C   -0.0065385370   -0.0015636451    0.0494160088
 C   -0.3297033147   -0.9514217990   -1.0677946190
 C   -1.3137029170   -0.8038964124    0.1012195339
 C   -1.1901196552   -1.8244298482    1.2324128745
 C    0.3265399913   -1.8925166357    1.5365249570
 C    0.8829871315   -0.4982491667    1.1749356271
 C   -2.5404133563   -0.1082527635   -0.1229890223
 C   -3.5302458252    0.5584187846   -0.2939330496
 H   -0.9080494209    1.6707415646   -0.2449720055
 H   -0.6375492369   -0.4943471758   -2.0008196414
 H    0.2067455199   -1.8889516210   -1.1742376484
 H   -1.7446033287   -1.4531540951    2.1010298253
 H   -1.6088035712   -2.8015093418    0.9710581138
 H    0.5240432086   -2.1606999652    2.5771528292
 H    0.8013869894   -2.6621957201    0.9201382916
 H    1.9421170590   -0.5251800564    0.8991448553
 H    0.7787724843    0.2004696228    2.0125148197
 H   -4.4266003250    1.1033615396   -0.4587400217