20

 C   -0.0955165484    1.6156504970   -0.0490413900
 C    0.0119737226    0.0893254692    0.0231656060
 C   -1.3672224274   -0.5808354135    0.0202298116
 C   -1.3538012987   -2.1406523596    0.0017048226
 C   -0.6579689752   -2.7361008360    1.2498136602
 C   -2.8226517188   -2.5897892961    0.0297404194
 O   -3.3964901305   -3.1792867253   -0.8407118676
 C   -0.6993070124   -2.6252431172   -1.2180912423
 N   -0.1473644875   -2.9878130460   -2.1657889252
 H    0.8957125238    2.0780212555   -0.0428701620
 H   -0.6065294231    1.9340187074   -0.9638475743
 H   -0.6562065949    2.0174151166    0.8022346071
 H    0.5951975153   -0.2809526003   -0.8275450345
 H    0.5637522780   -0.1915767089    0.9272767167
 H   -1.9336265233   -0.2669039935    0.9067487500
 H   -1.9333891109   -0.2369585629   -0.8534033540
 H   -1.1510681312   -2.3751027381    2.1578245471
 H   -0.7059180197   -3.8279325506    1.2368071728
 H    0.3922495871   -2.4429481425    1.2871915708
 H   -3.3315679846   -2.2934407052    0.9754452554