18

 C    0.0594446533    1.5105328604    0.1879671679
 C   -0.1276049914    0.0339478546    0.0047189351
 C   -0.9002798767   -0.8262207124    0.9224945447
 N    0.5778666872   -0.9592748879    0.9017451999
 C    1.0185792893   -1.6976340337   -0.3296517951
 C    0.0064565983   -2.1712106021   -1.2953452717
 C    0.3306290067   -0.6868148322   -1.2882603875
 C    0.9645181203   -0.0615540603   -2.4516781401
 O    1.4459570896   -0.6750928337   -3.3810990424
 H    1.0621064835    1.8250499317   -0.1215367346
 H   -0.6702477948    2.0749772122   -0.4042621576
 H   -0.0681857263    1.7796519756    1.2397054056
 H   -1.2373018694   -0.3671421599    1.8474193747
 H   -1.5399181337   -1.6297566828    0.5782398758
 H    2.0571467384   -2.0004402540   -0.3663282930
 H    0.4347799411   -2.6556050587   -2.1672852117
 H   -0.9748545786   -2.5334247955   -1.0152096824
 H    0.9934168132    1.0495301388   -2.4319267476