17

 C   -0.7447363326    1.2531501981   -0.0758057105
 C    0.0041143263   -0.0700724612   -0.0251130424
 C    1.3608370570   -0.1680637830   -0.7459914893
 O    1.8671316604    0.4294796317   -1.6544519503
 C    1.9816444016   -1.0168987195    0.3747250825
 O    3.3078209129   -0.7766104723    0.7371161578
 C    0.8017564720   -0.4956946305    1.2286002935
 C    0.8785689660    0.1383036095    2.5407713251
 O    0.2747648458   -1.1575583766    2.3533701676
 H   -0.0973794866    2.0834862151    0.2210193799
 H   -1.0995703946    1.4527524262   -1.0908656345
 H   -1.6120593605    1.2356863076    0.5909690868
 H   -0.6428979627   -0.9011388421   -0.3364048594
 H    1.8324830877   -2.0909255471    0.1876857265
 H    3.6306545206   -0.0537020287    0.1848183118
 H    1.8275020430    0.1349800188    3.0729654971
 H    0.1868702540    0.9369271437    2.8022036377