21

 C    0.0825332260    1.5765986102    0.0124547752
 C    0.1663757578    0.0483315387    0.0187062715
 C    0.6697160125   -0.5254129253   -1.3125793826
 C    0.7551357587   -2.0474032018   -1.3117973094
 C    1.3555258283   -2.8155590314   -2.5382190543
 C    2.0895455165   -3.8005297871   -1.5584653625
 O    3.3905950517   -4.2399507225   -1.7978583935
 C    1.8899592672   -2.7037145147   -0.5121339757
 O    2.6244640284   -2.3180789831    0.3582271217
 H    1.0646475898    2.0257983570   -0.1720382125
 H   -0.5967640079    1.9348210924   -0.7694449347
 H   -0.2819652906    1.9586383666    0.9709040659
 H    0.8336876830   -0.2857969241    0.8206689476
 H   -0.8233170105   -0.3726625231    0.2416405580
 H    0.0109557480   -0.2036169810   -2.1300674459
 H    1.6627566759   -0.1131194053   -1.5347895322
 H   -0.2084642249   -2.4898701942   -1.0302183715
 H    0.6520026473   -3.2639760824   -3.2397901440
 H    2.0805947327   -2.2002653055   -3.0771509978
 H    1.4394020348   -4.6632670847   -1.3618323195
 H    3.9768064254   -3.6946090889   -1.2579224739