17

 O   -0.4707527062    0.6438632124    0.8952611636
 C    0.0220512697    1.0294399602   -0.1323789660
 C    1.3469181574    1.7491627611   -0.2425410624
 C    1.2117748931    3.0895874811   -0.9859071527
 C    2.5700757601    3.7268458075   -1.2454962503
 O    3.4262547446    2.9295588422   -2.1042016604
 C    3.5552316562    3.9564237825   -3.1100363760
 C    2.6324167034    4.8606439832   -2.2835967378
 O    2.1520417586    5.9449371965   -2.3977572336
 H   -0.4937017978    0.8719661096   -1.1095784543
 H    1.7602518692    1.8824466987    0.7614078063
 H    2.0304459746    1.1082128225   -0.8163664745
 H    0.6993052323    2.9340629895   -1.9432756328
 H    0.6057828031    3.7946061602   -0.4051500518
 H    3.0751990781    3.9716380692   -0.2999007700
 H    4.5839640743    4.3221606350   -3.2201093590
 H    3.1711955992    3.6502100787   -4.0908983184