22

 C   -0.2168122014    1.5621012953    0.1519824119
 C   -0.1044833455    0.0610816783   -0.0541051890
 O   -1.3941547786   -0.5052890730    0.0492654815
 C   -1.4039521085   -1.9023640983   -0.1216826213
 C   -2.8271756948   -2.4069002508   -0.0372869006
 O   -3.5196209489   -1.9756152043   -1.2129213987
 C   -4.8212707035   -2.3124225110   -1.3050527769
 C   -5.4068650835   -1.7628487315   -2.5811395439
 N   -5.3908283546   -2.9974620063   -0.3991676666
 H    0.7680736165    2.0326362209    0.0766752596
 H   -0.8726331309    2.0038498760   -0.6035241783
 H   -0.6337301393    1.7835596043    1.1385392745
 H    0.3309807852   -0.1625404993   -1.0431224266
 H    0.5686875788   -0.3837956915    0.6993418138
 H   -0.9664299563   -2.1827172159   -1.0943313427
 H   -0.8078550733   -2.3983936433    0.6641085667
 H   -2.8471454352   -3.5003423880    0.0228566086
 H   -3.3281824924   -2.0128546998    0.8520167343
 H   -6.4590856904   -2.0345036264   -2.6783910581
 H   -5.3137181542   -0.6727172476   -2.5975280916
 H   -4.8554999301   -2.1467077441   -3.4448809399
 H   -6.3679689990   -3.1551423836   -0.6342488869