16

 O    0.0117876603   -0.0335431272   -0.0830825773
 C    0.0118130565    1.1757071347   -0.0323193274
 N   -1.0932888564    1.9863710185    0.0312551745
 C   -0.8392604263    3.4159286632    0.0193250817
 C    0.6851191818    3.5028561435    0.0015707086
 C    1.4176956019    2.9482629476    1.2090497906
 C    0.7510942585    2.6884741536    2.4512774024
 C    0.1966269914    2.5008711025    3.5019484269
 C    1.2121085038    2.0937638350   -0.0442113583
 H   -2.0056116663    1.5878339040    0.1818057166
 H   -1.2611765495    3.8915573544   -0.8751225147
 H   -1.2644500012    3.9085016248    0.9028572657
 H    1.1480862648    4.3124570700   -0.5480744706
 H    2.4360005865    3.3121945408    1.3157539159
 H   -0.2836183851    2.3129025695    4.4301830965
 H    2.0836529594    1.7800600451   -0.6027425710