14

 C   -0.0031457764    1.4192342821   -0.0134309815
 O    0.0239424652   -0.0145332908   -0.0419858007
 C    0.6119784489   -0.6263260898   -1.0703884494
 C    0.6432566808   -1.9931961135   -1.1072947893
 C    1.2783246322   -2.6374592468   -2.2170398717
 O    1.4216983269   -3.8188736449   -2.4573825166
 N    1.7873977814   -1.6668376852   -3.1294542284
 N    1.7329427815   -0.3463359686   -3.0509319548
 N    1.1572853254    0.1875221691   -2.0423481478
 H    1.0082589642    1.8318059102    0.0007963254
 H   -0.5385670612    1.8200580414   -0.8771524015
 H   -0.5281784464    1.6709793279    0.9082479154
 H    0.2018919323   -2.5915453686   -0.3220252099
 H    2.2578047253   -2.0172556226   -3.9554093694