21

 C   -0.0613818556    1.4897637692    0.0564319047
 C    0.0169427215   -0.0054304535   -0.0232065269
 C    0.0389648204   -0.7060098094   -1.1601459605
 C    0.0888569412   -2.2216446245   -1.0532524431
 C   -0.1082910069   -2.9654368549   -2.3507103664
 C    1.2331196335   -2.6067813111   -0.0766730876
 C    0.1442569863   -2.2929948672    0.9688628388
 C    0.0560508976   -0.7917563692    1.2778903648
 O   -0.8752150378   -2.6216507860   -0.0137844841
 H    0.7971071201    1.9048376390    0.6005598231
 H   -0.0881018546    1.9455327391   -0.9371885213
 H   -0.9581220924    1.8098763951    0.6030359726
 H    0.0174177940   -0.2319468672   -2.1374452142
 H    0.6824549016   -2.7047466429   -3.0625909712
 H   -0.0882983735   -4.0451540618   -2.1822952743
 H   -1.0713834327   -2.7022291184   -2.8010198429
 H    1.4573678583   -3.6753556588   -0.1109872483
 H    2.1493217844   -2.0132945333   -0.0918689144
 H    0.0722595079   -2.9167099976    1.8640689374
 H    0.9088305910   -0.4754132961    1.8954172683
 H   -0.8462807443   -0.5845239906    1.8693302354