20

 C   -0.0554846916    1.5385441503    0.0371717411
 C    0.0049074318    0.0290639986    0.0402852332
 O   -1.1490188371   -0.5979669984   -0.4558052521
 C    1.3254288558   -0.6870204717   -0.1979518090
 C    0.6667484998   -0.7136520589    1.1720595159
 O    1.2213722145    0.1037576039    2.1732820199
 C    0.0615091970   -1.9914169909    1.6824470950
 C    0.6807459868   -2.7068969593    2.8256008493
 N   -0.6041005098   -2.0024319110    2.9920927280
 H    0.8161399034    1.9705390991    0.5306362380
 H   -0.0964591558    1.9174987380   -0.9914068689
 H   -0.9541626985    1.8784242477    0.5608759136
 H   -1.1975142703   -0.4173779286   -1.4011196819
 H    1.3010755190   -1.6001210060   -0.7832818423
 H    2.2208848900   -0.0835993150   -0.3085921272
 H    2.1134897908   -0.2125958710    2.3523602028
 H   -0.4538450424   -2.5657362779    0.9202386588
 H    0.6272359862   -3.7904763295    2.8827465352
 H    1.5649549907   -2.2761939390    3.2892953571
 H   -0.4197161304   -1.1084464104    3.4446180233