23

 C    0.6276872910    1.3275711697    0.3724829282
 C   -0.0934471436    0.0230315650    0.0567453209
 C   -1.5487450224    0.0613822032    0.5049688674
 C    0.1571315095   -0.5603191017   -1.3585888017
 C    0.8929955617   -1.7073626435   -0.6329775833
 C    0.2965998446   -3.1009836119   -0.7523505199
 C    2.4165505555   -1.7245005639   -0.7966119514
 O    3.0204122834   -2.3844975706    0.2972102895
 O    0.5941111213   -1.1146542575    0.6702958224
 H    1.6734703121    1.2881855653    0.0563694613
 H    0.1455948938    2.1684440605   -0.1381770679
 H    0.6037441390    1.5234492338    1.4495206189
 H   -2.0906381807    0.8635270138   -0.0079222478
 H   -2.0495134821   -0.8863532319    0.2902578775
 H   -1.6094526843    0.2418963808    1.5832038239
 H   -0.7440543775   -0.8614340747   -1.8961993074
 H    0.7795476020    0.0531245627   -2.0143821089
 H    0.4140071073   -3.4778617033   -1.7746041191
 H    0.8123680454   -3.7850125662   -0.0730666197
 H   -0.7682319628   -3.0943432492   -0.5055274706
 H    2.7032860152   -2.2677398078   -1.7043577468
 H    2.7873665179   -0.6915766406   -0.8931631500
 H    2.6340546238   -1.9739048919    1.0824848444