11

 O    0.0450922481    0.0940722090   -0.5974141146
 C    0.0659978835    1.2420235108   -0.2229303328
 N   -1.1254577930    1.9864316250   -0.1365676574
 N   -1.4468799676    3.1085924118    0.6320330907
 N   -0.6521442558    4.0555340847    0.7195646819
 C    0.5471279679    4.0538281131   -0.1049364586
 O    0.6699799053    4.8529865034   -0.9835174354
 N    1.5357880645    3.1593402849    0.3117236732
 C    1.3219605103    1.9088035969    0.2501189366
 H   -1.9454845482    1.4021038020   -0.2563843595
 H    2.1049863748    1.2126458985    0.5491404958