17

 C   -0.3192776320    1.2918491111   -0.1288178218
 N    0.6753547861    0.2486249496    0.1479664964
 C    0.9888045028   -0.6125300965   -0.8892479454
 C    0.8681619328   -1.9542675487   -1.1011215218
 O    0.2670034956   -2.8283915138   -0.2652305171
 C    0.2962258648   -4.1928387859   -0.6694349740
 N    1.4713305531   -2.3007469700   -2.2920244604
 C    1.9117704769   -1.1751517699   -2.7603716135
 O    1.6747854823   -0.1068208208   -1.9706188631
 H    0.0463695701    1.9263865588   -0.9396334117
 H   -1.3040154664    0.8941352538   -0.4165411422
 H   -0.4340014230    1.9149302302    0.7616371711
 H    0.4423280548   -0.2870841333    0.9741329128
 H   -0.2084335805   -4.3335772171   -1.6310111075
 H    1.3242970655   -4.5593659420   -0.7596511199
 H   -0.2287963892   -4.7456717867    0.1112002706
 H    2.4146132462   -0.9915517090   -3.6958257226