15

 O   -0.0080826909    1.4198333005    0.0579059188
 C   -0.0137547939    0.0051387762    0.0061334917
 C   -1.4213394971   -0.4877617420   -0.0157585466
 C   -2.5458764704    0.2195697055    0.0057879763
 C   -3.7292852800   -0.7021582559   -0.0305465258
 O   -3.1808546396   -2.0191016909   -0.0756484796
 C   -1.7601320576   -1.9558996544   -0.0687974508
 H    0.9068754995    1.7142003508    0.0689417451
 H    0.5156951030   -0.3674939177   -0.8890007464
 H    0.5108818260   -0.4320119675    0.8745320405
 H   -2.6179601749    1.2976630670    0.0438342225
 H   -4.3741306308   -0.5986670879    0.8568869944
 H   -4.3687323953   -0.5358733976   -0.9123199866
 H   -1.3577878070   -2.4472344182   -0.9706459587
 H   -1.3634847809   -2.5097547778    0.7986940651