16

 O    0.0128007797    1.4148340925   -0.0461250292
 C   -0.0028867020    0.0251516577   -0.0085930546
 C   -0.4522964947   -0.7212781083    1.2334785983
 N   -1.2124796078    0.0141501253    2.2086922370
 C   -2.3512587974    0.5208980977    1.6598875062
 C   -2.5329593737    0.0993501087    0.3780718246
 C   -3.7153159607    0.2978194774   -0.4171370924
 O   -3.8909573578   -0.1493700830   -1.5366305316
 C   -1.3325663816   -0.6830927530   -0.0377966907
 H    0.7801250337    1.7204303205    0.4492672546
 H    0.7866688507   -0.4710873062   -0.5724008911
 H    0.0858091833   -1.5902551262    1.5973002733
 H   -0.8128534620    0.3541990188    3.0661676220
 H   -2.9972792455    1.1608304825    2.2473605136
 H   -4.5023415242    0.9091009311    0.0838795548
 H   -1.4582800400   -1.5267803153   -0.7049938248