18

 C   -0.6545622503    1.3874443466    0.3222435581
 C   -0.5690137341   -0.0968247395   -0.0084703027
 C    0.8520350997   -0.5346519555   -0.3658258906
 O   -1.0479008660   -0.7872913197    1.1589076589
 C   -1.4644020136   -2.1145956665    0.9555810809
 C   -2.7046844344   -2.2274958179    0.1791555128
 C   -3.7293328712   -2.3099828660   -0.4561608991
 C   -4.8854270994   -2.4079936530   -1.1760303713
 N   -5.8675917111   -2.4918870446   -1.7906205265
 H   -0.3207565653    1.9892348654   -0.5278942402
 H   -1.6821529771    1.6664828951    0.5675788154
 H   -0.0194566756    1.6211961742    1.1825461293
 H   -1.2435217728   -0.3178950427   -0.8489907382
 H    1.2031565578    0.0076035963   -1.2491644237
 H    1.5334534357   -0.3241523465    0.4643034687
 H    0.9095507834   -1.6029158993   -0.5959368803
 H   -0.6907378267   -2.7298588690    0.4704010172
 H   -1.6306643590   -2.5416830375    1.9511933812