17

 C    0.4931992120    1.5973501380    0.0130128274
 C    0.0075484998    0.1655125587   -0.0622329288
 C    0.4691135601   -0.7050484242   -1.2471114166
 C    1.0645544843   -1.6518822370   -0.1513562670
 O    0.6935738527   -0.6979363144    0.8856902725
 C    0.3558918056   -2.9224830413   -0.0005535535
 C   -0.2519972259   -3.9527414328    0.1104934455
 C    2.5081261270   -1.8618933898   -0.2139693815
 C    3.6977534181   -2.0121136890   -0.2876675165
 H    1.5706721375    1.6512480380   -0.1692706445
 H   -0.0221182222    2.2147954241   -0.7311767167
 H    0.2901108021    2.0165914619    1.0033618356
 H   -1.0759207372    0.1181977350    0.1080049806
 H   -0.3072551579   -1.1526252005   -1.8657979390
 H    1.2360193666   -0.2478566544   -1.8728001024
 H   -0.7782963137   -4.8689678320    0.2190919149
 H    4.7489921410   -2.1544684805   -0.3414655799