20

 C   -0.0967474794    1.6156214408    0.0181735148
 C   -0.0790732727    0.0854262499    0.0315497079
 C    0.8221007185   -0.4820747481    1.1336899800
 C    0.8671277430   -2.0136170093    1.1470798073
 O    1.4433201155   -2.4459342578   -0.0699022791
 C    1.3697829564   -3.7654339697   -0.3630625121
 N    1.8942383757   -4.1935843214   -1.4255197747
 C    1.6343225353   -2.5263087253    2.3616301735
 O    2.5373476432   -3.3167559468    2.3157902138
 H    0.9066326173    2.0213168257   -0.1506572952
 H   -0.7458969453    1.9949595047   -0.7765313004
 H   -0.4623283363    2.0198666254    0.9688517862
 H   -1.0996870332   -0.2957054275    0.1706900654
 H    0.2649996940   -0.2946608089   -0.9354502700
 H    1.8469062057   -0.1112526336    1.0095000649
 H    0.4749644374   -0.1385683312    2.1164365506
 H   -0.1650260617   -2.3970815612    1.2465309934
 H    0.8173207134   -4.3527298524    0.3802947622
 H    1.7419254327   -5.1964515190   -1.5082007156
 H    1.2691797505   -2.1059633146    3.3269807271