21

 C   -0.0250748303    1.4214443890   -0.2480830299
 O    1.2448542001    1.7788121074    0.3313395110
 C    1.5304130235    0.4074559627    0.6689913758
 C    0.2112158368   -0.0855834887    0.0231255098
 C   -0.7771940702   -0.7702047047    0.9427065175
 C   -2.1191987077   -1.3837274230    0.4169885957
 C   -1.3020053525   -2.5761538589   -0.1622208703
 C   -0.7058661830   -2.3044549072    1.2505631157
 C   -2.1744548642   -2.1825577650    1.7517669829
 H   -0.8672113372    1.8650958634    0.3010800003
 H   -0.0952520382    1.7189416840   -1.3016660903
 H    2.4591182240    0.0538098166    0.2043335129
 H    1.5994589018    0.2571189784    1.7553759286
 H    0.3835093427   -0.6504074143   -0.8936794333
 H   -0.9095615812   -0.1572948294    1.8441302148
 H   -2.9414692451   -0.8512566835   -0.0643410127
 H   -1.8460443089   -3.5173069243   -0.2793606716
 H   -0.6685905595   -2.3903184338   -1.0309017005
 H    0.1116306564   -2.8402105701    1.7363591068
 H   -2.3371558816   -1.6047071252    2.6658951537
 H   -2.7680592557   -3.1003635433    1.7444704332