19

 C   -0.2075380668    1.5230629661   -0.0295725503
 C    0.1017638851    0.0301174689   -0.0271626972
 C    0.9834351483   -0.4621056731   -1.1853184608
 C    1.5664250263   -1.7930828282   -0.7037668868
 O    2.1198433655   -2.6168034216   -1.3832002299
 C    1.3100821041   -1.9107479666    0.8054725122
 C    0.8495846965   -0.4998936400    1.2441825238
 C    1.9870684492    0.3364431536    1.6173389590
 C    2.9375200959    1.0118291821    1.9123636435
 H    0.7120639525    2.1130393754    0.0252237293
 H   -0.7424258639    1.8063549162   -0.9415944905
 H   -0.8346117986    1.7987402649    0.8250397193
 H   -0.8454911263   -0.5249012404   -0.0632720552
 H    0.4661347169   -0.5796718640   -2.1402858663
 H    1.8225245837    0.2274146907   -1.3499963966
 H    0.4983058146   -2.6352410833    0.9475179918
 H    2.1874841317   -2.2885321645    1.3322361760
 H    0.1581071516   -0.5499418658    2.0921134392
 H    3.7728658235    1.6083472495    2.1849837095