16

 C    0.1285826587    1.4831480824    0.0793213727
 C   -0.0282766616   -0.0330070571   -0.0308691886
 C    0.7266205962   -0.6067599079   -1.3000470634
 C    1.9146160157   -1.2145342296   -0.6391167782
 C    1.7732601723   -1.2394620231    0.7050678760
 N    0.5540743123   -0.7365016984    1.1703261086
 N    2.8603215862   -1.8613149113    1.2333394837
 N    3.6504642255   -2.2054295476    0.3061517854
 O    3.0442409418   -1.8044035628   -0.9805284344
 H    1.1870517716    1.7631130817    0.1190031644
 H   -0.3255191695    1.9822977412   -0.7827798294
 H   -0.3633260526    1.8638270270    0.9807294910
 H   -1.0903044776   -0.2848676236   -0.0908275158
 H    0.1227732992   -1.3591341962   -1.8202377350
 H    0.9603247271    0.1826942008   -2.0214125450
 H    0.6277382546   -0.1225045258    1.9738863780