21

 C   -0.0314083749    1.5451317938    0.0183617477
 C   -0.0916504340    0.0195082439   -0.0428698589
 O    0.8416836282   -0.5701590279    0.8643305281
 C   -1.5121483667   -0.5188353496    0.1863123423
 C   -1.5776587605   -2.0243411809    0.0487841268
 C   -2.8515988673   -2.8515679627    0.0263242465
 C   -3.9192655407   -2.1531099035   -0.8092031608
 O   -2.9958147034   -1.9705612613   -1.9165494280
 C   -1.9933567884   -2.7162683685   -1.2145353352
 H    0.9954193283    1.8912148343   -0.1274195689
 H   -0.6653314317    1.9975356487   -0.7509257970
 H   -0.3804976386    1.9096348137    0.9932326660
 H    0.2499443483   -0.3133429514   -1.0306045728
 H    0.6228190215   -0.2543277495    1.7485148324
 H   -1.8480331885   -0.2111224157    1.1880205987
 H   -2.1895917375   -0.0522399730   -0.5363010595
 H   -0.7702890857   -2.5445915968    0.5590279866
 H   -3.0183395005   -3.6978533109    0.6792721903
 H   -4.7393300854   -2.8165204577   -1.1059474848
 H   -4.3280193804   -1.2038875372   -0.4425263872
 H   -1.4015074524   -3.4217648079   -1.7867772123