23

 C   -0.0415441123    1.5420926907   -0.0274519464
 C    0.0217909776    0.0079574939   -0.0634589368
 C    0.7231134743   -0.4572378248   -1.3427490257
 O   -0.0111398691    0.0292131043   -2.4592581702
 C    0.7058046227   -0.5653887837    1.1965222592
 C    0.0256465459   -0.1353630594    2.5283060017
 C    0.1831534834   -1.3332451446    3.4962996412
 C    0.4263763626   -2.4892749996    2.5569506867
 C    0.7102206179   -2.0783384407    1.3227923560
 H    0.9652943127    1.9685026808    0.0668792601
 H   -0.4841009246    1.9249759826   -0.9490161078
 H   -0.6357005101    1.9019811203    0.8168365726
 H   -1.0046219695   -0.3835844306   -0.1009841161
 H    1.7578308556   -0.0732146015   -1.3510704492
 H    0.7799633261   -1.5549152747   -1.3712207699
 H    0.4444422670   -0.2445376381   -3.2601577026
 H    1.7504767379   -0.2095290771    1.1860664552
 H    0.4329306565    0.7942614456    2.9325577733
 H   -1.0407586999    0.0327900032    2.3391600474
 H    1.0390387388   -1.2011468912    4.1740013338
 H   -0.6942327781   -1.4745724380    4.1376044078
 H    0.4106984640   -3.5240475334    2.8822944599
 H    0.9638958408   -2.7377503339    0.5005238800