17

 N    0.5117264319   -0.6033389870    1.7451923037
 C    0.3841220892    0.3001949516    1.0350944690
 C    0.1861720846    1.4030707907    0.1247517173
 N    0.5375399296    2.7547984805    0.5995431742
 C    1.3081357708    2.1729477656   -0.4994484919
 C    2.7766502792    1.8782379688   -0.2695689160
 C    3.3100517143    1.5835139684    1.1466018768
 C    3.7788539981    0.2479082263    0.5344757797
 O    3.1520242660    0.5638388219   -0.7351347190
 H   -0.7062766113    1.2875355994   -0.4851151077
 H   -0.1469005810    3.4278470058    0.2654430928
 H    1.0827264422    2.5179605319   -1.5077469057
 H    3.3545443219    2.6535089604   -0.7936826543
 H    4.0935677329    2.2592237870    1.4909251789
 H    2.5474185986    1.4981324769    1.9186014476
 H    4.8646033911    0.1365657609    0.4289703664
 H    3.3565982420   -0.6598310092    0.9754784882