17

 C   -1.2251935464    0.6574941030    0.2138185106
 C    0.0022747167   -0.2069398128    0.1434079621
 N    0.9539179143   -0.1970250846    0.9976077450
 O    0.7106586785    0.7085817629    2.0344533973
 C    0.1757793176   -1.1842423075   -0.9843107508
 C   -0.9311917441   -2.2780302874   -1.0983077911
 N   -1.5095448777   -2.1084273001   -2.4415742474
 C   -0.9021108629   -1.1233953062   -2.9542050562
 O    0.0658262265   -0.4792937417   -2.2583925589
 H   -0.9573561159    1.7042646325    0.0358133326
 H   -1.9683620721    0.3624830895   -0.5288499438
 H   -1.6678764182    0.6103117305    1.2125372427
 H    1.4899530724    0.5988041970    2.5899458223
 H    1.1784420370   -1.6114946004   -0.9261272595
 H   -0.5184435825   -3.2847400912   -0.9884716127
 H   -1.7129073853   -2.1616321423   -0.3400085907
 H   -1.0841062080   -0.7171559511   -3.9432537214