18

 C    0.0290295520    1.5281934654   -0.0793547945
 C   -0.0011003268    0.0013201355    0.0599042040
 C    0.7046645387   -0.4906853177    1.2995990522
 C    0.4498991693   -0.2122218283    2.7804117595
 N    1.6484119670   -1.1550582274    2.8746656971
 C    1.0694080817   -1.9787114251    1.6792250632
 C    2.3953278002   -1.8433588076    0.9466410424
 O    3.1063740146   -2.4436901830    0.2025811024
 C    2.2576059639   -0.4794587735    1.6047342851
 H    1.0568093917    1.8997020766   -0.1462227635
 H   -0.5015863855    1.8489276715   -0.9800723169
 H   -0.4466048102    2.0149123523    0.7786032657
 H   -1.0408438011   -0.3498059313    0.0850756369
 H    0.4613297430   -0.4661651275   -0.8189069088
 H    0.6552904010    0.7910051170    3.1665640474
 H   -0.4602791036   -0.6173955313    3.2344452434
 H    0.3887056551   -2.8112380764    1.8503827939
 H    2.9199991789    0.3800127708    1.6932578804