18

 C    0.1771365854    1.3279557904   -0.1500474178
 C    0.0585826825   -0.1502205155    0.0031199262
 O    0.6015749279   -1.0395705408   -1.0276474232
 C    0.0351489411   -1.9668966426   -0.0450430211
 C    0.1986977291   -3.4266846080   -0.3297540251
 O    1.5683090370   -3.7717853414   -0.4265086311
 C    0.4431288065   -1.0898413923    1.1876375716
 N   -0.9362296263   -1.0035353117    1.7697709399
 C   -1.1881850928   -1.0509728609    0.2926643348
 H    1.2280994855    1.6276293184   -0.2039548631
 H   -0.3269856913    1.6645510974   -1.0608839527
 H   -0.2854551124    1.8183856826    0.7113611087
 H   -0.2288526599   -4.0180267341    0.4878055600
 H   -0.3526484089   -3.6791275784   -1.2496906599
 H    1.9713547847   -3.1254981593   -1.0185670658
 H    1.3580548274   -1.1115882219    1.7799878786
 H   -1.1945017279   -1.8934153217    2.2030575827
 H   -2.1798430478   -1.0188370702   -0.1607636425