23

 C   -0.0904578997    1.5963262558    0.2475934260
 C    0.0418258495    0.0785801429    0.0932783124
 C    0.7907543173   -0.5951478870    1.2461945409
 O    0.0731119341   -0.3003616578    2.4667907390
 C    0.6771053396    0.4210354924    3.4255634763
 O    0.1449748644    0.7034123202    4.4577875892
 C    0.9160151041   -2.1260926555    1.1271751743
 C    1.6596376911   -2.5377635045   -0.1528433917
 C    1.6065267069   -2.7260229984    2.3605017226
 H    0.8917354111    2.0768287508    0.3248878410
 H   -0.6006012873    2.0282688448   -0.6181232054
 H   -0.6662372772    1.8580353751    1.1390743976
 H   -0.9520433418   -0.3780804621    0.0112356411
 H    0.5708756481   -0.1460379614   -0.8379221974
 H    1.8001457883   -0.1610029011    1.3271919859
 H    1.7090976628    0.7190251034    3.1543615196
 H   -0.1061066957   -2.5251998297    1.0796610346
 H    2.6574453798   -2.0840798244   -0.1937646836
 H    1.7934390794   -3.6234449447   -0.1765932868
 H    1.1227803114   -2.2541950595   -1.0614040279
 H    1.0622615433   -2.4997843700    3.2798340478
 H    1.6717046613   -3.8143974220    2.2687163359
 H    2.6295809592   -2.3434613673    2.4647616885