18

 C   -0.3687694029    1.3533284774   -0.0624126760
 N   -0.0893366566   -0.0642467363    0.0120534992
 C    0.6141227441   -0.6350948141   -0.8733958414
 O    0.9061855882   -1.9591398096   -0.8214864900
 C    0.3565374554   -2.6817207301    0.2599916952
 C   -0.9208749610   -3.4321484829    0.0332917461
 C    0.4057937888   -4.1656169253    0.1096251048
 C    1.2166686594   -0.0290501350   -2.0318822608
 C    1.7031798789    0.5105351185   -2.9900003688
 H    0.0091680896    1.8407098406    0.8439997520
 H    0.0620284889    1.8577286092   -0.9367382609
 H   -1.4545782223    1.5034044128   -0.0704821189
 H    0.5324186556   -2.2184553953    1.2233822817
 H   -1.6206354824   -3.5131561354    0.8572916386
 H   -1.3762225262   -3.3398500617   -0.9459496899
 H    0.8129366784   -4.5494380835   -0.8187838921
 H    0.6303910317   -4.7619261011    0.9865953324
 H    2.1378006527    0.9780241017   -3.8394584711