18

 N   -0.3335548000    0.7695051740    0.6973471983
 C   -0.4377641419   -0.4719243638    0.4909000357
 O   -0.7735458886   -0.9194371701   -0.7386279673
 C   -0.9559045497   -2.3324326897   -0.8614629509
 C   -2.3215769760   -2.7580662747   -0.3805926436
 C   -2.6780649344   -4.1613672277    0.0841949600
 C   -1.5647074255   -4.7388772818    0.9532965912
 O   -1.5205592134   -3.5350499318    1.7698912158
 C   -2.6468851653   -3.0050389864    1.0617207218
 H   -0.0555514596    0.9324103256    1.6630859639
 H   -0.2747765487   -1.2761350772    1.2200485284
 H   -0.8381451996   -2.5460679753   -1.9267659975
 H   -0.1654535342   -2.8605424736   -0.3181701327
 H   -3.1430788863   -2.2873332302   -0.9163677686
 H   -3.5109130669   -4.7183183380   -0.3222188703
 H   -1.8971629010   -5.5899416714    1.5570077911
 H   -0.5986057143   -4.9714945757    0.4916236602
 H   -3.4130223245   -2.4977629922    1.6360355746