16

 C   -0.0695657118    1.5284482204    0.0064593984
 C    0.1080013198    0.0435979112    0.0297919486
 N   -0.7797269199   -0.8579231473    0.7932457644
 C    0.6853603321   -0.9026361832    1.0266457347
 C    1.2411088168   -1.8233856063   -0.0610698155
 C    0.6663511729   -0.8166847765   -1.1327038722
 C   -0.2798597103   -1.3109265079   -2.1216551655
 N   -1.0244034846   -1.6926596169   -2.9194115904
 H    0.8194849222    2.0283987607   -0.3921141151
 H   -0.9237305329    1.8113646256   -0.6192273677
 H   -0.2485808963    1.9143089683    1.0156027770
 H   -1.1949697317   -0.3025139679    1.5411143348
 H    1.0996690756   -0.7091639032    2.0083249246
 H    2.3302046507   -1.8727589249   -0.0991503813
 H    0.8156698404   -2.8277914059   -0.0792492098
 H    1.4802184270   -0.2976586562   -1.6459914249