21

 C   -0.1210068879    1.5440524112   -0.1068053557
 C   -0.2320414470    0.0337769675   -0.3300570886
 C    1.0330614526   -0.5687988413   -0.9552519521
 C    0.9338102532   -2.0674518759   -1.1552710516
 C    0.2638212364   -2.6412481489   -2.3887344219
 C    1.7519361788   -2.7733258126   -2.1932780883
 O    2.6247837158   -1.9711984468   -2.9679232522
 C    2.8003329678   -2.3431667373   -4.2543857702
 O    3.5376092342   -1.7648632948   -4.9939044652
 H    0.7112344603    1.7854486687    0.5636090814
 H    0.0535822528    2.0716451347   -1.0510055892
 H   -1.0350852151    1.9496224579    0.3376643835
 H   -0.4377349347   -0.4653056797    0.6262270661
 H   -1.0924461249   -0.1832511560   -0.9758589873
 H    1.2407417869   -0.0835163643   -1.9150250350
 H    1.8972935330   -0.3495303721   -0.3141774147
 H    0.7910614227   -2.6332884458   -0.2376661860
 H   -0.3509089115   -3.5306777333   -2.3069972052
 H   -0.0653355627   -1.9300377589   -3.1396762536
 H    2.1728666609   -3.7461436588   -1.9554370697
 H    2.1922819687   -3.2250146737   -4.5305541247