18

 C   -0.0445313106    1.5759039223    0.0072968752
 C    1.5019980213    1.4477797776    0.0232818898
 O    1.3858404826    0.0608366897    0.4527713622
 C    0.0008772311    0.0377454595    0.0098064282
 C   -0.0869710961   -0.6474574616   -1.3440859008
 N   -0.6429102235    0.1013407999   -2.4816810709
 C    0.8077130977   -0.2473882145   -2.4621419845
 C    1.8000476492    0.8610442787   -2.4072310793
 C    2.1231995829    1.5972612265   -1.3411005115
 H   -0.4412205269    1.9718459523    0.9436783998
 H   -0.5026768488    2.0623535401   -0.8511387166
 H    2.0411888607    2.0402991283    0.7681073203
 H   -0.6413374813   -0.4688201305    0.7377565821
 H   -0.3116263669   -1.7111966370   -1.2869880475
 H   -1.1412622535   -0.5248730516   -3.1093435353
 H    1.0993746864   -1.0536378933   -3.1331218720
 H    2.2968794573    1.0713279391   -3.3523351201
 H    2.8499220384    2.3975429144   -1.4582328991