23

 C    0.0406973549    1.5865487123    0.1098942642
 C    0.0282641313    0.0605006020    0.0532124423
 C    0.5778217878   -0.4620690290   -1.2988865703
 C   -0.1303367150   -1.6800628985   -1.9201390108
 C   -0.3182259792   -2.8991594677   -0.9859124891
 C    0.9454631133   -3.2937788352   -0.2720764903
 C    1.3581587751   -2.7528269764    0.8750797165
 C    0.6016079128   -1.6900290480    1.6439544298
 O    0.8047106956   -0.3625239503    1.1743945726
 H    1.0581161382    1.9631401420   -0.0385015366
 H   -0.5995317185    2.0067075170   -0.6718547394
 H   -0.3145593909    1.9349782851    1.0829935982
 H   -1.0102774795   -0.2861225371    0.1904950973
 H    0.5317687367    0.3502273231   -2.0335943811
 H    1.6395256662   -0.6776526417   -1.1459110262
 H   -1.1212496829   -1.3815252784   -2.2858861141
 H    0.4393420092   -1.9876031170   -2.8061372255
 H   -1.0977247498   -2.6633722453   -0.2532263565
 H   -0.6985181895   -3.7385741714   -1.5782581556
 H    1.5819173795   -4.0244662484   -0.7682559771
 H    2.3157044283   -3.0567628409    1.2909723696
 H   -0.4755502816   -1.9171467128    1.6604642304
 H    0.9441617480   -1.6785902634    2.6833413418