17

 C   -0.0002585490    1.5707935841    0.0168485428
 C    1.5146632584    1.8179101475   -0.0329889526
 C    2.0389386620    1.3106963304   -1.4358484707
 O    0.9576049978    0.7513024397   -2.2150808650
 C    0.9099832856   -0.3509640215   -1.2663526404
 C    2.3589940462   -0.0417405586   -0.7698245803
 C    2.0603655182    0.4872809072    0.6440084238
 O    0.9319085054   -0.2485014367    1.1000319463
 C    0.0566237154    0.0298622995   -0.0033930435
 H   -0.4456991186    1.9133268519    0.9533692931
 H   -0.5267020912    2.0021399766   -0.8344436052
 H    1.8702181920    2.7814328927    0.3270017568
 H    2.7111576257    1.9377592657   -2.0207940046
 H    0.6595159950   -1.3003134303   -1.7399681675
 H    3.1763922246   -0.7152735065   -1.0177154529
 H    2.8344232643    0.5291497085    1.4068009905
 H   -0.8803322318   -0.5099663500    0.1254840592