9

 N    0.0854995499    1.3445668118    0.1578397892
 C   -0.0506611948   -0.0005337517    0.0335765688
 N   -1.1523969409   -0.6670115543   -0.0434270006
 O   -0.7047844012   -2.0304042635   -0.0529545001
 C    0.6393013607   -2.0674952337   -0.0096486410
 O    1.3481452365   -3.0162710498   -0.0193699502
 O    1.0767649831   -0.7426983012    0.0506245764
 H    0.9371276460    1.7333165170   -0.2186346970
 H   -0.7497155793    1.8738329454   -0.0446079557