15

 O   -0.0449831160    1.4926407715   -0.0180209586
 C    0.0202377268    0.0952205443    0.0154033490
 C   -0.0279075589   -0.6436318716    1.3985240904
 C   -1.4984474264   -0.1454950756    1.5227134611
 C   -1.3532029843   -0.6211692132    0.0442819236
 C   -0.6055861283   -1.8716425464    0.6201819258
 C    0.2677288550   -2.6526117185   -0.2433587177
 N    0.9548790602   -3.2933583603   -0.9179454533
 H    0.8519361514    1.8394357512    0.0006501446
 H    0.7479533615   -0.2953956641   -0.7044395008
 H    0.7389199745   -0.6841382128    2.1722975925
 H   -2.1610593947   -0.7335722308    2.1621876943
 H   -1.6289672317    0.9244803767    1.6662362355
 H   -2.1110337116   -0.6331041324   -0.7383562169
 H   -1.2311934176   -2.5362853179    1.2193639006