17

 N   -0.0447648220   -1.1716389116   -0.1274768738
 C   -0.0375301959   -0.0175956417   -0.0593295901
 C   -0.0101396672    1.4422200416    0.0333254423
 C   -0.5975804982    1.9589571142    1.3891259188
 C    0.6359038146    2.2765312811    2.2272594232
 C    1.8797458955    1.8773928158    1.5438044494
 C    1.4398706776    1.9790803777    0.0634723194
 C    1.4090820852    3.5073229933    0.2998011744
 N    1.5875143672    3.3391793872    1.7822484637
 H   -0.5598370473    1.8471192065   -0.8231841108
 H   -1.2276377800    2.8388942060    1.2292084525
 H   -1.2144761576    1.2014971823    1.8770100849
 H    0.5634264623    2.2305084843    3.3078995671
 H    2.7308969653    1.3602269209    1.9683023251
 H    2.0847720419    1.5924510704   -0.7232756976
 H    2.2901071401    4.0177656470   -0.0940875551
 H    0.5115843086    4.0579325251   -0.0061634131