20

 C    0.0735790749    1.5214275607   -0.0311041066
 C    0.0209411193    0.0679281964    0.0201577259
 C   -0.0156940088   -1.1358346550    0.0720930238
 C   -0.0429567213   -2.5819986783    0.0851815284
 N   -0.0928976245   -3.2979949944    1.4689653601
 C   -1.5796968118   -2.8967901751    1.4776268314
 C   -1.3948915804   -3.3659929072    0.0138581948
 C   -2.3890265340   -3.4001699871   -1.1180658346
 C   -0.5761715771   -4.5099944236    0.6547030031
 H    0.8058135395    1.8669392316   -0.7691258268
 H   -0.8985371582    1.9483211825   -0.3016323646
 H    0.3602921295    1.9393082412    0.9402935193
 H    0.7641769221   -2.9875945057   -0.5348118253
 H   -2.1876914715   -3.5212724073    2.1381263520
 H   -1.7449090919   -1.8342061945    1.6639573782
 H   -2.7458517501   -2.3909756618   -1.3495136988
 H   -1.9388017187   -3.8155512459   -2.0262586362
 H   -3.2573827100   -4.0162129038   -0.8604628872
 H    0.2113695309   -4.9828910265    0.0597126253
 H   -1.1136153678   -5.2445660964    1.2597727079