18

 C    0.2000875611    1.5568151590    0.0704395908
 N    0.0033413425    0.1260385206    0.0960905135
 C   -1.3171274888   -0.4020257969    0.4893748209
 C   -0.6020782651   -1.5131435268    1.2754902634
 C    0.6731455870   -0.6639320065    1.1470262272
 C   -1.1124907946   -2.1859215028    2.5522799867
 C   -1.0081803831   -3.4678651204    1.7258278710
 O   -1.2060618980   -4.6307915569    1.8618098159
 O   -0.5522751224   -2.8168944956    0.6055678358
 H    1.2455707298    1.7831550455   -0.1625436005
 H   -0.4210525657    2.0024555398   -0.7132284210
 H   -0.0523800892    2.0486269218    1.0303708529
 H   -1.8834248464    0.2669923297    1.1596033799
 H   -1.9608069062   -0.7186794524   -0.3374645300
 H    1.5833494542   -1.1850608907    0.8336426644
 H    0.8753654989   -0.0960471175    2.0712017899
 H   -0.4463620172   -2.1497294401    3.4165493592
 H   -2.1275558670   -1.9284464298    2.8610698302