16

 C    0.0750111818    1.5232339472    0.0503061702
 C   -0.0248862368    0.0266784214   -0.0200067679
 C   -0.0459761032   -0.6502386543   -1.1780245954
 C   -0.1430635543   -2.1123378317   -1.2531600911
 O   -0.1612904193   -2.7175603824   -2.3012486098
 C   -0.2242549228   -2.8894893612    0.0771683459
 O   -0.3065722185   -4.0970034610    0.1129136713
 N   -0.1965214692   -2.1165936310    1.2067330165
 C   -0.1010117047   -0.6777484282    1.3008830235
 H    0.9664296820    1.8321590851    0.6098403690
 H    0.1253688924    1.9645147472   -0.9467048643
 H   -0.7885982747    1.9511450700    0.5739446302
 H    0.0092619403   -0.1345093516   -2.1325742757
 H   -0.2506479897   -2.6427477866    2.0679743748
 H    0.7834925805   -0.3965831485    1.8949496284
 H   -0.9641990039   -0.2781451442    1.8572750343