17

 O   -0.0776319229    1.3572019288    0.0241631646
 C    0.0308085650   -0.0388830277    0.0400290390
 C    0.6614301106   -0.7332818468   -1.2319179993
 C   -0.3612354339   -1.8718096954   -1.3064922030
 O   -1.5960904713   -1.1017627868   -1.4228680957
 C   -1.3526182678   -0.7852131434   -0.0390261888
 C   -0.7370547842   -2.1784190814    0.2162155456
 C    0.2917858355   -1.9757835697    1.2853581179
 C    0.6909394799   -0.6987617912    1.2370603891
 H    0.7938977520    1.7330571472   -0.1351940617
 H    0.5639946847   -0.0999059624   -2.1169375147
 H    1.6991768848   -1.0392231115   -1.0847926070
 H   -0.2506623668   -2.6569727983   -2.0533506596
 H   -2.1945752161   -0.3585739821    0.5064235252
 H   -1.4399598253   -3.0044306823    0.3073019513
 H    0.6457887114   -2.7436699958    1.9617899871
 H    1.4452878544   -0.2169504814    1.8489288402