20

 C   -0.1405919409    1.6183741706    0.0332827629
 C   -0.0693798431    0.0963208918    0.0250732735
 C   -1.4297414172   -0.5348268031   -0.2791176113
 O   -1.9262623363   -0.1526262357   -1.5596894776
 C    1.1489097610   -0.5571170457   -0.6688903924
 C    2.1382842689   -0.2377090935    0.4932804730
 C    2.5270904431   -1.7090416918    0.5425659855
 N    1.0437284379   -1.8307117596    0.2178652022
 C    0.7596268956   -0.5980071854    1.1266885958
 H    0.8420354966    2.0819349852    0.1569102233
 H   -0.5775589483    1.9730036247   -0.9041031225
 H   -0.7830640096    1.9692067346    0.8492085782
 H   -1.3673136134   -1.6246828266   -0.1834787993
 H   -2.1703174725   -0.1729308082    0.4437806748
 H   -1.4163846059   -0.6298265082   -2.2214823615
 H    1.3904415560   -0.6487975452   -1.7316242494
 H    2.7421838845    0.6618542025    0.6450751481
 H    3.1789988522   -2.0996716951   -0.2461311318
 H    2.7973584060   -2.1415698907    1.5117224512
 H    0.5338520554   -0.7408369907    2.1865029471