15

 O    0.1176408314    1.3875837114    0.0078952530
 C    0.0004893891   -0.0077269962    0.0011713896
 C   -1.4734961911   -0.3972928756    0.0146779833
 O   -2.3758469286    0.4044995067    0.0287344565
 C   -1.6979111431   -1.8332463117    0.0090926183
 C   -1.8893497027   -3.0238138034    0.0045419707
 C   -2.1205825559   -4.4678371481   -0.0009634768
 C   -3.5353090590   -4.8404269741    0.0093509971
 C   -4.6921556862   -5.1585539339    0.0177201643
 H    1.0533066515    1.6088500114   -0.0018243097
 H    0.4525633479   -0.4775077406   -0.8899481883
 H    0.4714373632   -0.4875937204    0.8770213160
 H   -1.6294931305   -4.9041234361   -0.8820516922
 H   -1.6143796826   -4.9131475919    0.8669613145
 H   -5.7185157133   -5.4315457175    0.0252280837