17

 O    0.0050384194   -0.0669276493    0.1556882923
 C   -0.0119967117    1.1240258677    0.0776348405
 C   -1.0901781832    2.2258644262   -0.0406069882
 C   -0.8085365966    3.0191217988    1.2614312115
 C    0.7677245035    3.0401697028    1.2385238009
 C    1.0324930218    2.2542071543   -0.0714539111
 C   -0.0507387922    2.8711293162   -0.9827578384
 C   -0.0749600838    3.1283180854   -2.4139903461
 O   -0.0751437086    4.2005516546   -1.4412178979
 H   -2.1193054725    2.0240095273   -0.3266874431
 H   -1.2318425527    4.0242232415    1.2078113997
 H   -1.2123441440    2.5182281297    2.1440654870
 H    1.1623102080    4.0561925439    1.1730121305
 H    1.2102344961    2.5505817315    2.1088609465
 H    2.0578955231    2.0797886019   -0.3873944053
 H    0.8381273291    3.0394172300   -3.0000382325
 H   -1.0019851357    3.0148584776   -2.9733074664