20

 C   -0.0459780707    1.5010462754    0.0978538393
 C    0.0389527101   -0.0292527260    0.0688852407
 C   -1.3501965657   -0.5547308570   -0.2962632744
 N    1.2176349438   -0.6154384682   -0.7797121646
 C    2.1371652109   -0.1578441667    0.3741129940
 C    0.9446253427   -0.7658942457    1.1386945337
 C    1.0612062421   -1.8883078429    0.0763388686
 C    0.7282726089   -0.8719780503    2.6130792374
 O    1.4546220226   -0.3760106475    3.4396597329
 H   -0.0032679538    1.8833564643   -0.9280084918
 H   -1.0028771683    1.8126768755    0.5258746956
 H    0.7384176899    1.9899988285    0.6747315473
 H   -1.6647350942   -0.0961392210   -1.2400366346
 H   -1.4260000987   -1.6341483501   -0.4177806099
 H   -2.0730123680   -0.2539483249    0.4689797429
 H    3.0765673111   -0.7125451778    0.4097525938
 H    2.3237080363    0.9114947424    0.4147446928
 H    0.2021186479   -2.5098753260   -0.1613030995
 H    1.9723057889   -2.4896762501    0.1059274404
 H   -0.1815359460   -1.4423625617    2.9160222353