11

 O    0.0741288311   -0.0894837245   -0.0021155351
 C    0.0280233794    1.1158953231    0.0084917777
 C    1.1978727487    1.9934480168    0.0020978955
 C    1.3373304304    3.3555763904    0.0118787254
 N    2.6700446773    3.6822178863   -0.0010660643
 C    3.2734246996    2.5249089183   -0.0177763335
 O    2.4521419945    1.4553755261   -0.0171114976
 C    4.6734184389    2.2874469672   -0.0362157951
 N    5.8134914795    2.0960030356   -0.0512165878
 H   -0.9283340856    1.6785757585    0.0244044456
 H    0.5666934762    4.1107350722    0.0272332293