19

 C   -0.0076714136    1.4736433912   -0.1595788318
 C    1.3648510340    2.1052703179   -0.0442796411
 C    2.1511236694    2.0316859842    1.0332154575
 C    1.8370115830    1.3700931831    2.3285672621
 N    0.4314523712    1.3595348232    2.7856496685
 C    1.0577115458    0.0849451401    2.4489788701
 C    0.5713304702   -0.6728852671    1.2508686499
 N   -0.8716569129   -0.6874007817    0.9354427816
 C    0.0672669770   -0.0362771792    0.0053810524
 H   -0.6666603169    1.8692582607    0.6152370913
 H   -0.4528944628    1.7109179313   -1.1310681632
 H    1.7422175770    2.6413332407   -0.9117438697
 H    3.1313202509    2.5011203234    0.9921141866
 H    2.5951361020    1.5188949492    3.0948372481
 H    0.3812611685    1.4794077447    3.7926067554
 H    1.3509492192   -0.5567331603    3.2792778952
 H    1.1146145204   -1.6070640678    1.1115074136
 H   -1.1386382278   -1.6042162853    0.5863871343
 H    0.3086370255   -0.5746956382   -0.9102193607