22

 C   -0.6636741855   -0.0670418762    0.0399845211
 C   -0.0361243657   -1.0805108298   -0.9217841358
 C    1.0793901260   -0.4493608914   -1.7594411794
 O    1.5890026135   -1.2805152402   -2.7906892230
 C    2.5032931681   -2.2691637234   -2.3819326453
 C    1.8764013394   -3.5512165667   -1.8574887900
 N    2.3227305344   -4.1035046931   -0.8054218783
 O    0.8824238312   -3.9650899796   -2.6796927643
 C    0.1971989053   -5.1589852304   -2.3331540091
 H    0.0804868868    0.3360323404    0.7361031727
 H   -1.1011624574    0.7787736150   -0.5022528381
 H   -1.4578075813   -0.5259471693    0.6360731503
 H    0.3640213693   -1.9268244359   -0.3527906933
 H   -0.7942075845   -1.4813442136   -1.6043597695
 H    0.6918614656    0.4377587123   -2.2740963603
 H    1.9004872327   -0.1162188806   -1.1032551852
 H    3.0871995197   -2.5271231760   -3.2740645584
 H    3.1927568159   -1.9040858489   -1.6106400701
 H    1.8596434595   -4.9864101891   -0.5918625304
 H    0.8728689836   -6.0231537998   -2.3304870381
 H   -0.2817256632   -5.0737314407   -1.3501359195
 H   -0.5675128433   -5.3019524628   -3.0972557659