20

 O    0.2232738279    0.0436278351   -0.1338529450
 C    0.0424634935    1.2282929354   -0.0389116608
 N   -1.0917034562    1.9994473051    0.0426870757
 C   -0.3994102050    3.2827820318    0.1840825244
 C    0.9426648120    2.4913597023    0.0701002717
 C    1.8923075172    2.5208313702    1.2504868223
 C    3.1471503357    1.6021010334    1.2173402613
 C    3.9529431221    2.7457094690    1.8904973861
 C    2.8456683886    3.7373937403    1.4405764953
 H   -2.0694216351    1.7504866690    0.0692540916
 H   -0.6003316078    3.9941568281   -0.6230523050
 H   -0.5559952846    3.7717365468    1.1516399571
 H    1.4780979204    2.6914137950   -0.8637313041
 H    1.3298864815    2.3427661731    2.1753740563
 H    3.0815065406    0.6394755456    1.7274129272
 H    3.4786412657    1.4246850944    0.1894738820
 H    3.9805499012    2.6372529981    2.9786036215
 H    4.9698866930    2.9283119068    1.5361349531
 H    3.0892955467    4.2017946558    0.4789792782
 H    2.5404717925    4.5224613747    2.1371061410