19

 C   -0.1873351043    1.5571615348    0.0392735819
 C   -0.0124798478    0.0462290516    0.0139888536
 O   -1.2248910265   -0.6036104109   -0.3009239544
 C    1.1771149041   -0.4860950708   -0.7998569582
 N    1.2971788847   -0.6167341232   -2.0523941853
 N    1.8897222589   -0.8042099159    0.3490849508
 C    0.7393969467   -0.5681605763    1.2251519066
 C    0.7761051367   -0.1579003705    2.6569687773
 C    0.1852900769   -1.5025506907    2.2432110364
 H    0.7371454696    2.0591669069    0.3386187064
 H   -0.4740484333    1.9127834354   -0.9544795541
 H   -0.9800507966    1.8273774443    0.7439205667
 H   -1.1614874121   -0.8716721912   -1.2259274144
 H    2.1551656194   -1.1030862875   -2.3173960752
 H    2.5642095697   -1.5529476123    0.4375429071
 H    1.7350995184   -0.1633174041    3.1653879122
 H    0.0995502958    0.6239093183    2.9873390397
 H   -0.8914348673   -1.6308501015    2.2665921189
 H    0.7519510970   -2.3959736865    2.4872266240