17

 O   -0.0609788565   -0.0148413370   -0.2504582584
 C    0.0984357225    1.0695548007    0.2612422053
 C    1.2546236878    1.9036956304    0.0616853212
 C    2.2072550701    2.6318104984   -0.0796412278
 C    3.3742727416    3.4743031917   -0.2820975516
 O    3.2506120055    4.6696050602    0.4678141978
 C    4.3396468645    5.5256070759    0.2833798833
 C    4.3625296576    6.4331866629   -0.9210743822
 C    4.0691109913    6.9812053755    0.4625221908
 H   -0.6599236973    1.5087340176    0.9407479371
 H    4.2777752222    2.9155656372    0.0162167402
 H    3.4832103108    3.6954761320   -1.3563262892
 H    5.2884220618    5.1223825424    0.6399864702
 H    5.3149128877    6.6605231327   -1.3868627913
 H    3.5240417421    6.3621888134   -1.6050944738
 H    3.0427571430    7.2564695467    0.6754322842
 H    4.8180288854    7.5874070693    0.9587907141