18

 O   -0.0811482938    1.3806744354   -0.0561922959
 C    0.0100753389   -0.0137483206   -0.0324731106
 C   -0.3872117696   -0.7229259512    1.2436045198
 C   -1.3162861760   -0.7119224489    0.0483635112
 N   -1.5380224592   -2.0756740679   -0.4363445075
 C   -0.4062827479   -2.7759543289   -1.0582302376
 C   -0.7041160321   -2.9726721440    0.3845986170
 C    0.0968353813   -2.1616591601    1.4200620189
 O    1.5111419626   -2.2155127727    1.2455466456
 H    0.6754520624    1.7328618385    0.4250453398
 H    0.8221331982   -0.4314261282   -0.6209503466
 H   -0.5822314699   -0.1169030033    2.1206678805
 H   -2.1971570638   -0.0807577814    0.0235583657
 H   -0.6940596272   -3.5401474089   -1.7753326861
 H    0.4884485926   -2.2268253981   -1.3289337835
 H   -1.1764598682   -3.8923308124    0.7228159959
 H   -0.1676169933   -2.5130713504    2.4276637160
 H    1.7789761148   -3.1391806469    1.2908647275