17

 C   -0.0797501586    1.5230160082    0.0097024977
 C   -0.0740056279    0.0287740233   -0.0639835449
 C    0.7278253405   -0.8346951661   -1.0535357117
 C   -0.2421244365   -2.0186514763   -0.7151690380
 N    0.2509494648   -2.7786973567    0.4250293185
 C    0.4190511636   -1.8846477795    1.4782399538
 O    1.0990141876   -2.0328839092    2.4572020501
 N   -0.4011937400   -0.7248988848    1.2009629171
 C   -1.1664404982   -0.9846833071   -0.0204667158
 H    0.8823921017    1.8947992686    0.3784281187
 H   -0.2526747566    1.9579550085   -0.9804960533
 H   -0.8599023994    1.8700964131    0.6910566949
 H    0.5761587692   -0.4653310145   -2.0717346784
 H    1.7959526717   -0.9965314209   -0.8739009270
 H   -0.6147674253   -2.6425903352   -1.5243802121
 H    0.9918817161   -3.4552216737    0.3030885400
 H   -2.2477814625   -0.9153694077   -0.0129197495