15

 C   -0.0217678471    1.5427055873    0.0006925899
 C    0.0250488727    0.0381747705   -0.0022834656
 C    0.3005076332   -0.7676956311    1.2221801379
 N    1.3173416153   -0.6682198530    0.1494818538
 C    1.2678713921   -1.8159507519   -0.7170071881
 O    2.1134349382   -2.6574744335   -0.8155505061
 N    0.0645891445   -1.7671791829   -1.4245068095
 C   -0.7426178139   -0.6883128242   -1.0835417870
 O   -1.7937739146   -0.3863205496   -1.5867379825
 H    0.5835879489    1.9458225538    0.8153351792
 H    0.3547155703    1.9454613687   -0.9439900052
 H   -1.0554819782    1.8769583073    0.1238399904
 H    0.5629825654   -0.2463850187    2.1373172797
 H   -0.2031533506   -1.7207131614    1.3588001048
 H   -0.1963323761   -2.4697237612   -2.1006152917