18

 O   -0.0312574906    0.8912752526    1.5109230539
 C   -0.0138292362    1.4153658040    0.4134413204
 C   -1.3046200643    1.5818155494   -0.3806371559
 C   -1.4215099849    2.9133521819   -1.1291894781
 N   -0.7830934919    2.8342692552   -2.4427254778
 C    0.0762923439    3.9428176605   -2.8404116583
 C    0.6536420719    2.6005734105   -2.5087700357
 C    1.5498074374    2.4000858285   -1.3448199018
 C    1.2804318677    1.8960255990   -0.1326849373
 H   -1.3807732741    0.7646631905   -1.1096044244
 H   -2.1215678346    1.4542772021    0.3335420066
 H   -2.4772038405    3.1489075745   -1.3005595501
 H   -1.0103992912    3.7258392267   -0.5097526124
 H    0.0030436558    4.2684778470   -3.8745055237
 H    0.2359952008    4.7400562422   -2.1158597446
 H    0.9463397542    1.9838265103   -3.3608616963
 H    2.5896580763    2.6493090698   -1.5579516550
 H    2.0921867903    1.7822768355    0.5806301804