19

 C   -0.0196389076    1.5493775489    0.0226054492
 C   -0.0023046941    0.0184259677   -0.0352175427
 C   -1.4212779303   -0.5497428615    0.0493504607
 C    0.7765245376   -0.5122654535   -1.2684675950
 C    2.1693520992   -0.8313885623   -0.7064421908
 C    1.8162819672   -1.2781722742    0.7127740003
 O    0.7438847699   -0.4405635407    1.1161879139
 H    0.9904971469    1.9540937024   -0.0928218425
 H   -0.6523045140    1.9665081400   -0.7680510071
 H   -0.4082097911    1.8837787028    0.9888809917
 H   -2.0165536706   -0.2501765204   -0.8202159707
 H   -1.3949948936   -1.6430858423    0.0859474981
 H   -1.9261091106   -0.1902268695    0.9510730292
 H    0.3054214496   -1.4254110591   -1.6480680266
 H    0.7945427139    0.2133770262   -2.0852873210
 H    2.7037682515   -1.5941845942   -1.2784877069
 H    2.7931504131    0.0680992836   -0.6743643980
 H    1.5121760128   -2.3385225238    0.7212191531
 H    2.6329469500   -1.1580700503    1.4318581651