19

 O    0.0872819741    1.4202032272    0.0642634287
 C    0.0205748621    0.0059364747    0.0462717384
 C   -1.4363980166   -0.5431285020    0.0205721428
 C   -1.6208345653   -1.3446804480   -1.2792544101
 C   -1.2852113679   -0.4420738510   -2.4712977763
 O    0.0698490223    0.0305666051   -2.3478274063
 C    0.7189304494   -0.5328321808   -1.2129218960
 O    0.7224602060   -1.9364554086   -1.2429521850
 C   -0.6025618016   -2.4877284819   -1.2838413838
 H   -0.0515478164    1.7047186612   -0.8486716333
 H    0.5565909613   -0.3392981404    0.9345005993
 H   -1.6361631084   -1.1784607130    0.8892108989
 H   -2.1259494773    0.3049986616    0.0671870094
 H   -2.6366009132   -1.7386430572   -1.3771496246
 H   -1.3743341438   -0.9900467097   -3.4183404803
 H   -1.9557259668    0.4258393693   -2.5162179445
 H    1.7597172156   -0.2101051350   -1.2705970854
 H   -0.7393949028   -3.1479847453   -0.4172647749
 H   -0.6924588808   -3.0954383060   -2.1936909570