19

 C    0.0114871937    1.5348340144   -0.0035949761
 N    1.2563264802    0.7147156786    0.0715962674
 C   -0.0265822715    0.0675358350    0.0076945211
 C   -0.6029849475   -1.0166336423    0.9076329057
 C   -1.8694409404   -1.0803681803   -0.0098999609
 C   -2.3350645076   -2.5300273013   -0.0428402105
 C   -0.9323447511   -3.1974962105   -0.0668616942
 N    0.0129968683   -2.0544367956   -0.0455235935
 C   -0.6130782084   -0.9734797794   -0.9375365503
 H   -0.2028541114    2.1099566785    0.8932617314
 H   -0.2188579526    2.0487467446   -0.9342751111
 H    1.7276270651    0.6889978378   -0.8293095276
 H   -0.5379345726   -1.1289831103    1.9909958661
 H   -2.6124676236   -0.2803633215    0.0119594397
 H   -2.9252476077   -2.7983329922    0.8388414400
 H   -2.9361713080   -2.7559775252   -0.9290964049
 H   -0.7436794969   -3.8343245521    0.8021273865
 H   -0.7548825565   -3.7941180631   -0.9664512956
 H   -0.5649031817   -1.0340431252   -2.0276238630