16

 C   -0.0084087106    1.6082073739   -0.0003090298
 C    0.0349572096    0.0780308849   -0.0215403471
 N    0.8074829435   -0.3910639286   -1.1631719665
 C    1.8328586581   -1.1083132868   -0.9792682151
 N    2.5518879523   -1.5251086242   -2.1245741903
 N    3.6341361391   -2.2769681234   -2.1464410290
 N    4.1187199416   -2.6910532250   -1.0361359248
 C    3.4436963770   -2.2988809577    0.1196070802
 N    2.3863112458   -1.5717327395    0.2172380328
 H    0.9925448287    2.0237928935    0.1527625243
 H   -0.3951901549    1.9973788244   -0.9465548103
 H   -0.6525354125    1.9612207455    0.8111965445
 H    0.4226943876   -0.3042851908    0.9300185183
 H   -0.9870030884   -0.3051902521   -0.1388166891
 H    2.2131440349   -1.2274898471   -3.0309906198
 H    3.9008192581   -2.6757403571    1.0322242020