16

 C   -0.1106897056    1.6727399771    0.0675044028
 C    0.1123694754    0.1683152707    0.0025331180
 C    0.7585896260   -0.5603977599   -1.1816238977
 C    2.2410199747   -0.4518072681   -1.2960878721
 C    3.0395681048    0.7588795417   -0.9390297817
 O    3.0261356303    1.3061535909    0.1349080894
 N    1.6726193565   -1.3766241940   -0.2806175410
 C    1.1675674960   -0.5690016984    0.8534508320
 O    1.4071058711   -0.6938309563    2.0076968880
 H    0.8026171042    2.2364886297   -0.1183887378
 H   -0.8699692739    1.9781090647   -0.6596222478
 H   -0.4732387092    1.9437750615    1.0635050764
 H   -0.8367258503   -0.3431044205    0.2135606030
 H    0.2015351022   -1.0549395814   -1.9699232400
 H    2.6631229980   -1.0011582130   -2.1357236935
 H    3.6753796299    1.1335804254   -1.7700219382