25

 C    0.0310484096    1.5255135701   -0.0943860054
 C   -0.0131582429   -0.0134495332   -0.0120546551
 C   -1.4770112304   -0.4600361793   -0.1184117361
 C    0.8629298431   -0.5787280326   -1.1727634018
 C    2.2298712148   -0.7129389068   -0.5494319894
 C    2.1637298551   -0.6671873276    0.7784027658
 C    0.7373032403   -0.5381263207    1.2876472522
 C    0.6290217030    0.3906183426    2.5088179591
 C    0.2556604401   -1.9449162067    1.7157601079
 H    1.0570343152    1.9016248770   -0.0412040068
 H   -0.3980301300    1.8578622278   -1.0458402889
 H   -0.5469054475    1.9966435739    0.7060199192
 H   -1.9289936176   -0.0608921112   -1.0333456731
 H   -1.5795694154   -1.5478908965   -0.1501006282
 H   -2.0717647446   -0.0895928061    0.7246631916
 H    0.4953874766   -1.5561203252   -1.5183886187
 H    0.8489879537    0.0789727506   -2.0502048349
 H    3.1336223850   -0.8586552669   -1.1312584139
 H    3.0039108390   -0.7724970326    1.4582090731
 H    1.0810891602    1.3690383186    2.3308805910
 H   -0.4160101325    0.5464866638    2.8001013755
 H    1.1409528241   -0.0578049248    3.3675856936
 H    0.9165101364   -2.3453342419    2.4922254951
 H   -0.7584158516   -1.9171608082    2.1283644791
 H    0.2679619761   -2.6508689741    0.8802984788