19

 O    0.1472597026    1.4434435439    0.0750557257
 C    0.0893648175    0.0266014502    0.0668239711
 C   -1.3546702434   -0.5004662848    0.0238666853
 C   -2.0689444975   -0.0896474780   -1.2806934457
 C   -2.2791741133    1.4036019783   -1.4041744332
 O   -1.8128644373    2.0900200313   -2.2806650327
 C   -1.3938613252   -2.0398773239    0.1853109375
 C   -0.8643088255   -2.5097664853    1.4601240894
 C   -0.4345525041   -2.8822740675    2.5191114711
 H    0.1150570691    1.7639232616   -0.8316695784
 H    0.6631983005   -0.3973008340   -0.7719735908
 H    0.5647847161   -0.3137275941    0.9913273398
 H   -1.8873874403   -0.0542493441    0.8731240948
 H   -1.5141241691   -0.4358002556   -2.1600332925
 H   -3.0655703856   -0.5534316140   -1.3009262287
 H   -2.9297098122    1.8448103942   -0.6162210374
 H   -2.4300619793   -2.3841641287    0.0780311623
 H   -0.8349570180   -2.5050383510   -0.6385747297
 H   -0.0541523150   -3.2194091584    3.4514596819