14

 C    0.2606005299    1.2977787903   -0.5206295410
 C   -0.1725178089    0.2151654109    0.4723171887
 C   -1.5180483391   -0.3373835681    0.1751083327
 C   -2.4397708427   -0.1092058840   -0.7588499896
 O   -3.5279216541   -0.9371145442   -0.5406884089
 C   -3.2488651227   -1.6897445989    0.5648680101
 O   -3.9554062869   -2.5125191203    1.0498228777
 O   -2.0075688302   -1.3275964702    1.0168626244
 H    1.2534464216    1.6734238662   -0.2626933568
 H    0.3039748218    0.9046846031   -1.5409210534
 H   -0.4326439988    2.1443713481   -0.5106386657
 H    0.5521064318   -0.6093357557    0.4777310528
 H   -0.1750893178    0.6144208200    1.4947920494
 H   -2.4920992940    0.5581275727   -1.5995588004