23

 C   -0.4433240965    1.5843775286   -0.2675264891
 C   -0.2114056713    0.1210652544    0.0713776699
 O   -1.4261881421   -0.5795989650   -0.1274093082
 C   -1.3447226735   -1.9944321600    0.0255419120
 C   -1.3161905007   -2.4136418626    1.4962610411
 C   -2.5580083068   -2.5646958522   -0.7186935651
 C   -2.4804681266   -2.1927636051   -2.2009500240
 C   -3.5021934276   -1.1997298244   -2.7091731795
 O   -1.6170731578   -2.6618202215   -2.9067580085
 H    0.4753376525    2.1595656460   -0.1184095454
 H   -0.7556748314    1.6928782444   -1.3100922551
 H   -1.2243280898    2.0071790154    0.3710587062
 H    0.5765244718   -0.3049003394   -0.5705272141
 H    0.1309605015    0.0252828865    1.1133353281
 H   -0.4394313231   -2.3606814985   -0.4828772386
 H   -0.4417893789   -2.0053454065    2.0109572848
 H   -2.2139887429   -2.0588959913    2.0124507191
 H   -1.2723226092   -3.5038072151    1.5833391791
 H   -2.5467591647   -3.6563439152   -0.6391367797
 H   -3.4764307144   -2.1888579914   -0.2566675764
 H   -4.5177305351   -1.5798756218   -2.5476904167
 H   -3.4094262585   -0.2764200119   -2.1264823075
 H   -3.3447795750   -0.9973652233   -3.7693432725