21

 C   -0.2581942149    1.5220956940    0.1860016076
 C   -0.0153419073    0.0324685179    0.0562126556
 C   -1.2036934132   -0.7582379365   -0.4562915786
 C    1.3580660945   -0.4393711350   -0.3251025468
 C    0.8622933695   -0.6655832035    1.1020508908
 C    1.4480029739    0.0483548560    2.1962715886
 C    1.9457703638    0.6456920344    3.1197737895
 C    2.4965575916    1.3588084477    4.2694642738
 O    1.5718853188    2.2434597663    4.8925397989
 H    0.6081613440    2.0365923579    0.6075080303
 H   -0.4762091768    1.9612568614   -0.7942556322
 H   -1.1146180139    1.7238643448    0.8394565722
 H   -1.4942685812   -0.4167866363   -1.4567966370
 H   -0.9790543475   -1.8274682057   -0.5224702562
 H   -2.0721195590   -0.6365075556    0.2011689201
 H    1.4552483271   -1.3155665002   -0.9576167861
 H    2.1375918061    0.3026006251   -0.4567218718
 H    0.5692643716   -1.6864598315    1.3335528539
 H    2.8951980118    0.6274182245    4.9914530916
 H    3.3412168546    1.9853214284    3.9607159384
 H    0.7584707266    1.7483808459    5.0348484575