19

 C   -0.0288934535    1.5466556901   -0.0138528036
 C    0.0667620928    0.0080208870   -0.0208595675
 C    0.7855062479   -0.4687365710   -1.2023491836
 C    1.3727557977   -0.8469839111   -2.1812066239
 C    0.7001454794   -0.5066717178    1.2902204910
 C    0.8326514591   -2.0421072516    1.4020418822
 O    2.0991328736   -2.2258253759    2.0180205205
 C    2.8843316656   -1.1689824097    1.5324187703
 O    2.0383550253   -0.0363487580    1.4421340812
 H    0.9688779564    1.9818543079    0.0731933489
 H   -0.4914188041    1.9104211313   -0.9343119967
 H   -0.6311420826    1.8842819455    0.8355429464
 H   -0.9543024630   -0.4010185219   -0.0538287365
 H    1.8876267721   -1.1820775517   -3.0474710041
 H    0.1067952822   -0.1060608533    2.1230570059
 H    0.0709177371   -2.4959826483    2.0392665512
 H    0.8057523629   -2.5110007813    0.4084608901
 H    3.6891338789   -0.9667651834    2.2457245846
 H    3.2990182719   -1.4064098868    0.5384067938