14

 C    0.6730804487    1.2793903508    0.0364731850
 O    0.7017102980   -0.1505332672   -0.1393225864
 C    0.1768874686   -0.5971378182   -1.2784087062
 O   -0.3386118612    0.0617294291   -2.1402513990
 C    0.2708209173   -2.1253766958   -1.3656607883
 O   -0.6253444693   -2.8555032651   -1.0262645791
 C    1.5809362422   -2.6364472715   -1.9882877647
 N    1.6040275922   -3.9781412018   -2.1191713970
 O    2.4568905855   -1.8521500021   -2.2950817330
 H    1.2339719315    1.7666855367   -0.7638277840
 H   -0.3571670916    1.6417768954    0.0281646187
 H    1.1395977910    1.4642927958    1.0029356087
 H    0.8011346585   -4.5125979955   -1.8279354916
 H    2.4071242187   -4.4342297808   -2.5180553530