21

 C    0.0679359667    1.5498086653    0.0608960004
 C   -0.0237695439    0.0506392875    0.0827018490
 C    1.1403695781   -0.8332846470   -0.3286857472
 C    0.5717232213   -0.9663542017    1.0581260640
 O    1.3076515592   -0.6801353579    2.1981731410
 C   -0.6892893696   -1.8153132293    1.0320228406
 C   -1.7487950026   -1.3791370386    2.0773368233
 C   -2.3872364319   -0.4063867846    1.0440704036
 C   -1.3054629923   -0.7798937841   -0.0036021796
 H    1.0476615822    1.8829618146    0.4174415929
 H   -0.0707072479    1.9437800238   -0.9531216411
 H   -0.6897166234    2.0119134778    0.7026699776
 H    1.0175038039   -1.6203401092   -1.0707947326
 H    2.0955210657   -0.3182160835   -0.3688788516
 H    1.9887993725   -1.3542770533    2.2987264810
 H   -0.5840024293   -2.8860219024    0.8364195137
 H   -2.4172383391   -2.1854748325    2.3871424955
 H   -1.3247053786   -0.9218606846    2.9744118977
 H   -3.3898520820   -0.7140919887    0.7370612978
 H   -2.4339820051    0.6483832663    1.3276995610
 H   -1.6496004735   -1.0633504882   -1.0017921071