25

 C    0.7141548618   -0.6101943954    1.3280529659
 C    0.1219295449    0.0037891407    0.0537376829
 C    0.8413924895   -0.3673937926   -1.2630667136
 C    2.2831606081    0.1883981995   -1.2775964716
 C    0.8330255616   -1.9038233424   -1.5258587344
 C    0.6176065080   -2.0791316292   -3.0473564461
 C   -0.0150312458   -0.7688760411   -3.4404655735
 C    0.0864884675    0.1617214646   -2.4898757655
 C   -0.3989687184    1.5766846502   -2.5845389356
 H    0.7383703349   -1.7035391250    1.2761801862
 H    1.7351791101   -0.2635867457    1.5143674625
 H    0.1128795971   -0.3358214814    2.2006529080
 H   -0.9281492152   -0.3044446596   -0.0341880133
 H    0.1108542300    1.0961712809    0.1605348703
 H    2.8768879837   -0.2148359660   -0.4513852624
 H    2.7900972833   -0.0743052453   -2.2115187965
 H    2.2925900267    1.2804824776   -1.1901440922
 H    1.7401152897   -2.3961238426   -1.1637162504
 H   -0.0125383565   -2.3528940334   -0.9930017127
 H    1.5652080397   -2.2348407714   -3.5833752802
 H   -0.0079511915   -2.9481881611   -3.2818014244
 H   -0.4654051991   -0.6031363691   -4.4145167920
 H   -0.8412896069    1.7775632622   -3.5642184222
 H   -1.1558423386    1.7984143465   -1.8224035950
 H    0.4159845254    2.2951554791   -2.4302891039