20

 C   -0.2419282871    1.5346568301    0.0142209658
 C    0.0430569011    0.0481640357   -0.0571675549
 C    0.6606953201   -0.5560129836   -1.3323717257
 O    1.8010723608    0.2138318807   -1.7829275523
 C    2.6618282942   -0.3887058409   -0.7859817961
 C    2.4455726030    0.2420429258    0.5946935261
 N    1.1630200418   -0.5264665640    0.7970744971
 C    1.5584781260   -1.4130104171   -0.4042721698
 C    1.6417044972   -2.8992314139   -0.2590339557
 H    0.5536296070    2.1152470332   -0.4584558756
 H   -1.1777408257    1.7646216165   -0.5058919946
 H   -0.3465785361    1.8577773140    1.0554285363
 H   -0.8550064554   -0.5222785684    0.2126396754
 H    0.0340120877   -0.8915306856   -2.1635265088
 H    3.6638489484   -0.5920368750   -1.1732166122
 H    3.1806730894   -0.1065375978    1.3288265959
 H    2.3742906309    1.3306272444    0.6514712013
 H    0.6752928783   -3.3146684251    0.0456015319
 H    1.9350087168   -3.3683131208   -1.2043284320
 H    2.3768346315   -3.1747100481    0.5045386879