18

 C   -0.1700619591    1.5221793046    0.1119774298
 N   -0.0375779684    0.0783097997    0.0783676292
 C   -1.2552865142   -0.7191705359    0.3583379202
 C   -0.3965714006   -1.6075827180    1.2654636833
 O   -0.5221336755   -2.6684725620    1.7953211424
 C    0.7433248997   -0.5766292124    1.1582655890
 C    2.1374694730   -1.1092437372    0.7980162086
 C    3.1187470997    0.0166917650    0.5523593110
 O    3.9965472221    0.3330415703    1.3139064956
 H    0.8067472146    1.9924534238   -0.0364817971
 H   -0.8244598175    1.8507622961   -0.7012092245
 H   -0.5898020946    1.8975577543    1.0640356628
 H   -2.0272186746   -0.1842112930    0.9364764704
 H   -1.7252344983   -1.1878442708   -0.5124463898
 H    0.7980522717    0.0276834895    2.0807211713
 H    2.5049331160   -1.7275285884    1.6220171761
 H    2.0526276511   -1.7178974746   -0.1094341945
 H    2.9631226047    0.5678389391   -0.4024834738