20

 C    0.1292787279    1.1792939793   -0.4997547344
 C   -0.2402632962    0.3190207250    0.7224382850
 C   -1.5464955666   -0.3201511676    0.6001126727
 C   -2.6288446536   -0.8324127065    0.4696898611
 C   -3.9400551918   -1.4694895826    0.3263087493
 N   -3.8740474749   -2.8765530440   -0.0404094426
 C   -3.2968867066   -3.8111896437    0.9091177404
 C   -4.2766783638   -3.3031799973   -1.2720672219
 O   -4.2318420111   -4.4465690894   -1.6725662812
 H    1.1144149953    1.6339463434   -0.3606105648
 H    0.1542792673    0.5723061169   -1.4086037240
 H   -0.6015987590    1.9788459942   -0.6475688586
 H    0.5245249052   -0.4534955488    0.8729763527
 H   -0.2234857013    0.9383738472    1.6282904506
 H   -4.5029525370   -1.3671132095    1.2652919957
 H   -4.5250544606   -0.9514784061   -0.4429054333
 H   -3.8802232850   -3.8281067835    1.8378324497
 H   -3.3126824278   -4.7997272155    0.4506692048
 H   -2.2660098301   -3.5305859641    1.1503551543
 H   -4.6702615704   -2.4669433873   -1.8836514952