19

 O    0.1072715836    1.3766687709   -0.0210115482
 C   -0.0087500013   -0.0382574348   -0.1109821926
 C   -1.4365015791   -0.4950443073   -0.0524834926
 C   -2.0745193009   -0.9954083771    1.2040086521
 O   -3.2063760929   -0.4295489804    1.8070608227
 C   -2.0147994911   -1.9360920515    0.0307884820
 C   -2.9312226081   -1.6213812329   -1.1783551167
 C   -3.8550006120   -0.4428826031   -1.0021605725
 C   -2.3885320369   -0.2066790089   -1.2474551394
 H   -0.3707255561    1.6533995629    0.7683731038
 H    0.4399160332   -0.3034599580   -1.0754915460
 H    0.5771437884   -0.5451215374    0.6731623754
 H   -1.3049301916   -1.2642416243    1.9350802724
 H   -3.7028915412   -1.1434578626    2.2227534460
 H   -1.4608876947   -2.8658310549    0.0987929498
 H   -3.0475454750   -2.3292180691   -1.9885697091
 H   -4.4677449599   -0.2490743808   -1.8789911166
 H   -4.3202117992   -0.2052748015   -0.0576285849
 H   -2.0240821553    0.3321853908   -2.1121320956