21

 C   -0.1760069311    1.3985489667   -0.1684306685
 C    1.2338324668    1.0174677243    0.1746169058
 C    0.1634599901   -0.0589580323    0.0975502704
 C   -0.3145025297   -0.7419604154    1.3035144634
 C   -0.7039816909   -2.0100951686    1.4966604487
 C   -1.0786527121   -2.0540833715    2.9850599564
 C   -1.8815884946   -0.7141681470    3.1101933472
 C   -0.4880661566   -0.1206911350    2.7071978729
 C    0.1226152718   -1.2563090719    3.5983291853
 H   -0.7608293396    1.9222977879    0.5796741454
 H   -0.4037176447    1.6817599116   -1.1900835398
 H    1.9826800483    1.0367128475   -0.6094044062
 H    1.6105226633    1.2812937967    1.1567032974
 H    0.2053523788   -0.6954194832   -0.7816916762
 H   -0.7541045509   -2.8293884441    0.7933421564
 H   -1.4356224755   -2.9924563840    3.4085818434
 H   -2.7138288573   -0.5602422435    2.4193202748
 H   -2.1740673786   -0.4705034081    4.1371580571
 H   -0.2391498214    0.9308732547    2.8530532618
 H    0.0213167730   -1.0644424064    4.6718737959
 H    1.1308295310   -1.6002026986    3.3557061183