14

 O    0.0122687537    0.0671934292   -0.0172064109
 C   -0.0213477996    1.2622185184    0.0712561006
 C   -1.1210305284    2.2649451654   -0.0106139740
 C   -0.7422984804    3.5893546973    0.6955593084
 C    0.2812832568    3.5336931099    1.7909598349
 C    1.3569852934    2.8735544933    1.3565679405
 C    1.0934102106    2.3587913233   -0.0425464007
 C   -0.0689289813    3.2493772141   -0.5898969134
 H   -2.1391445434    2.0716554890   -0.3219075109
 H   -1.5462968179    4.3168620261    0.7100862918
 H    0.1208286340    3.9449925204    2.7785565285
 H    2.2329649672    2.6039877432    1.9314309135
 H    1.9463261058    2.1070976784   -0.6695216637
 H   -0.1146865605    3.7779962620   -1.5321555746