18

 C    0.0368166641    1.5804205477   -0.1299622293
 C   -0.0343186682    0.0639310088   -0.0149822261
 C    0.6410042896   -0.6990849861   -1.1691448888
 C    1.6645252764   -1.2991699294   -0.2401864158
 C    1.0459184546   -0.5788533799    0.9641414089
 O    1.9846122157    0.3217447152    1.5020396693
 N    0.6165762082   -2.1167120200   -0.8191773775
 C    0.8614928199   -3.1501882240   -1.7058808923
 O    1.7452087453   -3.9656081667   -1.5981916759
 H    1.0599073441    1.9193715816   -0.3104196382
 H   -0.5961766019    1.9318601852   -0.9513580980
 H   -0.3187211138    2.0627356453    0.7868321255
 H   -1.0596733355   -0.2674212125    0.1749112334
 H    0.7513031317   -0.3936483472   -2.2042926757
 H    2.7059837688   -1.5475057106   -0.3991384592
 H    0.6356034600   -1.2470544758    1.7316233721
 H    1.5690695967    0.7985652019    2.2272419358
 H    0.0889023640   -3.1934303434   -2.4977527782