17

 O    0.2189278605    1.3705946623   -0.0520728544
 C    0.1380312524   -0.0058986811   -0.0373586766
 C   -1.2119244356   -0.8335993408   -0.0296381898
 C   -0.2825280634   -2.0015658518    0.4993481083
 O   -0.7292043265   -3.1280075356    1.1574297475
 C    0.6286949808   -2.2354373903   -0.7193587513
 C    0.9413908950   -0.7516727054   -1.1183565280
 C    0.4150280511   -0.8415078413    1.2161663896
 O    0.6880172721   -0.5915869987    2.3589902030
 H    0.1397736488    1.6831483850    0.8576660518
 H   -1.9332094456   -0.4824998740    0.7107118558
 H   -1.6762383122   -0.9977949924   -1.0037620794
 H   -0.8271539199   -2.9075882656    2.0919867621
 H    1.5214191912   -2.8045033011   -0.4490954953
 H    0.0990026647   -2.7819414581   -1.5037283884
 H    0.5805748490   -0.4972857877   -2.1181441486
 H    2.0053189277   -0.5083575737   -1.0664759361