12

 N    0.0329576979    1.3233457148    0.0092638956
 C    1.2823110976    1.8921852416    0.0001758434
 C    2.1302351979    0.8087109398   -0.0139393899
 N    3.4148896196    0.3070185667   -0.0290276836
 C    3.2732804303   -1.0728108185   -0.0350974572
 N    2.0394962198   -1.5032118750   -0.0254411925
 C    1.2961680921   -0.3372616624   -0.0119675780
 N   -0.0000842842   -0.0271211635    0.0023149976
 H   -0.8421536249    1.8189502448    0.0203947524
 H    1.4166857801    2.9605470836    0.0046053070
 H    4.2838975160    0.8104379485   -0.0352201554
 H    4.1477931476   -1.7089094304   -0.0470058094