19

 C   -0.0829854051    1.4605426311    0.0055312986
 C    0.0256636916   -0.0432304954   -0.0386313701
 C   -0.4097201665   -0.8756713215   -1.1774862291
 C   -0.0288392794   -2.1557550037   -0.9528029817
 C   -1.1047669682   -3.0173524267   -0.2741843757
 C   -0.4337235209   -2.3888280457    1.0231435851
 C   -0.3747283910   -0.8451373261    1.2745891250
 C    1.0605760404   -0.7709274652    0.7782766557
 C    0.9147920684   -2.2096371022    0.2693774693
 H    0.6236627585    1.9219616482   -0.6930531766
 H   -1.0896519076    1.7951588736   -0.2680040047
 H    0.1369236720    1.8481544806    1.0052344292
 H   -1.3229410160   -0.6245563233   -1.7120395643
 H   -2.1455577161   -2.7908585625   -0.5139682979
 H   -0.9456587790   -4.1020113814   -0.2666017516
 H   -0.4730765162   -2.9709903291    1.9473403323
 H   -0.8484909238   -0.3095395579    2.0869547352
 H    1.9285706768   -0.2936726927    1.2141147176
 H    1.7104086121   -2.9503445901    0.3117771338