21

 C   -0.1329806487    1.5856790020   -0.0736102095
 C   -0.0014987000    0.0742435209    0.0337498010
 C    1.0777073500   -0.7297074411   -0.7618497851
 C    2.1504358457   -0.2088289980    0.2356390018
 C    0.9152151485   -0.6065488518    1.1105543648
 C    0.7627358658   -0.5051997813    2.6170280478
 C    1.8683930406   -1.2277046996    3.3551033779
 O    1.7027446459   -2.1340119307    4.1301386566
 C    0.8303402762   -1.8956288144    0.2352575557
 H    0.8237701933    2.1127502556   -0.0397586300
 H   -0.6247407835    1.8573264063   -1.0141760526
 H   -0.7553598510    1.9759983669    0.7398296377
 H   -0.9972224497   -0.3835695150   -0.0180126795
 H    1.1726948115   -0.8051938948   -1.8457416909
 H    3.0425411541   -0.8314901071    0.3469040323
 H    2.4223818832    0.8467709747    0.1907101715
 H    0.8058056709    0.5548450707    2.9084454464
 H   -0.1993700145   -0.9129338375    2.9428990341
 H    2.8931550334   -0.8556809463    3.1218873435
 H   -0.1445059970   -2.3894111090    0.1874880970
 H    1.6416022455   -2.6193835103    0.3514938395