18

 C   -0.0556844253    1.4159501051   -0.1821420255
 C    0.0228835083   -0.0716537131    0.0442585673
 N    0.1916321237   -0.7015854869    1.1317516370
 O   -0.1149125863   -0.7200277930   -1.1390308003
 C   -0.0189190152   -2.1707208236   -1.1245654353
 C   -1.4420287709   -2.7350369196   -0.9978483809
 O   -2.2834124918   -2.3121640104   -2.0469594692
 C    0.6544556545   -2.5779231013   -2.3506349956
 C    1.2140234022   -2.9553006728   -3.3437592400
 H    0.0490946178    1.9601981576    0.7574592841
 H    0.7316381619    1.7313691261   -0.8731324627
 H   -1.0131810988    1.6781860826   -0.6424210187
 H    0.2930198657   -0.0583371293    1.9123682491
 H    0.5609180308   -2.4652100620   -0.2448666212
 H   -1.3995082057   -3.8274415252   -1.0384078570
 H   -1.8274943437   -2.4401090249   -0.0111177650
 H   -2.1930480791   -1.3544112779   -2.1066167431
 H    1.7059522819   -3.2854474313   -4.2251880927