16

 C   -0.1400089816    1.5468000810    0.0337077246
 C    0.0628466693    0.0661554327    0.0224107755
 N   -0.8101437546   -0.9038634655    0.7226063850
 C    0.6426697928   -0.8692544305    1.0110833975
 C    1.3812730470   -1.6508408887   -0.1435700884
 O    0.4021220589   -2.0995528661   -1.0940540940
 C    0.7831741029   -0.7336239623   -1.1326409701
 C    2.6487968275   -2.2808196480   -0.0537711285
 C    3.7277008357   -2.7961026529    0.0788018022
 H    0.7621807063    2.0701054265   -0.3020854418
 H   -0.9627286664    1.8400291641   -0.6288293945
 H   -0.3749812354    1.9022276251    1.0425848656
 H   -1.2651938456   -0.3925233410    1.4806250466
 H    1.0441258290   -0.6958914449    2.0005771862
 H    1.1843969678   -0.3329728534   -2.0567448989
 H    4.6783091363   -3.2584331461    0.1804778630