23

 C   -1.0732756488    0.9223287810   -0.1325098360
 C    0.0973329659   -0.0377136395    0.0092837054
 C    1.2959215564    0.0849749225   -0.9714933791
 C    2.2757995701   -0.2010507126    0.2071135392
 C    1.0993164201    0.1658501908    1.1778160978
 C    2.7784928265   -1.6669955004    0.3074878284
 C    4.1690600522   -1.5942730712    0.9887428660
 C    4.5710671170   -0.1542075926    0.7727377335
 C    3.5497037895    0.5857013027    0.3437256390
 H   -0.7279827652    1.9628980357   -0.1399191187
 H   -1.6226532566    0.7480662502   -1.0648157858
 H   -1.7826986205    0.8135831837    0.6958688430
 H   -0.2710614921   -1.0699476078    0.0133579732
 H    1.3335246805   -0.5962710896   -1.8271086292
 H    1.4034533210    1.1113820867   -1.3409139376
 H    1.1475337841    1.2174052452    1.4817378623
 H    0.9836816801   -0.4486933551    2.0755451822
 H    2.0789780131   -2.3209780971    0.8361042932
 H    2.8963790197   -2.0708655710   -0.7042206512
 H    4.1165184167   -1.8243868493    2.0622813832
 H    4.8816531676   -2.3082152736    0.5599770666
 H    5.5680931321    0.2155683064    0.9872955272
 H    3.5826348905    1.6543110649    0.1541391972