22

 C    0.1571588333    1.4456887317    0.4015682220
 C    0.2975949960   -0.0296334592    0.0862918683
 C    0.4369220040   -0.5724896927   -1.3008482255
 C    0.4834407571    0.2962422235   -2.5392216678
 O    1.0361909125   -0.3963657730   -3.6496689062
 N    1.5526682605   -0.6569066573   -0.3490001730
 C    2.7742042750    0.1291645565   -0.5214762722
 C    3.6801599337   -0.1545499170    0.6799460017
 O    3.9062413192   -1.5380475295    0.8283333607
 H    0.6134193682    2.1013024116   -0.3416866743
 H   -0.9052519339    1.7042830898    0.4587248517
 H    0.6035293230    1.6767850843    1.3749909101
 H   -0.2481292494   -0.6562027695    0.7915188333
 H   -0.0151280490   -1.5419642765   -1.5114893469
 H   -0.5385802079    0.5555808474   -2.8367502074
 H    1.0163038661    1.2381238062   -2.3539024342
 H    1.9296012945   -0.6670214608   -3.4146150718
 H    3.2790795371   -0.2252078174   -1.4292921392
 H    2.6196814604    1.2120463793   -0.6256606146
 H    4.6526764709    0.3298533827    0.5389637836
 H    3.2226961173    0.2801439996    1.5858663160
 H    3.0404545611   -1.9423964797    0.6730132458