17

 C   -0.3845967265    1.2507133846    0.0593352644
 N    0.3481157408   -0.0023493658   -0.1081121796
 C    0.8590562958   -0.5230415984    1.1117345081
 C    0.1807482277   -1.5347826056    1.9642772181
 C    1.4164328583   -1.9822488707    1.1488049431
 C    1.1689844859   -2.8514674788   -0.0394442189
 O    0.1349410169   -2.8495473734   -0.6654592298
 C    2.6546673343   -2.2034057111    1.8405134389
 N    3.6554929285   -2.3901329541    2.3906456460
 H    0.2888267423    2.0204861458    0.4518671206
 H   -0.7382639903    1.5857835626   -0.9188486989
 H   -1.2507497376    1.1813614406    0.7378885856
 H   -0.2182460262   -0.6989521700   -0.5799827746
 H    1.5074516567    0.1807234858    1.6274955469
 H    0.3098594625   -1.5119696260    3.0401543790
 H   -0.7490163999   -1.9587951599    1.5993868798
 H    2.0160103306   -3.5071857556   -0.3203021885