14

 C    0.0162299387    1.5070605199   -0.0265530331
 O    1.1919573268    0.6989440315   -0.0034433117
 C   -0.0836025291    0.0407915108    0.0075268146
 C   -0.4749868648   -0.7690773634    1.1974838089
 C   -0.9702320168   -1.9553416427    0.8262080156
 C   -1.0075371696   -2.0602706521   -0.6663532641
 O   -1.8539770170   -1.0637389625   -1.2927788540
 C   -0.4534281388   -0.8023440747   -1.1915564969
 H   -0.1781263042    2.0786898932    0.8800094421
 H   -0.1800901075    2.0323743471   -0.9600751467
 H   -0.3795341389   -0.3959888169    2.2098439759
 H   -1.3357457543   -2.7288526429    1.4893730403
 H   -0.9557546771   -3.0114489292   -1.1857789761
 H    0.1023251327   -0.7041421981   -2.1197609849