19

 C   -0.0996952362    1.5577099303   -0.0633295805
 C    1.3728892463    2.0165036301    0.1457004214
 C    2.0779080939    0.7997211155    0.7692449439
 O    1.7859261026    0.6798046764    2.1600783767
 C    0.5057819638    0.1396508875    2.4742803376
 C    0.0168940048   -0.7399392699    1.3330682619
 O    1.1736713913   -1.5035595653    0.8853421155
 C    1.4622700035   -0.4046201238   -0.0018666161
 C   -0.0170154877    0.0254467783   -0.0292883051
 H   -0.7622143488    1.9504997653    0.7146429794
 H   -0.4985164264    1.9097764295   -1.0183670343
 H    1.8346837745    2.2501289501   -0.8211727917
 H    1.4759763055    2.8996202842    0.7803383624
 H    3.1673072182    0.8566477749    0.7059240542
 H    0.6350658528   -0.4602726990    3.3817266882
 H   -0.2216666848    0.9368081631    2.6960044230
 H   -0.8319581908   -1.3709209420    1.6102872795
 H    2.0122766702   -0.7009411637   -0.8982634272
 H   -0.6384948027   -0.4925528115   -0.7598743489