12

 O    0.0741574345    0.2567306155   -0.9159329500
 C   -0.0135847307    1.2325647352   -0.2101180455
 C   -1.2996217196    1.8223302827    0.2171021884
 C   -1.5630994220    3.1451851464    0.1459893417
 N   -0.7453059495    4.1610700155   -0.3060219069
 C    0.5418558544    4.1256859999   -0.2827217564
 C    1.3841481035    3.0738966606    0.2883682845
 N    1.1277941053    1.8228450590    0.3639133883
 H   -2.0924665737    1.1276432138    0.4786233762
 H   -2.5682965021    3.4893475683    0.3782746071
 H    1.0605099295    5.0162391380   -0.6438217479
 H    2.3302430403    3.4146165352    0.7196629303