17

 O   -0.1323415577    1.4353237435   -0.0016422828
 C   -0.0054101660    0.0304675922   -0.0153863243
 C    0.7031821073   -0.4837622091   -1.2834539626
 C    0.0193590806    0.0234707042   -2.5767896337
 O    0.2131242616    1.4119539687   -2.7615375376
 C    0.5482858127   -0.6868418162   -3.7421880382
 C    0.9831591134   -1.3029831895   -4.6769730348
 C    0.7466451313   -0.4210212821    1.2200884343
 O    1.1938803439    0.3760606803    2.0088822088
 H    0.3844716041    1.7411122293    0.7628682589
 H   -1.0109576162   -0.4229665830    0.0271389011
 H    1.7456523123   -0.1477811376   -1.2972899021
 H    0.6977338531   -1.5792505736   -1.2742271836
 H   -1.0584866475   -0.2117563455   -2.4995969040
 H    0.0456848322    1.8225842635   -1.9002066258
 H    1.3611884871   -1.8345370002   -5.5150955403
 H    0.8765157676   -1.5133325249    1.3509833468