16

 O   -0.1303989681    0.0174844601    0.0517378326
 C   -0.0190120001    1.2123401102   -0.0779711461
 C    1.2709794834    1.9202609004   -0.0072761939
 C    1.3702633578    3.3837396718    0.3327527487
 C    1.8062782532    2.9845562200   -1.0439026289
 C    3.1823405864    2.2923734307   -1.0115211904
 C    2.6458476920    1.2535705451    0.0233942592
 C    1.1603843239    3.4759315736   -2.2163080388
 N    0.6538620782    3.8736550488   -3.1785696128
 H   -0.8986453051    1.8652501300   -0.2733379652
 H    0.4266769112    3.9179273448    0.3822123147
 H    2.1159964173    3.7060685032    1.0547283569
 H    3.4382993089    1.8378158290   -1.9687190789
 H    4.0048426354    2.9367147728   -0.6902657394
 H    3.1339300937    1.2402053813    1.0010663772
 H    2.6113783419    0.2377250481   -0.3704620448