17

 C   -0.5017042616    1.3454187609    0.1677307995
 C    0.0441800989   -0.0582230065    0.1045105813
 C   -0.2644019568   -0.8630150713   -0.9226976611
 C    0.1581344984   -2.2416923840   -1.2792649755
 O    0.0672590469   -2.6311633236   -2.4154936614
 O    0.6319146074   -3.1037952973   -0.3385728377
 C    0.6829653419   -2.7290958315    1.0263438400
 O    1.5481213704   -1.6638372355    1.2528171575
 C    0.9258221205   -0.3986038986    1.2755067563
 H    0.3116173567    2.0815338374    0.1582490623
 H   -1.1651868482    1.5569412693   -0.6724330646
 H   -1.0599453879    1.5077283799    1.0980757137
 H   -0.8853567011   -0.4574426555   -1.7156548935
 H   -0.3283172162   -2.5093968406    1.3977189448
 H    1.0901325177   -3.6056942598    1.5329022695
 H    1.7406752891    0.3326743475    1.3379954460
 H    0.3321579041   -0.2779141007    2.1993751529