20

 C   -0.0628058996    1.5761242848   -0.0341330554
 C    0.0268563808    0.0483432982   -0.0019997811
 C    0.8176508785   -0.5118705873   -1.1840151928
 C    2.0120160974   -1.2538374606   -0.7423755551
 C    1.5513798085   -1.7163702941    0.6620526456
 C    0.5832562079   -2.6531068479   -0.0958534418
 N    0.8766561494   -1.9886864713   -1.4126719166
 C    0.7934226506   -0.5243634970    1.2402707431
 O    1.7665180057    0.3654658224    1.7654574158
 H    0.9327727432    2.0283501620   -0.0511023255
 H   -0.6032009283    1.9119775866   -0.9244224198
 H   -0.6034850054    1.9647597985    0.8371171176
 H   -0.9937344424   -0.3542065097   -0.0057591464
 H    0.8242375395    0.0362115918   -2.1207955965
 H    3.0119176643   -1.2025160611   -1.1551296439
 H    2.2676777125   -2.1602540937    1.3514539225
 H    0.9402456334   -3.6837409495   -0.1495320457
 H   -0.4720087322   -2.6593964345    0.2029424797
 H    0.0907473572   -0.8375493622    2.0283801593
 H    1.3137036088    1.1342596648    2.1253856270