21

 O   -0.0596537694   -0.0664878798    0.0626434507
 C    0.0331101289    1.1315185029   -0.0172304712
 C    1.3230188934    1.9171951711    0.0352968297
 C    1.4584646644    2.8694494848   -1.1868925443
 C    2.0212893695    4.1844988918   -0.6181061892
 C    1.3248189984    4.2944479199    0.7450543248
 C    1.3507189459    2.8597831756    1.2674298687
 C    0.7129578186    2.4852258235    2.5837594574
 C    2.2143141936    2.5014338560    2.4532444339
 H   -0.8762019797    1.7712203144   -0.1260371892
 H    2.1443237129    1.1969766227    0.0771452056
 H    2.0726819217    2.4339688106   -1.9783868585
 H    0.4657140777    3.0565557665   -1.6176311796
 H    3.1052895403    4.1007355898   -0.4775997844
 H    1.8373331688    5.0413167283   -1.2720986482
 H    1.8075488164    4.9981271829    1.4295455979
 H    0.2893658429    4.6335102548    0.6063556547
 H    0.2368069655    3.2748983600    3.1561332585
 H    0.2237715281    1.5202351824    2.6681822090
 H    2.7317532847    1.5474805525    2.4390746352
 H    2.7643342974    3.3011886793    2.9391135485