18

 O   -0.0822143633    1.4200645967    0.0377125219
 C    0.0050333073    0.0031505377    0.0024287254
 C    0.7319872684   -0.5412143508    1.2410415304
 O    0.7280801482   -1.9577597133    1.2683459419
 C   -0.5878976755   -2.4803606126    1.3178344310
 C   -1.4064928232   -2.0706362483    0.0845527962
 O   -2.7540072047   -2.5052814222    0.1931632200
 C   -1.4178696577   -0.5489765584   -0.0412460892
 H    0.8070043865    1.7786135933   -0.0479639721
 H    0.5514596307   -0.3335857445   -0.8933930597
 H    1.7841166889   -0.2360704104    1.2446235348
 H    0.2492184216   -0.1253366326    2.1411674534
 H   -0.4847233244   -3.5693968187    1.3766341936
 H   -1.1186525711   -2.1349741287    2.2207489062
 H   -0.9257392335   -2.5038547923   -0.8074484213
 H   -2.7636048801   -3.4672590457    0.1597738640
 H   -1.9857175912   -0.1292136872    0.7985366396
 H   -1.9219257567   -0.2423586320   -0.9621975562