20

 O   -0.0563980037    1.4230154633   -0.0044868434
 C    0.0106490800    0.0032308390    0.0253866693
 C   -1.4148754016   -0.5388064461   -0.0163019457
 C   -2.1513516159   -0.1127268130   -1.2978427088
 O   -3.4310371828   -0.7183214053   -1.3711450461
 C   -3.3607592216   -2.1116642770   -1.6115313075
 C   -2.4039105123   -2.8405674093   -0.6761344437
 N   -0.9762434607   -2.8140228914   -1.0536632631
 C   -1.4318069286   -2.0491757951    0.1221441424
 H    0.8386457549    1.7660350489   -0.0769855643
 H    0.5713399075   -0.3929149586   -0.8345586592
 H    0.5140321950   -0.3509453514    0.9404106895
 H   -1.9651877829   -0.1203391253    0.8363655312
 H   -2.3126326600    0.9660191956   -1.2949896524
 H   -1.5478597146   -0.3738399990   -2.1812143791
 H   -4.3785383298   -2.4887079425   -1.4719172872
 H   -3.0603820674   -2.3067491697   -2.6538294851
 H   -2.7847209935   -3.7598207846   -0.2376769983
 H   -0.5181954413   -3.6720474819   -0.7590834447
 H   -1.1604369607   -2.4322222765    1.1046583863