14

 O    0.0055970712    0.0556564851   -0.3736876411
 C   -0.0163072650    1.2095564584   -0.0999190716
 C   -1.1247064340    2.2244877442    0.3429902402
 C    0.0009747393    3.1311080265    0.8829972667
 N    0.7279008817    2.8927005828    2.1741177653
 C    1.8471824175    3.1084643288    1.2042590744
 C    1.0407681183    4.1124342269    0.2595511776
 O    1.2232358017    3.3334883655   -0.9525232537
 C    1.0763528101    2.3259607692    0.0997235416
 H   -1.6602994675    2.6412990253   -0.5138850427
 H   -1.8416797473    1.8447451901    1.0729185206
 H    0.6258508977    3.6898290767    2.8049550806
 H    2.9031399655    3.1065219808    1.4853464446
 H    1.0722274508    5.2035155098    0.1823548975