19

 C    0.0606025708    1.5470790141   -0.0778654826
 C    0.0412718546    0.0247652571    0.0289793274
 O    0.5974635164   -0.4699200818   -1.1775124062
 C    0.8836114528   -1.8557224422   -1.1488243934
 C    2.0060559217   -2.1459275327   -0.1527720489
 C    1.7073500206   -1.4668594264    1.1521013246
 C    0.7899113536   -0.4922764970    1.2580645139
 C    0.4445068922    0.0769265503    2.5146415397
 C    0.1175307833    0.5716527630    3.5641934752
 H    1.0913236497    1.9070475648   -0.1420285115
 H   -0.4728468189    1.8546380109   -0.9808363594
 H   -0.4177763682    2.0006329561    0.7924140222
 H   -1.0085001028   -0.3120697781    0.1125989992
 H   -0.0167851503   -2.4298520245   -0.8752585022
 H    1.1655574131   -2.1333946422   -2.1681670082
 H    2.1103377312   -3.2277784570   -0.0006157607
 H    2.9675565015   -1.7971537886   -0.5547148744
 H    2.2370968902   -1.7979048549    2.0403583584
 H   -0.1594021315    1.0017896292    4.4945596871