25

 C   -0.1553946448    1.5621423556    0.1929439298
 C   -0.0019410849    0.0639522764   -0.0496595250
 C    0.9557153359   -0.5844081350    0.9548843101
 O   -1.3128453563   -0.4840539846    0.0156132566
 C   -1.4933677895   -1.7921880496   -0.4956584766
 C   -1.6582198035   -2.8834012863    0.5776444978
 C   -2.3212297434   -4.0343116138   -0.1909027027
 C   -3.3005862772   -3.3389680034   -1.1772461311
 C   -2.8122331826   -1.8709676334   -1.2927738828
 H    0.8099030087    2.0699489135    0.1072780321
 H   -0.8467972947    1.9963423588   -0.5338219440
 H   -0.5546882143    1.7451295144    1.1957593567
 H    0.3976233489   -0.0927080714   -1.0664906234
 H    0.5638347382   -0.4807026227    1.9719674060
 H    1.0947069003   -1.6490461493    0.7472163717
 H    1.9393273281   -0.1049992699    0.9108010252
 H   -0.6465090609   -2.0525309474   -1.1501119069
 H   -0.7189982073   -3.1675842204    1.0597159239
 H   -2.3264596843   -2.4941540752    1.3556498293
 H   -1.5592901976   -4.5915053287   -0.7489726418
 H   -2.8202652732   -4.7535755192    0.4639966944
 H   -3.3154253755   -3.8467855014   -2.1454968475
 H   -4.3246051412   -3.3725987475   -0.7940644061
 H   -3.5177978789   -1.1804501281   -0.8203069611
 H   -2.6853313401   -1.5393331612   -2.3266749147