20

 C    0.1790755194    1.5111112725   -0.4598889080
 C    0.1662012429    0.0170824538   -0.2226539476
 C    1.4554291480   -0.7366358024    0.0301090717
 C    0.4512269257   -0.5520956879    1.1351754083
 C    0.7145148451    0.1804657486    2.4592519841
 C    0.4034123289   -1.1621567575    3.1833745465
 O   -0.3149808660   -1.1576478962    4.3896904599
 C   -0.2668079792   -1.6855942199    1.8796803243
 H    0.9504589552    2.0011073360    0.1432407441
 H    0.3828092842    1.7448455629   -1.5107620976
 H   -0.7831276791    1.9668425114   -0.1988669476
 H   -0.5802942350   -0.5226206149   -0.8026036669
 H    1.5718829497   -1.7253710488   -0.4032451820
 H    2.3754687702   -0.1603210757    0.0779660596
 H    1.6967359781    0.6304890425    2.6245246979
 H   -0.0567465508    0.9307374765    2.6767849283
 H    1.3251671181   -1.7114554454    3.3931586561
 H   -1.1373063422   -0.6779785710    4.2432120638
 H   -1.3538349783   -1.5356593320    1.9105522920
 H   -0.0636543149   -2.7172519025    1.5802062431