18

 C    0.2263018587    1.4460237282   -0.0713704769
 C    0.0289100843   -0.0331950125    0.0308590963
 C   -1.0133629723   -0.7136721256    0.8767249998
 C    0.4436144451   -1.0477326098    1.0701514714
 C    1.0091663261   -1.9111269849   -0.0694470376
 C    0.0567855995   -2.1856421076   -1.1796592589
 N    0.6313782156   -0.8478326175   -1.1152576075
 C    2.3742751325   -2.4856517927   -0.0728228989
 O    2.8846644133   -3.0188710249   -1.0285008341
 H    1.2676831768    1.6822428973   -0.3105264239
 H   -0.4026607745    1.8669984348   -0.8644526639
 H   -0.0375260179    1.9388608478    0.8690224492
 H   -1.4115515776   -0.0603562657    1.6476110089
 H   -1.7423960546   -1.4286925537    0.5124876051
 H    0.9721667514   -0.8955193340    2.0030785772
 H    0.4772484461   -2.7639023445   -1.9968312694
 H   -0.9945541673   -2.3606653486   -0.9836888585
 H    2.9150794250   -2.3984186160    0.8966436318