25

 C    0.0696826518    1.5272875431    0.0909843371
 C    0.0093408235   -0.0003338456    0.1268587494
 O    0.5582979908   -0.5058489670    1.3440898672
 C   -1.4070471062   -0.5364648795   -0.1198428763
 C   -1.4841894458   -2.0651209693   -0.1662617258
 C   -2.9114286109   -2.5970912640   -0.3478586027
 C   -2.9813693071   -4.1085462272   -0.4091489390
 C   -3.0491784780   -4.9227577407    0.8589323382
 C   -4.2506176685   -4.8379017862   -0.0520487281
 H    1.0872798701    1.8722141614    0.2935409946
 H   -0.2427313524    1.9156557611   -0.8838687422
 H   -0.5955765804    1.9600807736    0.8492535582
 H    0.6748609638   -0.3999742494   -0.6494136076
 H    0.0320567675   -0.1475141921    2.0679294521
 H   -2.0685748579   -0.1543853442    0.6736220314
 H   -1.7875829789   -0.1125343223   -1.0589982341
 H   -0.8540157923   -2.4322302849   -0.9884291887
 H   -1.0492881339   -2.4724697250    0.7526892428
 H   -3.5418304849   -2.2422394019    0.4796694934
 H   -3.3473735829   -2.1717490816   -1.2631068042
 H   -2.3987104273   -4.5475419621   -1.2162160147
 H   -2.5039182622   -5.8588000313    0.9091156613
 H   -3.0919514434   -4.3857728514    1.8014034644
 H   -5.0973731613   -4.2463371353    0.2815924075
 H   -4.5247450831   -5.7157177679   -0.6269875642