21

 C    0.8416020114   -0.1817548679   -1.2349871831
 C   -0.0729192199   -0.2133298673   -0.0038199560
 C    0.6058653343   -0.7135691771    1.2654794625
 C    1.7665131387    0.1165077492    1.8002483102
 C    1.3779465370    1.5369764125    2.2296716689
 C   -0.2687931732   -1.3999850037    2.2892069884
 C    0.6892934602   -2.2115631929    1.4478665491
 H    1.2780591835   -1.1681631629   -1.4246789820
 H    0.2843818233    0.1173078410   -2.1283478414
 H    1.6664819112    0.5272665349   -1.1118186612
 H   -0.4902190854    0.7872071997    0.1681694101
 H   -0.9321171203   -0.8619796000   -0.2145820814
 H    2.2002033430   -0.4095690827    2.6596341462
 H    2.5643862943    0.1666443661    1.0481321600
 H    1.0271585750    2.1368057592    1.3838223912
 H    0.5764736440    1.5156643214    2.9757722795
 H    2.2330449272    2.0602907587    2.6689609327
 H   -0.0326867435   -1.2635101758    3.3398495991
 H   -1.3306848001   -1.4898078299    2.0842211401
 H    0.2725358712   -2.8467786309    0.6726014229
 H    1.5689369780   -2.6248862716    1.9306631941