22

 C    0.2122688044    1.8656725620   -1.1600520927
 C    0.1286210471    0.3572118601   -1.0577482986
 C    0.7913954320   -0.6846788819   -1.8693163155
 C    2.2701314531   -0.4607490160   -2.1896735344
 C    2.7171859589    0.5715177981   -3.2108975187
 O    4.1287586875    0.4363130845   -3.3350684603
 C    2.4887793279   -0.2889497570   -0.6542442804
 C    3.1514513693    0.9331906366   -0.0377286811
 N    1.0307873881   -0.5763673745   -0.3535797887
 H    0.0886053277    2.3217382869   -0.1716388936
 H    1.1393374429    2.2384694614   -1.5898490300
 H   -0.6091704117    2.2220776561   -1.7917750492
 H   -0.8879071767    0.0566364951   -0.7988465612
 H    0.2232816367   -1.5139811062   -2.2830067405
 H    2.7209692662   -1.4055345305   -2.5072422056
 H    2.2081731589    0.3732431566   -4.1689680683
 H    2.4531956820    1.5938914341   -2.9110980415
 H    4.4452276974    1.1148588695   -3.9385015816
 H    3.0249551485   -1.1658766941   -0.2803027644
 H    2.7477660346    1.8844897112   -0.3854256795
 H    3.0402788528    0.9021011579    1.0513778898
 H    4.2203121027    0.9199422401   -0.2737561039