20

 O   -0.3006291090    1.5863162472   -0.1810278953
 C    0.0527106127    0.2230437684   -0.0819130341
 C    1.1424554065   -0.3136166073   -1.0643576257
 C    1.7707083001   -1.1018680952    0.1167662997
 C    0.9812000477   -0.1978719430    1.1019470871
 C   -1.2272608068   -0.5835548889   -0.1340711999
 C   -2.4931500403   -0.0744880246    0.5037705420
 C   -2.3815345890   -0.1543848304   -1.0012330173
 H    0.5073119108    2.1067844161   -0.1490364042
 H    0.7987452437   -0.8680855686   -1.9410628264
 H    1.7956287347    0.4996079395   -1.3994476190
 H    1.4331978444   -2.1409375898    0.1471638403
 H    2.8593212858   -1.0940613134    0.1973635256
 H    1.5840914637    0.6514249013    1.4417389008
 H    0.5074316741   -0.6590526625    1.9720263026
 H   -1.0541210194   -1.6538983420   -0.0643417588
 H   -3.1322366549   -0.7850797142    1.0165384905
 H   -2.4616233781    0.9140733864    0.9456078481
 H   -2.2776808648    0.7824003730   -1.5351942635
 H   -2.9437447821   -0.9200000220   -1.5247357927