16

 C   -0.0121985821    1.6652281294    0.0928507791
 C   -0.0696474985    0.1599026153    0.2095697571
 C    1.0525665996   -0.7091220023   -0.2315147850
 C    0.7527397464   -0.6191084546    1.2601219478
 C    1.7076925418    0.0841891606    2.1303930286
 O    2.4956353612    0.9458664523    1.7887971827
 C    1.7105704357   -0.3150916384    3.6147795336
 O    1.0096266412   -1.1699560613    4.0884468974
 H    0.9954570066    2.0420226412    0.2774451591
 H   -0.3139406659    1.9710715044   -0.9148370753
 H   -0.6938000096    2.1435849938    0.8040101761
 H   -1.0640841035   -0.2618313220    0.0878544460
 H    0.8422151552   -1.6554179872   -0.7168351720
 H    1.9690442536   -0.2183895894   -0.5431677767
 H    0.2499986890   -1.4508750303    1.7373246703
 H    2.4440064194    0.2734523585    4.2056811811