19

 C   -0.0281828356    1.5517608896    0.1727611743
 C    1.4730212523    1.6190138689   -0.3310855758
 C    1.2497261889    0.1880463919   -0.8517240658
 O    0.3579071943    0.1831660220   -2.0392599946
 C   -0.1276387399   -0.8830241179   -1.1811710441
 C    1.3582424740   -1.3699304950   -0.8793135152
 C    1.4133707211   -1.8984875217    0.5479633482
 C    0.4741034655   -0.8772900754    1.2731376287
 C    0.0494002458   -0.0109204018    0.0979257332
 H   -0.2211371967    1.9585272847    1.1670136542
 H   -0.7207736421    1.9912542085   -0.5430810137
 H    1.7379567374    2.3719840635   -1.0766245709
 H    2.1832403781    1.6591149747    0.4987791688
 H   -0.9629653247   -1.4913797607   -1.5454992432
 H    1.9069431292   -1.8774501399   -1.6736432028
 H    1.0431174857   -2.9268330028    0.6045928215
 H    2.4278262542   -1.8951148216    0.9579744597
 H   -0.3689117458   -1.3653925864    1.7729267108
 H    1.0081502284   -0.3015572007    2.0367265766