21

 C    0.1921431953    1.5275934519   -0.1493100215
 C   -0.0339906509    0.0487211012    0.0658285437
 C   -1.4819693185   -0.4419226155    0.0369563774
 C   -1.5584962668   -1.7311373457    0.8772279667
 O   -1.5478161640   -2.8460554478   -0.0342257734
 C   -0.3154695609   -1.7025761853    1.7998438783
 C    0.6872973210   -0.7557032027    1.1570517660
 C    1.0492884451   -0.9406792009   -0.3018507690
 O    0.8923398191   -2.1062916726   -1.0400765510
 H    1.2515148689    1.7854077642   -0.0534307472
 H   -0.1323920374    1.8399364467   -1.1492430664
 H   -0.3635225392    2.1283716327    0.5821388287
 H   -2.1224310148    0.3266392084    0.4847447140
 H   -1.8637818533   -0.6317447425   -0.9719469314
 H   -2.4876802799   -1.7804185730    1.4573364709
 H   -1.4840678642   -3.6554470338    0.4844857555
 H   -0.5992237089   -1.3188447825    2.7865019763
 H    0.0767616726   -2.7160716302    1.9551675580
 H    1.4164865622   -0.2845024382    1.8101051724
 H    1.9904395842   -0.4742242812   -0.5825279100
 H    0.0257439106   -2.5021470932   -0.8451354778