15

 C   -0.1118862180    1.4511270277    0.0098009257
 O   -0.0519875977    0.0134040556    0.0054724554
 C   -1.1838178954   -0.6681864106    0.0120407286
 C   -1.2211658123   -2.0329358593    0.0085727983
 C   -2.5198120297   -2.5963262346    0.0167670734
 N   -3.6371097947   -1.9221297476    0.0269502625
 C   -3.5776051348   -0.5513584489    0.0302409452
 N   -4.5214994509    0.2896092015    0.0393188356
 O   -2.2837324032    0.0661801849    0.0223123156
 H    0.9281040187    1.7747699011    0.0027960496
 H   -0.6328483262    1.8200170122   -0.8762876649
 H   -0.6193412199    1.8152092178    0.9056643677
 H   -0.3152590581   -2.6179040420    0.0001923272
 H   -2.6167010693   -3.6817336906    0.0145592262
 H   -5.4007866487   -0.2245892172    0.0443402139