19

 C    0.1335140728    1.5409513377    0.0884350294
 C    0.0120683223    0.0456594279    0.0657674641
 C    1.1661625878   -0.8823271006   -0.2512773129
 C    0.4671418674   -1.0053537712    1.0757394248
 O    1.1096212464   -0.7978106270    2.2804770017
 C   -0.8508456430   -1.7650784150    0.9341720771
 C   -1.3016015536   -0.7246836726   -0.1612651579
 C   -0.8106469880   -3.2278784417    0.5831935835
 O    0.1828516266   -3.9114137971    0.6245833666
 H    1.0969626575    1.8453855018    0.5087229080
 H    0.0597168572    1.9641027173   -0.9204651903
 H   -0.6551977305    1.9954150744    0.6988111730
 H    1.0904709510   -1.6527131166   -1.0147841297
 H    2.1430859626   -0.4142168102   -0.1773523865
 H    1.7382137083   -1.5176731552    2.4082565369
 H   -1.4799135622   -1.6492455764    1.8252531846
 H   -2.1933524735   -0.1677957763    0.1340270177
 H   -1.4497320789   -1.1223160936   -1.1708745029
 H   -1.7893050401   -3.6634286959    0.2708118230