18

 C    0.1521319996    1.5085102729    0.1660150030
 C   -0.0838150721    0.0072324893   -0.0646428335
 C    0.6729041781   -0.5168036876   -1.2589587807
 C    1.7254881206   -1.4208817053   -1.1319994238
 N    2.4000930160   -1.8771219770   -2.1952065036
 C    2.0305331292   -1.4268342720   -3.3818012507
 C    0.9676622478   -0.5096320771   -3.5258725413
 N    0.6140034167   -0.0024692851   -4.7573315022
 N    0.2936449813   -0.0673736758   -2.4639416326
 H    1.2053763182    1.7122632187    0.3842735005
 H   -0.1240682277    2.0763553852   -0.7263935806
 H   -0.4456813274    1.8715132955    1.0073477960
 H    0.2038981886   -0.5615730282    0.8257881172
 H   -1.1535963984   -0.1670930786   -0.2288533109
 H    2.0301032551   -1.7913220508   -0.1576378786
 H    2.5748697029   -1.7886472956   -4.2519896859
 H    0.8321290118   -0.5617556733   -5.5664498383
 H   -0.2932223005    0.4385040447   -4.7806636740