17

 C    0.0336733745    1.4284659159    0.0059730319
 N    0.0109652333   -0.0209861600   -0.0426992522
 C   -1.0962097019   -0.6282795651    0.0293451207
 N   -2.3988090202   -0.1189908577    0.1550524272
 C   -3.3036342023   -1.1801562827    0.0765488491
 C   -2.7129448086   -2.3941112501    0.0284932485
 C   -3.3390815098   -3.7489260654    0.0161409392
 C   -1.2612377666   -2.1585209354    0.0045539582
 O   -0.3606960583   -2.9665251247   -0.0202573266
 H    0.9764633347    1.7544969645    0.4537153285
 H    0.0069517174    1.8360975605   -1.0137168696
 H   -0.7920169927    1.8762028734    0.5791848745
 H   -2.6472768442    0.8055725966   -0.1541578963
 H   -4.3637776244   -0.9584231923    0.0905912631
 H   -4.4309940753   -3.6876309400    0.0076183900
 H   -3.0187028168   -4.3191797380   -0.8624886956
 H   -3.0354271988   -4.3318638594    0.8929672495