19

 C   -0.1049568039    1.5598427888   -0.0900740079
 C   -0.1034335934    0.0262183102   -0.0922025524
 C   -1.4753178028   -0.5529558655    0.0329670995
 O   -2.4868593190   -0.2570074512   -0.9821705579
 C   -3.2219171115   -1.1195533868   -0.0615381816
 C   -4.6484788870   -1.4591793032   -0.3320936230
 C   -1.9796436121   -2.0155210216    0.2652993083
 O   -2.1072873001   -1.8667311073    1.7081771678
 C   -2.5076027793   -0.5576197742    1.2129056020
 H    0.9085353415    1.9497567496   -0.2190252590
 H   -0.7284132526    1.9463535870   -0.9007326950
 H   -0.4991830626    1.9515886749    0.8531310712
 H    0.3491778505   -0.3504366634   -1.0175913915
 H    0.4971147182   -0.3639174143    0.7384865615
 H   -4.7475129772   -1.9795177162   -1.2895172597
 H   -5.0256179294   -2.1103387607    0.4622680205
 H   -5.2621944585   -0.5539114641   -0.3653113150
 H   -1.6459617592   -2.9696099611   -0.1442485289
 H   -2.8020489716    0.2133427491    1.9256178011