18

 C   -0.0179705013    1.4893880218   -0.0137858170
 C   -0.0186670707    0.0340009550   -0.0086797281
 C   -0.0215867331   -1.1724616875   -0.0090588028
 C   -0.0024843193   -2.5955063803    0.0190870742
 C   -0.3782387817   -3.4493127234   -1.1739505627
 C   -1.1720374906   -3.6121060856    0.0845754862
 C   -0.3982304192   -4.4650594310    1.0930540757
 C    0.7931171084   -3.4561352470    1.0223868558
 H    0.7894130498    1.8857921404    0.6124281809
 H    0.1242925630    1.8885828229   -1.0246037186
 H   -0.9608321103    1.8940024706    0.3721718407
 H   -0.8723598674   -2.9121704878   -1.9759962767
 H    0.2971710714   -4.2362355916   -1.5052391375
 H   -2.2330722725   -3.3969194880    0.1192937650
 H   -0.8597789871   -4.4856469136    2.0823067981
 H   -0.1929448237   -5.4950864430    0.7829358098
 H    1.7512921945   -3.8383398889    0.6561321523
 H    0.9584612397   -2.9418527729    1.9704447849