21

 O   -0.0079601888    1.4299414029   -0.0454352426
 C   -0.0047900469    0.0099371687   -0.1091397166
 C   -1.4349238785   -0.4986110385   -0.0078873259
 C   -2.3945466104    0.2737723532    0.8675258108
 C   -2.5242138590    0.3396429736   -0.6360177919
 C   -1.6093214222   -2.0031258660   -0.0586687078
 C   -0.8921838667   -2.7797307921   -1.1928714646
 O    0.0396006487   -3.3656839756   -0.2600785380
 C   -0.7151816926   -2.8697384070    0.8650552924
 H    0.9017787453    1.7316528039   -0.1123468501
 H    0.4463553719   -0.3312461985   -1.0533544272
 H    0.5992860630   -0.4100365204    0.7094958714
 H   -3.1374010009   -0.2853476943    1.4269256948
 H   -2.0131116187    1.1550529560    1.3679396953
 H   -2.2271502853    1.2639092812   -1.1156811186
 H   -3.3559602001   -0.1741568032   -1.1067351185
 H   -2.6747029126   -2.2318690858    0.0229794096
 H   -1.5144991319   -3.5425361216   -1.6800499468
 H   -0.3893807968   -2.1897436010   -1.9671675715
 H   -0.0834337304   -2.3453361670    1.5905473533
 H   -1.2510493472   -3.6765005185    1.3832119123