11

 N   -0.0267549393    1.2085058908    0.4388587065
 C    0.0074975566    0.0208306256    0.0205567159
 O    1.1729676882   -0.5770817687   -0.3906371349
 C    1.1341199213   -1.8721434820   -0.8345637655
 C    0.0127451526   -2.5760382690   -0.8838880873
 O   -1.2015651651   -2.0648778936   -0.4937800555
 C   -1.2854039540   -0.7811648367   -0.0316849675
 O   -2.3389607252   -0.3403817665    0.3046662837
 H    0.9077912039    1.6222488197    0.4191188792
 H    2.1017001721   -2.2454877930   -1.1334962925
 H   -0.0512049712   -3.5968640566   -1.2282576621