15

 C   -0.1464322626    1.4723597696    0.0118697982
 O    0.0253663786    0.0726826921    0.0024380802
 C   -1.1791841841   -0.6201164137    0.0105291377
 C   -0.8941958864   -2.1269112350   -0.0005531367
 O    0.2017146738   -2.6085468367   -0.0140905733
 N   -2.0894778712   -2.8704864783    0.0065722698
 C   -2.2364771895   -4.2560618651    0.0001102346
 O   -1.3563616987   -5.0690921695   -0.0129675819
 H    0.8505719197    1.9169158763    0.0045077749
 H   -0.7008655862    1.8213860424   -0.8733777362
 H   -0.6832816863    1.8115145307    0.9116726194
 H   -1.7863839074   -0.3816504720    0.9044687717
 H   -1.8039100864   -0.3718806331   -0.8685555997
 H   -2.9536207787   -2.3467355860    0.0176979744
 H   -3.3141712144   -4.5210670618    0.0085165669