16

 C    0.0339862459    1.4818942407   -0.2591993140
 C    0.0086765034    0.0444616524   -0.0300795370
 C   -0.0156390165   -1.1433747333    0.1568014644
 C   -0.0378724145   -2.5898298013    0.3874606770
 C   -1.3725273563   -3.1853293307    0.2916478176
 C   -2.4629794655   -3.6850200666    0.2082170689
 C   -3.7937055358   -4.2727927309    0.1282504779
 O   -3.8592710522   -5.1645576142   -0.9788725157
 H    0.6904331877    1.7405532356   -1.0973171874
 H   -0.9664447725    1.8623925369   -0.4928626567
 H    0.3953720002    2.0206511847    0.6236656590
 H    0.6249109487   -3.0878160136   -0.3343268271
 H    0.3894137403   -2.8113942417    1.3756618233
 H   -4.0144207185   -4.7957890126    1.0733383295
 H   -4.5362541684   -3.4636596488    0.0325650571
 H   -4.7512241561   -5.5259355164   -1.0019673469