18

 C   -0.1053226427    1.5033303025   -0.0525530445
 C    0.0127463482    0.0090976497   -0.0252511790
 C    0.9162822133   -0.8695035246   -0.8983727628
 C    0.0834897760   -2.0512977285   -0.3487410044
 O    0.4489864021   -2.0961233899    1.0585936056
 C   -0.2933661181   -0.8782274310    1.2077434213
 C   -0.6226299155   -0.4154941052    2.5858942599
 C   -1.0934532438   -1.0561163090   -0.0439567208
 H    0.8216468258    1.9806029807    0.2867368706
 H   -0.3141903283    1.8668170173   -1.0654367047
 H   -0.9146442160    1.8581434541    0.5943616208
 H    0.7267219706   -0.6931054364   -1.9614468520
 H    1.9929086660   -0.8981607239   -0.6982954301
 H    0.0413983978   -3.0305993790   -0.8206549264
 H    0.2922312221   -0.2036015264    3.1500758883
 H   -1.2231367001    0.4977386625    2.5561785264
 H   -1.1878082193   -1.1807668284    3.1269379672
 H   -2.1501858780   -1.0245861847   -0.2744116155