19

 C   -0.0041466673    1.4670960471   -0.0035377371
 C    0.0014589774   -0.0385858798    0.0580657797
 C   -0.2992261265   -0.8131412128   -1.2128740759
 O    0.0908265111   -2.1852704517   -1.0751104497
 C   -0.7011450313   -2.2538555392    0.1722792480
 C    0.2629593016   -2.1031086670    1.3375021346
 C    0.9809507952   -0.7637235727    1.0010098752
 O    2.2591074466   -0.9477830663    0.4154296263
 C   -1.2808795840   -0.8459648800   -0.0867228472
 H    0.9958357922    1.8405606827   -0.2481043598
 H   -0.6972108066    1.8378792021   -0.7665169432
 H   -0.3027127378    1.9057912337    0.9555192387
 H   -0.3270508139   -0.3892271556   -2.2103510475
 H   -1.3654524140   -3.1189421890    0.1664663498
 H   -0.2969592983   -2.0344651011    2.2775314296
 H    0.9814986591   -2.9230880769    1.4187695043
 H    1.1584042417   -0.1675667969    1.9011435360
 H    2.1094192084   -1.5127663139   -0.3539398029
 H   -2.2987301236   -0.4948372426    0.0140013711