18

 O   -0.0470781388    1.4035322043   -0.2230212243
 C   -0.0025057149    0.0452660310    0.0418307638
 C   -0.1907079042   -0.4107019195    1.4716591561
 C   -1.2936629147   -0.6697061191    0.4825396826
 C   -2.5607983153    0.1184498856    0.5187146744
 C   -3.7118288415   -0.2852464091   -0.3258245975
 N   -3.7686648004   -0.4599435671    1.1373301849
 C    0.8959019107   -0.7080280504   -0.8528865146
 O    1.4775827792   -0.1698624694   -1.7692732369
 H    0.4628193488    1.5130558510   -1.0418463646
 H    0.3993061171   -1.2438068523    1.8392548723
 H   -0.3356519800    0.3988608151    2.1787520928
 H   -1.4075765167   -1.6975862282    0.1424633541
 H   -2.4251720171    1.1743979904    0.7313453576
 H   -4.3858410678    0.4671640666   -0.7247930980
 H   -3.5972985362   -1.1657776972   -0.9537839945
 H   -3.6015468613   -1.4359723485    1.3729172413
 H    0.9915587231   -1.7943935333   -0.6496431194