17

 O   -0.1497822506    1.3943368475    0.1231319115
 C   -0.0401859947   -0.0056479368   -0.0477348882
 C    0.7454472505   -0.3749161481   -1.2363395489
 C    1.4043639541   -0.6795122554   -2.1939320555
 C    0.5568435220   -0.6344478654    1.1912105746
 C    0.7650956320   -2.1081547591    1.5658395301
 C    0.6707327838   -1.6782383082    3.0751269172
 C    0.4651210283   -0.2324239324    2.6031385824
 O    1.6200260301    0.1100007836    1.8080317966
 H    0.7008361368    1.6772179931    0.4871731509
 H   -1.0643411242   -0.3795612825   -0.1728575701
 H    1.9796627903   -0.9412335861   -3.0476983824
 H   -0.0633650854   -2.7521814808    1.2616859756
 H    1.7084538530   -2.5385004989    1.2253989054
 H   -0.2049275491   -2.0958627015    3.5768511808
 H    1.5585424866   -1.8398010130    3.6900721880
 H   -0.0644224435    0.5871563639    3.0735559419