12

 O    0.1613777621    0.3051010379   -0.7169842870
 C   -0.0194867967    1.3097223064   -0.1177763113
 C   -1.1990675695    2.1689262536    0.3373951955
 C   -0.0923568497    3.0468920253    0.9763589371
 O    0.9319338487    2.1325445194    0.4515914526
 C    0.0604663594    4.3978446580    0.4828330755
 C    0.1731708004    5.5319809420    0.0844097434
 C    0.2976071224    6.8147608825   -0.3671901918
 N    0.3990101366    7.9064148249   -0.7499250033
 H   -1.7608616327    2.6314686765   -0.4741913212
 H   -1.8786134421    1.6810723706    1.0365898270
 H   -0.0740972586    3.0298203029    2.0695026436