18

 C    0.2795218829    1.3623566899    0.1974887788
 C   -0.0146620434   -0.1230910592   -0.0343099584
 C    0.5531885662   -0.6262587634   -1.3454427735
 O    2.0051739042   -0.4692451574   -1.4593914465
 C    2.1810543224   -1.8525496838   -1.8038427510
 C    2.4048780882   -2.7550259761   -0.5825705955
 O    0.9713567388   -2.9039056894   -0.3927763304
 C    0.6857442432   -2.1454133104   -1.5824430416
 H    1.3577687402    1.5444823752    0.1895286019
 H   -0.1712871447    1.9860039965   -0.5825761675
 H   -0.1165657348    1.6943839943    1.1616121630
 H    0.3954395876   -0.7301154966    0.7785791028
 H   -1.0984658181   -0.2999515191   -0.0450442693
 H    0.0719477200   -0.1251991388   -2.1991463245
 H    2.7677891901   -2.0034535267   -2.7114297927
 H    2.8744755798   -3.7233269551   -0.7977993458
 H    2.8995102121   -2.2740917179    0.2675030759
 H   -0.0120307946   -2.6502260320   -2.2527281855