17

 O    0.0846277180    1.3871839115   -0.0288323269
 C   -0.0409706384   -0.0028915492   -0.0666537752
 C    0.6188507386   -0.7200669583   -1.2358653941
 C   -0.0892467407   -1.7983371256   -1.6108155541
 C   -1.0622440246   -1.9834101594   -0.4832777177
 C   -0.7866395591   -2.8320233637    0.5239880683
 C   -0.5726703587   -2.0640563302    1.8240056698
 C   -0.6097089056   -0.6140399600    1.3242896710
 C   -1.3921277484   -0.5921167432    0.0557303709
 H    0.9400346631    1.6007931068    0.3584245911
 H    1.5155599339   -0.3407691832   -1.7123411858
 H    0.1601186939   -2.5106420912   -2.3857070899
 H   -0.3376439912   -3.8090998337    0.3753327687
 H   -1.3153285748   -2.2203304432    2.6227565201
 H    0.3959903504   -2.3673312255    2.2442623103
 H   -0.7324373460    0.1890947767    2.0460012790
 H   -2.3243917105   -0.0758053985   -0.1541184756