16

 C    0.1240768553    1.1809231068   -0.4661950872
 N   -0.0524278793    0.0520526320    0.4602503463
 C   -1.1715461548   -0.7354064224    0.2625897535
 C   -1.2835902129   -2.0202676691   -0.1118188455
 N   -0.3235834802   -2.9595010200   -0.4809620881
 N   -2.6461613339   -2.3145007393   -0.1604339924
 C   -3.3876855935   -1.1796056783    0.1274384262
 O   -4.5818009246   -1.0454810212    0.1420704933
 O   -2.4766402603   -0.1982517478    0.4088554772
 H    1.0666409557    1.6853151180   -0.2352854804
 H    0.1810646410    0.7949694113   -1.4876459194
 H   -0.6908681375    1.9155543237   -0.4198770929
 H    0.0304075965    0.3668803457    1.4219864944
 H    0.6011583117   -2.5548903553   -0.3836531025
 H   -0.3724514476   -3.8080790130    0.0752319329
 H   -3.0603749954   -3.1298730712   -0.5781453255