19

 C   -0.2341340392    1.3072612340   -0.1474927980
 O    0.0125129885   -0.0771453892   -0.0599008925
 C    0.6266260604   -0.5966365422   -1.2141099468
 C    0.8008912594   -2.0920607416   -1.0435241613
 O   -0.3815561472   -2.8861557822   -1.2988898720
 C    0.2569043829   -3.7167212144   -2.3033344525
 C   -0.4594109874   -3.7316602185   -3.6413589375
 C    1.5177931023   -2.8508184905   -2.1702727243
 O    2.5653503181   -2.7591312505   -2.7342926873
 H    0.6967061911    1.8797849152   -0.2860586698
 H   -0.9132452746    1.5484831325   -0.9800610820
 H   -0.7021971059    1.6137086427    0.7906695740
 H    0.0205834823   -0.3942393411   -2.1121927665
 H    1.6231907702   -0.1476769315   -1.3718840714
 H    1.2171910998   -2.2945338491   -0.0464898555
 H    0.4099914865   -4.7399859659   -1.9298709327
 H   -0.5832568026   -2.7178621497   -4.0318614736
 H    0.1158938937   -4.3189254161   -4.3635696282
 H   -1.4489481883   -4.1849096419   -3.5337095421