18

 N    0.0963405939    1.2645078928   -0.2749691811
 C   -0.0458477903    0.0440087138    0.3298169515
 O    0.7987174076   -0.4015846601    1.0886680797
 C   -1.2742763428   -0.7297711286   -0.0249287520
 C   -1.7732734463   -1.7234669341    1.0281593542
 C   -1.1477518839   -2.2355895972   -0.2242841033
 O   -1.9558310739   -2.6472872194   -1.2881951629
 C   -2.9250276862   -1.6288962286   -1.5267559026
 C   -2.2827326873   -0.2937266442   -1.0788564415
 H    0.8693389761    1.8318499493    0.0347492379
 H   -0.6784158094    1.7285449125   -0.7155451744
 H   -1.1607879622   -1.7697331632    1.9208643666
 H   -2.8422582046   -1.8226457307    1.1802584314
 H   -0.1863872208   -2.7323116788   -0.2017979014
 H   -3.1830865799   -1.6533122061   -2.5884418942
 H   -3.8395174508   -1.8288661750   -0.9518689830
 H   -3.0405583129    0.4076372631   -0.7144310407
 H   -1.7569106362    0.1733342545   -1.9189382039