18

 C   -0.2252134609    1.5526395761   -0.0329162231
 N    0.1711707015    0.1493462589    0.0845717744
 C    1.3889562884   -0.5065146074   -0.2920483573
 C    2.7077853007    0.1741100625    0.2253381379
 N    2.3597910812    1.4490111477    0.8987905421
 C    2.1974605861    0.1560897583    1.6077583638
 C    0.8642294377   -0.5467602445    1.1246346353
 C    0.2055703609   -1.6303573849    1.9258079525
 H    0.4128943014    2.0910537045   -0.7359730106
 H   -1.2611006325    1.5902961905   -0.3942044361
 H   -0.1675641625    2.0695881062    0.9271133487
 H    1.3811274509   -1.2678769018   -1.0667718975
 H    3.7048027613   -0.0210860868   -0.1472108175
 H    3.2340331162    1.8588903346    1.2284724182
 H    2.7154789398   -0.0543327086    2.5347990912
 H   -0.3194525761   -1.2138758816    2.7946481725
 H   -0.5247410938   -2.1624012152    1.3109910322
 H    0.9426410697   -2.3504504084    2.2993171236