17

 C    1.0202038117    1.3797326947    0.0256141865
 C   -0.0334916295    0.2815287710   -0.1335624652
 O    0.3720852722   -0.5128498832   -1.2401032823
 C   -0.3669174804   -1.6708700951   -1.4443772439
 O    0.2307038964   -2.8134450791   -0.8487750527
 C    0.3549247323   -2.9090926986    0.5011453098
 O    0.8047626364   -3.9226762316    0.9697793117
 C   -0.0780532831   -1.7927723744    1.3846746589
 C   -0.2293708506   -0.4880450005    1.1394112533
 H    1.9874566423    0.9393231010    0.2805906913
 H    1.1206799689    1.9282325831   -0.9138847995
 H    0.7315482706    2.0806755581    0.8132729230
 H   -0.9997317379    0.7622458551   -0.3735651967
 H   -1.4006115843   -1.5579957124   -1.0891291408
 H   -0.3560943623   -1.8912087011   -2.5130472594
 H   -0.2230453649   -2.1490439186    2.3993746209
 H   -0.5297731780    0.1423923716    1.9752796152