19

 O    0.0308011149    1.4795806753    0.0641713948
 C   -0.0184609496    0.0630133298   -0.0237278029
 C    0.6931200554   -0.5702103814    1.1741096743
 O    0.0274010983   -0.1808297943    2.3718387876
 C   -1.2884711915   -0.7245864183    2.4389931404
 C   -2.1687348709   -0.2083486934    1.2920971263
 C   -1.4604919260   -0.4356220526   -0.0289277675
 C   -2.1882650535   -0.6075412507   -1.2857396122
 O   -1.6223679723   -1.7404753736   -0.6101922451
 H   -0.0132047873    1.6930706928    1.0049295990
 H    0.4701417067   -0.2298338380   -0.9587958993
 H    0.7105058007   -1.6658128453    1.0738984802
 H    1.7186889944   -0.1993847537    1.2533870305
 H   -1.2354743820   -1.8238491170    2.4011632571
 H   -1.6911871178   -0.4333127877    3.4125783385
 H   -3.1377208558   -0.7166934882    1.2947973427
 H   -2.3478697446    0.8650395247    1.4234541086
 H   -3.2768480956   -0.5662807716   -1.2889270247
 H   -1.7108161734   -0.3378539866   -2.2268286184