15

 N    0.2060510704    1.4184204039   -0.0275296352
 C    0.0471901802   -0.0019646381   -0.0145875368
 C   -1.0732928246   -0.8119844353    0.0386975395
 N   -0.6391816084   -2.1068781980    0.0246605870
 C    0.7437436011   -2.1651801429   -0.0368103966
 N    1.3923442732   -3.4198808055   -0.0605955133
 C    1.1809757204   -0.8589353854   -0.0616932960
 O    2.4710967281   -0.4307598463   -0.1210577979
 H   -0.1792442579    1.8523052021    0.8051280753
 H   -0.2528053430    1.8456692823   -0.8256079362
 H   -2.1222079095   -0.5664190597    0.0844700680
 H   -1.2115170131   -2.9322710209    0.0536160427
 H    2.0263898980   -3.5235529210    0.7260514217
 H    1.9535538977   -3.5303969940   -0.8998864435
 H    2.4071552875    0.5364503187   -0.1223524586