19

 C   -0.8035541696   -0.7649973136   -1.1677154679
 C   -0.3474483496    0.1768812407   -0.5746095005
 C    0.2110184695    1.2950840781    0.1544482369
 C   -0.0539053751    1.3996816186    1.6927272457
 C    1.4010591409    1.8852053036    1.8657685042
 C    1.7082143315    3.3649976069    2.1904860468
 C    2.4839045405    2.7887961122    3.3902075335
 O    2.1456672865    1.4384360670    3.0083992108
 C    1.7408908501    1.2930174299    0.4814193751
 H   -1.2073566279   -1.5943852753   -1.6931699635
 H   -0.0648427346    2.2339846746   -0.3369462028
 H   -0.8638937042    2.0515443070    2.0284866504
 H   -0.1741485044    0.4076844098    2.1348797821
 H    2.3130673264    3.8879432085    1.4471137780
 H    0.8388449267    3.9754392757    2.4424381456
 H    3.5674037002    2.9554776947    3.3843024876
 H    2.0907479196    3.0434483670    4.3813491933
 H    2.1137079210    0.2717173531    0.5908159499
 H    2.4049468723    1.8572622018   -0.1776683852