17

 C   -0.0290958007    1.5837443155   -0.0852362217
 C   -0.0655202881    0.0602117691   -0.0543942491
 N   -1.4355226441   -0.4071395727    0.0624406758
 C    0.7458875479   -0.6478809532   -1.1890268536
 N    1.7030195980   -1.1109094407   -0.1642963334
 C    2.8675135299   -1.8473157446   -0.2856036433
 O    3.5723803345   -2.1841365676    0.6288103327
 C    0.9887763827   -0.5478162365    0.9213325058
 O    1.1528025146   -0.5838018082    2.1027339490
 H    0.9857038344    1.9541255111   -0.2547555793
 H   -0.6832267900    1.9570164621   -0.8782404429
 H   -0.3748131018    1.9877522627    0.8718100397
 H   -1.4633615088   -1.4101869816    0.2264002882
 H   -1.8763806518    0.0249597082    0.8699350631
 H    0.2011085146   -1.4602399827   -1.6771683672
 H    1.1840387875    0.0141198564   -1.9399542511
 H    3.0773829012   -2.0915287171   -1.3471115227