15

 O    0.2410853650    1.6794177197    0.4404926521
 C   -0.0332711985    0.4127435909   -0.1169896284
 C    0.4309137915    0.3294104063   -1.5789418934
 O   -0.0368239490   -0.8993910057   -2.0983076595
 C    0.4302559383   -1.2061001576   -3.3876829545
 C   -0.0902260514   -0.2887862459   -4.4204705020
 N   -0.4958274779    0.4468952239   -5.2133149055
 C    0.5568182963   -0.6782433711    0.6838970345
 N    1.0644016295   -1.4980784897    1.3200856674
 H    1.1908844654    1.7545891500    0.5890447145
 H   -1.1219665421    0.2987750822   -0.1001144772
 H    0.0108425294    1.1867183680   -2.1206905781
 H    1.5298876034    0.3859514578   -1.6301164669
 H    1.5298432244   -1.1938300258   -3.4353114100
 H    0.0940977258   -2.2223415328   -3.6111227829