19

 C   -0.5265177393    1.6417636791   -0.0624170621
 C    0.1050622805    0.2630686864    0.0390531202
 C    1.3731672454   -0.0229653565   -0.8539683069
 C    2.0585732374   -0.6103007487    0.3771589964
 C    2.8156805929   -1.8573788136    0.5018070673
 O    3.4479954909   -0.5734747197    0.6222130967
 C    0.9922851002   -0.0381283250    1.3077928501
 C   -0.9069361804   -0.8426238476   -0.1469352560
 O   -2.0823697698   -0.6809015575   -0.3526497911
 H    0.2270957741    2.4228644819    0.0751525668
 H   -0.9991728259    1.7834203695   -1.0386656141
 H   -1.3035838266    1.7715940661    0.6964342857
 H    1.2432875452   -0.6725338928   -1.7239579355
 H    1.8405692180    0.9116576200   -1.1759681753
 H    2.7591568397   -2.4365593594    1.4227139336
 H    3.0786576045   -2.4238471686   -0.3907572872
 H    1.3192292148    0.8909454160    1.7827601932
 H    0.5744224266   -0.6991332844    2.0720857519
 H   -0.4759300182   -1.8702321953   -0.0784175138