14

 C   -0.0451215784    1.5055060237    0.0097221304
 C    1.4678720790    1.2721382386   -0.0055432213
 C    1.2167013407    0.1001977891    0.9954526083
 C    2.1388653456   -1.0473607991    0.6434364464
 C    2.1264775163   -1.0404280532   -0.6909281088
 C    1.1980440699    0.1106341767   -1.0138208138
 N    0.0157889664   -0.0237335758    0.0012098830
 H   -0.4958416765    1.9187916893    0.9167065397
 H   -0.5125710741    1.9281515165   -0.8843893882
 H    2.2950306713    1.9941223984   -0.0094737626
 H    0.9440171752    0.2968028622    2.0331225173
 H    2.6407476561   -1.7080308632    1.3352857477
 H    2.6153647977   -1.6938260618   -1.3988027208
 H    0.9061573908    0.3179807986   -2.0441502073