14

 O    0.0866209343    1.1853533930   -0.5528957820
 C   -0.0087706054   -0.0853631116   -0.1263493014
 C   -1.2413262550   -0.6742732730   -0.0877195259
 C   -1.4836019196   -2.0209002246    0.3206933941
 N   -0.6829028135   -3.0375003228    0.3788187787
 C    0.6427548855   -2.9732690701   -0.0345935326
 N    1.2510658378   -3.8719387660   -0.7033250107
 C    1.4609081962   -1.8284085684    0.4520794477
 N    1.1768335496   -0.5833572817    0.3576413358
 H    0.9987352478    1.4646283915   -0.3908625095
 H   -2.0982317421   -0.0397856151   -0.2850423631
 H   -2.5116328520   -2.2317772586    0.6245261704
 H    0.5894939981   -4.6089459524   -0.9649411447
 H    2.4134423281   -2.0869516002    0.9157569332