19

 N   -0.4455098921    0.8893168407    0.7924186352
 C   -0.1935970580   -0.1893175768    0.1884523691
 C   -1.0724190451   -0.8547717099   -0.8494809035
 C   -0.5437930676   -2.3015812021   -0.8952995949
 C    0.9309767468   -2.0805283606   -0.4998223989
 O    0.9315494740   -0.9456459370    0.3798261292
 C   -1.2628175530   -3.2096741107    0.0801893250
 C   -2.4210022550   -4.0238771500   -0.3578149598
 N   -1.1356554102   -4.6716689519   -0.0278153125
 H    0.3166714290    1.1293842340    1.4289544180
 H   -2.1272791988   -0.7707918807   -0.5861983987
 H   -0.9280385517   -0.3522938523   -1.8121659011
 H   -0.6141943950   -2.7320196450   -1.9000335311
 H    1.3673597568   -2.9243068108    0.0400659379
 H    1.5557033433   -1.8561873402   -1.3736308497
 H   -1.2496876986   -2.8587230289    1.1114667208
 H   -3.2329833509   -4.2395083616    0.3303280958
 H   -2.7188788947   -3.9628233461   -1.4020490764
 H   -0.6487102195   -4.9123268500   -0.8892424845