20

 C   -0.1399280298    1.5175544467    0.0138497656
 C    0.0523419760    0.0208140307   -0.0070991759
 C    1.1207813131   -0.6598194464   -0.9005480446
 N    1.3402657007   -1.6962136040    0.1618273171
 C    0.0598578862   -2.4964851834    0.4372112856
 C   -0.0437680455   -1.8323256771    1.8319566360
 C    0.7753067262   -0.7174941460    1.1848251946
 C   -1.1023766921   -1.9958335360   -0.4125687563
 O   -1.2214048437   -0.5817375766   -0.2475101666
 H    0.8069753270    2.0238754824    0.2228161428
 H   -0.5199142960    1.8697309894   -0.9500683266
 H   -0.8631755411    1.7983941917    0.7859615829
 H    0.8209640612   -1.0099076284   -1.8925407065
 H    2.0362899207   -0.0677130548   -0.9960254587
 H    0.1925346528   -3.5785312790    0.3644200618
 H   -1.0433173827   -1.5967421203    2.2028122082
 H    0.5316997119   -2.3590731786    2.5955912779
 H    1.4855065873   -0.1174353196    1.7610075007
 H   -0.9631810899   -2.2539834304   -1.4723014645
 H   -2.0478986123   -2.4409324803   -0.0832099335