21

 C   -0.0332207036    1.5203418837    0.0386951545
 C    1.5261360615    1.5470773952    0.0036890798
 C    1.5556401731    0.0046931758    0.0437935043
 C    2.4986293908   -0.8310402222   -0.8260562182
 C    2.7298396307   -2.0726533425    0.0073699023
 C    2.1925281389   -1.9850506497    1.2255528256
 C    1.4738446345   -0.6843005889    1.4486172626
 C   -0.0882842825   -0.7438541145    1.3485101363
 C   -0.0193885814   -0.0339016965   -0.0264201406
 H   -0.4880057701    1.9295598896    0.9457229849
 H   -0.5041275496    2.0029616782   -0.8209433617
 H    1.9179621547    1.9501680733   -0.9353811709
 H    2.0323835839    2.0604033291    0.8275902467
 H    2.0629915561   -1.0588664288   -1.8085409180
 H    3.4427403367   -0.3032402713   -1.0298955970
 H    3.2887177916   -2.9255085529   -0.3642619721
 H    2.2440522978   -2.7598521968    1.9842887718
 H    1.8616832958   -0.1256163577    2.3087577032
 H   -0.4735827218   -1.7659941797    1.3059735179
 H   -0.6374440154   -0.1998835439    2.1234234495
 H   -0.5626067915   -0.4898346295   -0.8569184708