10

 C   -0.0181365221    1.4758230481    0.0102032197
 C    0.0019271973    0.0273311828    0.0021335738
 C    0.0186368026   -1.1846956169   -0.0045623033
 C    0.0372137717   -2.5351220712   -0.0119789339
 C    0.0535820304   -3.7511434175   -0.0186224227
 C    0.0711260477   -5.1098859681   -0.0260395252
 N    0.0861077207   -6.2735714795   -0.0323622735
 H    0.9996206523    1.8811590716    0.0026773896
 H   -0.5435946007    1.8646564896   -0.8689412044
 H   -0.5266782098    1.8550140911    0.9033890899