19

 C   -0.0054571390    1.3152504093   -0.0478068229
 O   -0.0333660004   -0.1009726234    0.0529962795
 C    0.6716604332   -0.6253283010    1.1758377254
 C   -0.3549085676   -1.0237436644    2.2845893104
 O   -1.5310253687   -0.2367263138    2.2612946662
 C   -0.5872360264   -2.4932623306    2.0131968229
 C    0.3011234139   -2.9970413570    1.1597646607
 C    1.3226053814   -1.9683419716    0.7220924247
 O    1.6517857488   -1.9932283512   -0.6477368289
 H    1.0246813278    1.6855118837   -0.1404007772
 H   -0.5609960125    1.5804710024   -0.9508090144
 H   -0.4804491626    1.7838575964    0.8218188446
 H    1.4118181062    0.1043470654    1.5194014624
 H    0.0786631793   -0.8667073243    3.2797082611
 H   -1.8441931646   -0.2706987929    1.3486257154
 H   -1.3930967110   -3.0316981784    2.4996132999
 H    0.3581625332   -4.0248438425    0.8193937983
 H    2.2649380165   -2.1197823597    1.2653413760
 H    0.9658509824   -1.4675156963   -1.0814166542