20

 C   -0.1359639944    1.4253938608   -0.1723761270
 O   -0.1297899064    0.1170123115    0.3588692425
 C   -1.2973736886   -0.6007102306    0.0801254799
 C   -1.3837005330   -1.2892303175   -1.3093305190
 N   -1.1187667941   -2.6113660289   -0.6855381845
 C   -1.2581144100   -2.0519593298    0.6759816891
 C   -0.1116781059   -2.3786849431    1.6310893152
 C   -2.5883968407   -2.3785372906    1.3271210297
 O   -3.4321504253   -3.0799141184    0.8276790527
 H    0.8026485449    1.8978123557    0.1252899401
 H   -0.1997347251    1.4246832154   -1.2700912611
 H   -0.9765207556    2.0163060886    0.2233803395
 H   -2.1821354271   -0.0070188842    0.3575963035
 H   -2.3658563262   -1.1897797951   -1.7858776578
 H   -0.6086233762   -0.9821542909   -2.0198483929
 H   -1.8462670765   -3.2965236829   -0.8728532891
 H    0.8273426489   -2.0111681288    1.2174988557
 H   -0.2627005386   -1.9152991235    2.6118592154
 H   -0.0395092565   -3.4628092284    1.7637543912
 H   -2.7428354837   -1.9109458993    2.3264111471