15

 C   -0.0113692411    1.3733381852    0.0080576852
 O   -0.0010169246   -0.0595451900    0.0075066706
 C    0.5967818218   -0.6235112343   -1.0360276975
 N    1.1598077278   -0.0049399178   -2.0330244950
 O    1.6376561955   -1.0015750103   -2.8602981793
 N    1.3571456845   -2.2543540752   -2.3524988799
 C    0.7211732414   -2.0409522573   -1.2373173267
 O    0.2539419951   -2.9647621561   -0.4050583760
 C    0.4882526485   -4.3218688890   -0.8008134188
 H    1.0107408252    1.7639329489    0.0084317363
 H   -0.5373212056    1.7530977291   -0.8730901195
 H   -0.5323355288    1.6653876741    0.9193727048
 H    0.0136556993   -4.5272244175   -1.7651011186
 H    1.5617264188   -4.5170001302   -0.8835864421
 H    0.0469581422   -4.9388533496   -0.0186476736