23

 C   -0.0555803194    1.4924849362    0.0792923537
 C    0.0158943350   -0.0334193706   -0.0152397153
 C    0.7275603353   -0.5060472365   -1.2753132674
 O    0.7504054652   -1.9177045413   -1.2848606127
 C    1.3898672712   -2.4605494194   -2.4161612513
 C    1.3516185398   -3.9796235242   -2.3122383577
 C    2.0335639384   -4.6559043334   -3.5171982487
 C    2.0095315701   -6.1112946235   -3.4398768623
 C    1.9781461769   -7.3098125457   -3.3556052570
 H    0.9446095517    1.9396623592    0.0929772575
 H   -0.5977780150    1.9209505615   -0.7709866715
 H   -0.5705789335    1.8058023607    0.9918960657
 H    0.5403059878   -0.4446553235    0.8548969570
 H   -0.9922524304   -0.4632557575   -0.0036538342
 H    0.2101578705   -0.1253524940   -2.1739618982
 H    1.7567749692   -0.1062002861   -1.3076448378
 H    0.8872263408   -2.1263614893   -3.3416562694
 H    2.4346686782   -2.1061630593   -2.4766885894
 H    1.8453270998   -4.2896919077   -1.3859141662
 H    0.3103224251   -4.3096786338   -2.2434217883
 H    1.5437858338   -4.3337540425   -4.4459418408
 H    3.0745493021   -4.3136401698   -3.5909050360
 H    1.9554236975   -8.3691313193   -3.2903928698