17

 C   -0.1343485417    1.4607963294   -0.0929197864
 N    0.0365668852    0.0186050610    0.0327501431
 C    1.3637896194   -0.5095961439   -0.1773726210
 C    0.7796215694   -0.4768466424    1.2074365215
 C    1.2785467020    0.3392049027    2.3419743249
 C    1.0905415626   -0.3732740185    3.4623932050
 N    0.5064078344   -1.6168397236    3.1865697926
 C    0.2677694777   -1.7691360683    1.8293333576
 O   -0.2156989369   -2.7317861670    1.2830104115
 H    0.7652584875    2.0462766974    0.1529005882
 H   -0.4105357311    1.6817370391   -1.1284303351
 H   -0.9504002651    1.7871753078    0.5579582355
 H    1.4169890696   -1.4691642315   -0.6853077965
 H    2.1776189476    0.1866979763   -0.3790230835
 H    1.7210105774    1.3200409286    2.2812486863
 H    1.3330848920   -0.1145766772    4.4828253116
 H    0.2527761499   -2.3124955899    3.8671928447