17

 C   -0.0177285454    1.4277964799    0.0606551365
 C   -0.0249315540   -0.0549973177   -0.0713402708
 N   -0.0108554275   -0.7294630490   -1.1550309404
 C    0.0232515409   -2.1175132125   -0.7639055940
 C    1.2380568741   -2.5550922673    0.0377837614
 C   -0.0130086518   -2.1311469537    0.7559806631
 C   -0.8042415466   -3.0051764704    1.6816396827
 O   -0.0524617880   -0.7479520901    1.1075334196
 H    0.9052790474    1.7665162904    0.5424736309
 H   -0.0948505563    1.8810419129   -0.9271837436
 H   -0.8520497897    1.7579669173    0.6872377526
 H   -0.4908386887   -2.8236334082   -1.4055880522
 H    1.4572737455   -3.6174424610    0.0482821640
 H    2.1046356815   -1.9021446997    0.0500422316
 H   -0.8002531269   -4.0365136553    1.3183532132
 H   -0.3768042467   -3.0013632638    2.6900197271
 H   -1.8426621278   -2.6658637918    1.7475054385