18

 C   -0.0688355605    1.5520474996    0.0107567300
 C   -0.1274046383    0.0281223457   -0.1002917460
 C    0.8196202920   -0.5136460106   -1.1886642381
 O    2.1649296299   -0.1424197955   -0.9438219981
 C    0.6857003514   -2.0050569095   -1.3197744999
 N    1.6600203413   -2.8199669488   -0.9463483585
 N    1.1259721577   -4.0417077923   -1.1879767290
 C   -0.1176567429   -3.9101259632   -1.6883540784
 N   -0.4341647739   -2.6344754785   -1.7845861808
 H    0.9548078593    1.8807894541    0.2074581731
 H   -0.4024868543    2.0284608781   -0.9181159672
 H   -0.7104576794    1.9130275912    0.8201457143
 H    0.1528785435   -0.4331297739    0.8555441075
 H   -1.1450122318   -0.3072853886   -0.3309140850
 H    0.5319457676   -0.0618857338   -2.1481766444
 H    2.5973012633   -0.8934987507   -0.5198723197
 H    1.6632573148   -4.8731717337   -1.0054057112
 H   -0.7369405597   -4.7508936297   -1.9633845387