18

 C    0.0942775299    1.6063473857    0.1001020778
 C    0.0993948072    0.1100020241   -0.0040129669
 C   -0.9166404751   -0.8040582944    0.6766421604
 C    0.5499315197   -0.9497254446    1.0023803695
 N    1.2584159021   -1.6371168386   -0.0887896199
 C    1.4890463845   -2.8649239903   -0.6620244452
 C    1.3084461623   -2.6937570711   -2.0224215041
 C    0.8205992709   -1.3671283108   -2.2714518631
 C    0.8085841610   -0.7475016081   -1.0436036474
 H    1.1035148166    2.0140291710   -0.0153714414
 H   -0.5374638134    2.0513279179   -0.6770725092
 H   -0.2983397161    1.9314342433    1.0688418382
 H   -1.5243426065   -0.3419834119    1.4522893830
 H   -1.4169333482   -1.5835457952    0.1103881250
 H    0.9887983003   -0.8424752698    1.9860858839
 H    1.8653135434   -3.7079329793   -0.1042088798
 H    1.5499743145   -3.4286160218   -2.7775973805
 H    0.5445102570   -0.9555730362   -3.2298941106