17

 N    0.5177840868    1.4217519830   -0.1542144591
 C    0.2031419815    0.0795349132   -0.0685084748
 C   -1.0118140923   -0.5722691228    0.0410009254
 N   -0.7937263122   -1.9135500598    0.0286647855
 N    0.4740075780   -2.1489667558   -0.0906449470
 N    1.1100851188   -0.9333043675   -0.1414416208
 C    2.5597556367   -0.9118299837   -0.1513223407
 C    3.1885193334   -0.3970544866   -1.4403788070
 O    3.1027321843    1.0266729765   -1.4480021760
 H    1.4909758202    1.6288647222   -0.3364890252
 H    0.0820240601    2.0121633568    0.5369911347
 H   -2.0004345719   -0.1497738847    0.1162577505
 H    2.9272563554   -0.3060214369    0.6858830170
 H    2.8612510554   -1.9476212163    0.0166925525
 H    4.2411255147   -0.7142075412   -1.4683708962
 H    2.6724309915   -0.8375436805   -2.3024378431
 H    3.1814466597    1.3415896039   -2.3528075858