13

 N   -0.0251508308    1.3238518484    0.0117852187
 C    0.0170978358    0.0614495574    0.0038089387
 N    1.1225601892   -0.8068837608   -0.0080659376
 C    0.7068181881   -2.1098834168   -0.0134070589
 C   -0.6506243643   -2.2440103906   -0.0061289388
 C   -1.3383249994   -3.5304700337   -0.0095572420
 O   -2.5348539534   -3.6957606286   -0.0047134406
 C   -1.2192243236   -0.8769986212    0.0051458511
 O   -2.3593819085   -0.4972011924    0.0144139994
 H    0.9048678916    1.7501839862    0.0089582517
 H    2.0847759564   -0.5121437821   -0.0119862634
 H    1.4419422483   -2.9059277849   -0.0224740452
 H   -0.6372103096   -4.4002623310   -0.0200640931