23

 C    0.1259178539    1.5829630832    0.1534124386
 C   -0.0007766320    0.0624824206    0.0235005139
 C    0.6906209107   -0.4842160173   -1.2341743589
 O    2.0511548308   -0.0728383589   -1.2847377399
 C    0.5739190361   -2.0273239259   -1.3745933896
 C   -0.8877900896   -2.5191748141   -1.4456766355
 C    1.3238376608   -2.4997787280   -2.5391585301
 C    1.9046354650   -2.9005283473   -3.5148587691
 C    2.6235164474   -3.3726505166   -4.6898700327
 H    1.1756840421    1.8849807134    0.1448612141
 H   -0.3708739870    2.0900299517   -0.6812238261
 H   -0.3327971693    1.9386466223    1.0809019884
 H    0.4387713370   -0.4262436062    0.9061699076
 H   -1.0595469626   -0.2172658244    0.0132239449
 H    0.2345334773   -0.0289913873   -2.1226792678
 H    2.5251824451   -0.5343036288   -0.5836159572
 H    1.0295571407   -2.4622999568   -0.4697132733
 H   -1.4173782166   -2.0334224167   -2.2714694515
 H   -0.9122770704   -3.5971690514   -1.6221493694
 H   -1.4271077796   -2.3140538321   -0.5177340046
 H    3.1997116548   -4.2782426288   -4.4689151651
 H    1.9372146887   -3.6111961916   -5.5101996707
 H    3.3256757869   -2.6153747790   -5.0561031658