16

 C   -0.0339147351    1.3377616223    0.2920949202
 O   -0.1036261593    0.0968504311   -0.3850457805
 C   -1.3001191879   -0.5791758011   -0.1665172222
 C   -1.2708420663   -2.0281176896   -0.7771824708
 N   -1.4764567052   -2.4909666396    0.6125963048
 N   -1.7122644098   -3.5042327135    1.4521975785
 N   -1.8730176645   -2.9232434484    2.6234507434
 C   -1.7643181000   -1.5618034365    2.5205992497
 C   -1.5033011708   -1.2825722814    1.1954893190
 H    0.9277516871    1.7866478100    0.0375928430
 H   -0.8423620855    2.0142883275   -0.0228699172
 H   -0.0910521050    1.2028563459    1.3814713813
 H   -2.1651780930    0.0218348165   -0.4801387873
 H   -2.0870094104   -2.2887772477   -1.4526253879
 H   -0.3024528410   -2.3065153645   -1.1943081205
 H   -1.8751462631   -0.9287558711    3.3844781465