14

 C   -0.0151117072    1.4579544758   -0.0007130058
 N    0.0111923016   -0.0081389947    0.0186530022
 C    0.1042519017   -0.6232125642   -1.2134885892
 O    0.1625887913   -0.0427871436   -2.2593703220
 O    0.1298986687   -2.0053581050   -1.2102193976
 C    0.0664840585   -2.7001636085   -0.0524823890
 C   -0.0237608263   -2.1300796542    1.1506383738
 C   -0.0587343727   -0.6772411385    1.2653998280
 O   -0.1392880114   -0.0642629935    2.3077303378
 H    0.8963178517    1.8402175385   -0.4646536717
 H   -0.8714866931    1.8070013502   -0.5811095399
 H   -0.0893714864    1.7911506868    1.0317470981
 H    0.0986522223   -3.7672406088   -0.2356603787
 H   -0.0727070487   -2.7144268004    2.0575913840