19

 C    0.0504326823    1.5484232573   -0.0196069074
 C    0.0130263965    0.0151579452    0.0419996866
 C    0.7698446588   -0.4864318022    1.2818725661
 C   -1.4331908054   -0.5439473121    0.0156933180
 C   -2.2555634835   -0.0700445300   -1.1984896100
 C   -1.3967789245   -2.0599034618   -0.0255523349
 O   -1.9256945492   -2.7988205680    0.7638365965
 H    1.0828495222    1.9056830541    0.0515235653
 H   -0.3686642358    1.9392324249   -0.9503226114
 H   -0.5093539475    1.9883735915    0.8142399274
 H    0.5279028285   -0.3699012768   -0.8513419829
 H    0.7865747999   -1.5791328706    1.3417789299
 H    1.8067119767   -0.1361708957    1.2729192829
 H    0.3000889773   -0.1153934062    2.2001118248
 H   -1.9498339890   -0.2612907706    0.9407827431
 H   -3.2465451833   -0.5341573348   -1.2020212894
 H   -2.3966951556    1.0127824345   -1.1806479602
 H   -1.7581933413   -0.3298366503   -2.1401512568
 H   -0.8322495472   -2.4682599883   -0.9005385775