18

 N   -0.0817105801    1.2541179702   -0.4422983098
 C   -0.0174576951    0.0560504540   -0.0815089073
 O    1.0479042862   -0.7036822803    0.3516868503
 C    0.1752771084   -1.8556847472    0.6356905045
 C    0.1264875067   -2.1616863495    2.1388360864
 C   -1.2971344742   -2.0607601060    2.6986514456
 O   -1.9161026387   -0.8489175307    2.3089836019
 C   -2.2493285942   -0.8590453856    0.9352222306
 C   -1.0272986343   -1.0654711784    0.0414177629
 H    0.8294264808    1.7125064396   -0.3907904690
 H    0.5030027470   -2.7114656346    0.0422403137
 H    0.5427279758   -3.1516628561    2.3519293417
 H    0.7578216285   -1.4248072207    2.6433577323
 H   -1.9073291361   -2.9184859988    2.3676735362
 H   -1.2788938133   -2.0681497802    3.7918577466
 H   -2.9884089231   -1.6532327685    0.7375847515
 H   -2.7134210990    0.1051568198    0.7111866188
 H   -1.3360085853   -1.4300764969   -0.9419601169