24

 C    0.1251831994    1.5632360541   -0.0123888041
 C    0.0090505879    0.0479946237   -0.0174643179
 O    0.6661454613   -0.4507414580   -1.1625196231
 C    0.6333974882   -1.8590957645   -1.2588774662
 C    1.3510653394   -2.2680944343   -2.5397916440
 C    1.5406901901   -3.7845090564   -2.7147351905
 C    0.2073192274   -4.5371802023   -2.8413016021
 C    2.4370073575   -4.0713837569   -3.9271696325
 H    1.1758371240    1.8664421032    0.0091225520
 H   -0.3338302094    1.9858419606   -0.9107193523
 H   -0.3761972360    1.9827827089    0.8649882443
 H    0.4595320800   -0.3764730059    0.8966500740
 H   -1.0513781747   -0.2588333013   -0.0212654271
 H    1.1283900020   -2.3140368830   -0.3818103761
 H   -0.4108444436   -2.2130331508   -1.2552869366
 H    0.8025190608   -1.8607991967   -3.3992303900
 H    2.3316542980   -1.7772569180   -2.5377153999
 H    2.0575077510   -4.1627741511   -1.8202627707
 H    0.3767235509   -5.6087741419   -2.9907340718
 H   -0.4187119122   -4.4251146631   -1.9509899911
 H   -0.3668614134   -4.1700744222   -3.7007861154
 H    3.4080920842   -3.5744334621   -3.8320557076
 H    2.6177265670   -5.1453373721   -4.0417112186
 H    1.9698044204   -3.7131113299   -4.8523247725