19

 C    0.4071646553    1.3184222001   -0.2273412637
 C   -0.0395506588   -0.1391316932   -0.0302785527
 C    0.3272066242   -1.0499277964   -1.2603133990
 C    1.5163834125   -1.8816658946   -0.7583888708
 O    2.7409480386   -1.1534794192   -0.8178751306
 C    1.1725141405   -2.0417727447    0.7244537600
 N    0.6391245734   -0.7392229867    1.1445060442
 C   -1.5019337149   -0.1721592421    0.1867225255
 N   -2.6490089574   -0.1949109316    0.3269423914
 H    1.4735157695    1.3269003485   -0.4691568102
 H   -0.1474831739    1.7933759998   -1.0404005216
 H    0.2378620191    1.8975143479    0.6849676597
 H   -0.5079065175   -1.7057320421   -1.5200107940
 H    0.5703005164   -0.4547043248   -2.1445788389
 H    1.6044702561   -2.8423373865   -1.2829031936
 H    2.9467607268   -0.9861167109   -1.7429047993
 H    0.4084114988   -2.8187490795    0.8480687628
 H    2.0413465234   -2.3146058090    1.3266426625
 H    1.4139427279   -0.1374430447    1.3983907882