20

 C    0.0688136819    1.4882694681   -0.0348811773
 C   -0.0233525632    0.0031281680    0.2699729445
 O   -1.2021158010   -0.5058439384   -0.3296126418
 C   -1.3810185772   -1.8818863392   -0.1433226109
 C   -1.9942289862   -2.3351884567    1.2025988061
 O   -3.1864690720   -2.8064582194    0.5463204960
 C   -2.6941690950   -2.4198500214   -0.7627381153
 C   -3.6080412552   -1.4380647206   -1.4672208127
 H    0.9732578987    1.9131929332    0.4104063860
 H    0.1001421623    1.6559933116   -1.1150811192
 H   -0.7989245347    2.0173793923    0.3689006674
 H    0.8573458768   -0.5314740976   -0.1241172607
 H   -0.0424765828   -0.1662585892    1.3588206133
 H   -0.4757010508   -2.4310285488   -0.4387200082
 H   -1.4670757811   -3.1400604393    1.7301367007
 H   -2.2008302015   -1.5147574449    1.9018512660
 H   -2.5383376990   -3.3113117428   -1.3857619973
 H   -3.7205102507   -0.5213570566   -0.8854321314
 H   -3.2054247687   -1.1766074528   -2.4510428270
 H   -4.5928187706   -1.8945413753   -1.6067378481