18

 C    0.3089100519    1.5543808648   -0.3615256384
 O   -0.3241019120    0.2946172654   -0.3936766223
 C    0.4617032947   -0.7038854240   -0.9815595120
 C    1.6534137062   -1.2916815114   -0.1536380242
 C    1.1306344826   -2.6768580151   -0.5400377510
 C    1.8671850211   -3.8129190956   -1.0948396533
 O    1.2992462115   -3.8534823280    0.2238163829
 C   -0.2138327442   -2.0957895009   -0.9812387264
 H    1.2319589322    1.5361737490    0.2371787065
 H    0.5618950491    1.9075846139   -1.3737410185
 H   -0.3914431394    2.2585409006    0.0935972214
 H    0.7873354426   -0.3979078942   -1.9873369248
 H    2.6739514358   -1.0275796780   -0.4389625463
 H    1.5056251113   -1.0996780469    0.9136989015
 H    1.3907555485   -4.4643414418   -1.8269696790
 H    2.9559506263   -3.7892594633   -1.1322735195
 H   -0.9518086224   -2.1491258214   -0.1755670745
 H   -0.6593147058   -2.4538170233   -1.9113205422