19

 C   -0.1656061304    1.5519270224    0.0820680585
 C   -0.0163297670    0.0265001035   -0.0184941672
 N   -1.2658402318   -0.7236265452   -0.0127588477
 C   -2.0631202809   -0.6834633617   -1.2251054758
 C   -1.9388770890   -0.8365436325    1.1936833161
 C   -1.5039452868   -0.6020742060    2.4703879453
 O   -2.4763395409   -0.9072521623    3.3601853472
 N   -3.5920205140   -1.3403237963    2.6811349223
 C   -3.2776086721   -1.2943115384    1.4094821353
 H    0.8188231112    2.0302114113    0.1020505347
 H   -0.7153306578    1.9527714772   -0.7752842110
 H   -0.7018588276    1.8380124300    0.9914050533
 H    0.5172609499   -0.2332311983   -0.9395572845
 H    0.6013909158   -0.3458709891    0.8072509140
 H   -2.7097122244   -1.5645092123   -1.2835563878
 H   -2.6991772538    0.2123195178   -1.3116549727
 H   -1.3935050237   -0.7114247017   -2.0886919129
 H   -0.5821042074   -0.2390807051    2.8915467503
 H   -4.0155599395   -1.5891893733    0.6784626025