20

 C   -0.1758660365    1.6566823163   -0.1252685944
 C   -0.0061343872    0.1400683075    0.0138916069
 C   -1.3707718940   -0.5815207713    0.1323038857
 C   -2.1479353294   -0.1778357856    1.2980577990
 C   -2.7740760980    0.1586880322    2.2676461167
 C    0.7915279140   -0.4507118233   -1.1568041807
 C    2.2609218892   -0.0255686185   -1.1454608312
 N    2.8734097544   -0.0501309268   -2.3653761934
 O    2.8512601403    0.2902456720   -0.1303650134
 H    0.7978863337    2.1522076584   -0.1445450894
 H   -0.7117385746    1.9098433864   -1.0490433059
 H   -0.7480323105    2.0600811245    0.7141250126
 H    0.5666030648   -0.0588104222    0.9252411639
 H   -1.9604500129   -0.3978586803   -0.7772190891
 H   -1.2053360536   -1.6663421650    0.1724125678
 H   -3.3321036178    0.4514416567    3.1220573833
 H    0.7818093818   -1.5482124729   -1.1010513729
 H    0.3266834974   -0.1858286258   -2.1155650346
 H    2.4020103531   -0.3509095830   -3.1997311635
 H    3.8609756058    0.1415147407   -2.4071442372