21

 C    0.0443660987    1.6097585799   -0.1584970183
 C    0.0614790906    0.0892617854   -0.0038925518
 O    0.7944471144   -0.3140503431    1.1514194596
 C   -1.3413418659   -0.5137537633    0.1378059947
 O   -2.0421211911   -0.1611977905   -1.0533598680
 C   -1.3463187882   -2.0534784530    0.3407904039
 C   -2.5383600286   -2.2882825196    1.3006090277
 O   -3.1825035087   -1.0198654412    1.4556414850
 C   -2.1429482172   -0.0515490332    1.3654277490
 H    1.0587478938    1.9878745382   -0.3306162471
 H   -0.5774845353    1.8972855360   -1.0085242616
 H   -0.3458806794    2.0886450523    0.7451037860
 H    0.5071170590   -0.3523114105   -0.9096678362
 H    1.6634705629    0.0954122766    1.1071703245
 H   -2.9670088819   -0.3887992954   -0.9004815435
 H   -1.4776946436   -2.5416272327   -0.6270601275
 H   -0.4059343802   -2.3884058406    0.7798903080
 H   -3.2837399994   -2.9920218583    0.9215560229
 H   -2.1895034300   -2.6504391760    2.2787131834
 H   -1.5133108604   -0.0480969777    2.2669284024
 H   -2.6035782496    0.9291833068    1.2307791570