21

 C    0.0428435552    1.4437062265   -0.1588969686
 C    0.0769858558   -0.0106956225   -0.1134089769
 C    0.1134614768   -1.2132343390   -0.0819275376
 C    0.1336242593   -2.6736742344   -0.0197287842
 C   -1.2659707287   -3.2467599678    0.2510013577
 O    0.6719395412   -3.1571265926   -1.2516749146
 C    1.1806778330   -4.4809140215   -1.2155122713
 C    2.0257597182   -4.6423284922   -2.4711959897
 O    3.0677828532   -3.6904080244   -2.5125965118
 H    0.7470390071    1.8822452430    0.5565332249
 H    0.3109815903    1.8109383613   -1.1555520140
 H   -0.9557589339    1.8269468341    0.0775961268
 H    0.8053450101   -2.9825714332    0.7991564438
 H   -1.2293214834   -4.3365001914    0.3359676785
 H   -1.6635998320   -2.8430851024    1.1860264523
 H   -1.9418693656   -2.9763704120   -0.5640206973
 H    1.8084453165   -4.6214909738   -0.3213380735
 H    0.3739681099   -5.2295700635   -1.1945782532
 H    2.4862532178   -5.6359100649   -2.4811247005
 H    1.3711266764   -4.5645903928   -3.3542427882
 H    2.6476129626   -2.8439129066   -2.3158115227