19

 C   -0.0143490721    1.5473788419    0.1930190656
 C    0.0409537728    0.0298548843    0.0362574121
 O    0.7403065465   -0.5958196073    1.1064778306
 C   -1.3380879245   -0.5809129667   -0.1132331775
 C   -2.2091876018   -1.0240013033    1.0526823001
 C   -1.6893374730   -2.0200982094    0.0269257460
 O   -2.5136257192   -2.3553165317   -1.0627027227
 C   -2.9450503625   -1.1327425442   -1.6277758839
 O   -2.0080376622   -0.1293035909   -1.2714727236
 H    0.9961074397    1.9587565402    0.2679233290
 H   -0.5219159142    2.0023223028   -0.6612427048
 H   -0.5729965436    1.8204822437    1.0972488473
 H    0.6060285301   -0.2188253441   -0.8704099032
 H    0.5014331484   -0.1381825811    1.9194495396
 H   -1.7354597535   -1.0727816125    2.0269875033
 H   -3.2608096241   -0.7606227275    1.0682411721
 H   -0.9959319197   -2.8057253864    0.2946214074
 H   -2.9810659334   -1.2271001374   -2.7181048750
 H   -3.9433904135   -0.8660964102   -1.2441920823