14

 O    0.0044269829   -0.0393155246   -0.0025166324
 C   -0.0002427057    1.1676843289    0.0018615651
 N   -1.0880588251    1.9976167456   -0.0044882967
 C   -0.8370806770    3.4337007588    0.0338729511
 C    0.6834191959    3.5172469548   -0.0466766318
 C    1.4427198950    4.5820442737   -0.7261256640
 O    1.3613897683    4.5274124310    0.6921321571
 C    1.2225792369    2.1085197809    0.0162287860
 O    2.3740578250    1.7769949396    0.0618763211
 H   -2.0201605213    1.6124019019   -0.0038645828
 H   -1.3316301204    3.9452751363   -0.7993023717
 H   -1.1863432829    3.8853563629    0.9699458562
 H    2.4163847555    4.3375819104   -1.1466908631
 H    0.8948318231    5.3945724397   -1.2014197640