22

 C   -0.4086576465    1.5552216728    0.2646180074
 C   -0.1365842824    0.0601091080    0.3571639804
 C    0.1672263343   -0.6900591326   -0.9478058849
 N    1.4416907230   -0.1333792103   -1.4753832744
 C    1.4744799589   -1.1774202944   -0.4280434907
 C    2.1872481144   -2.4778793558   -0.6701471104
 O    1.9291168827   -2.9976632777   -1.9692816249
 C    1.2586948472   -0.4585557013    0.9168543370
 C    2.3165359549    0.5414093247    1.3644324856
 H    0.3448591261    2.0497203615   -0.3527578889
 H   -1.3902626780    1.7404928575   -0.1861762502
 H   -0.4077490901    2.0229261827    1.2550943108
 H   -0.9468505783   -0.4368286260    0.9002381838
 H   -0.5404901710   -1.1606832166   -1.6224353510
 H    1.6283125790   -0.6265479697   -2.3499354339
 H    3.2734164533   -2.3339034872   -0.6220887844
 H    1.9210369516   -3.2025061235    0.1150441378
 H    1.0026735257   -3.2593401538   -1.9954121114
 H    1.0753747488   -1.1924410715    1.7094597272
 H    2.5734186984    1.2233142842    0.5507368321
 H    1.9665127562    1.1341314278    2.2163585427
 H    3.2319534317    0.0266993213    1.6779237203