16

 O   -0.0341674047    0.1998259454    1.4111429769
 C    0.0095129297    1.1416268836    0.6732680601
 N   -0.9961722070    1.8545924460   -0.0090632128
 C   -0.0324458837    2.8230709743   -0.5459370351
 C    0.7588714534    3.4776220052    0.5423682640
 C    1.0999205927    2.0471895561    0.0984085973
 C    2.4330203057    1.6620477354   -0.4275357645
 C    2.6329780142    1.2466493566   -1.8225469384
 O    3.0034496760    2.5584485440   -1.3847500077
 H   -1.8727510884    2.1181180834    0.4283071757
 H   -0.1070314780    3.1773323762   -1.5649686684
 H    1.4926557637    4.2122513397    0.2234034318
 H    0.3061722631    3.6587751640    1.5128149392
 H    3.1378594558    1.2962084211    0.3197226375
 H    3.4625762282    0.5886548775   -2.0747876428
 H    1.7770047791    1.2035688114   -2.4932175828