15

 C   -0.0168677472    1.4733151073    0.0578665081
 C   -0.0005345356   -0.0122834309   -0.0471920039
 C   -0.0465813238   -0.8187825634   -1.1472394679
 N   -0.0025330806   -2.1223821313   -0.6748022317
 N   -0.0084525564   -3.4002802166   -1.1451295848
 C    0.0618025630   -4.0826270602   -0.0004733322
 N    0.1124445482   -3.3643111667    1.1625693443
 C    0.0688349055   -2.1335715062    0.6790305893
 N    0.0711334627   -0.8308870542    1.0870158700
 H    0.8887076905    1.8563587413    0.5430794475
 H   -0.0752828417    1.9161170268   -0.9385136595
 H   -0.8779441279    1.8304420297    0.6351313904
 H   -0.1051348420   -0.5724756756   -2.1922258377
 H    0.0773806333   -5.1626445500   -0.0067385966
 H    0.1162341719   -0.5174048000    2.0399714146