17

 C    0.2489426920    1.1343731364    0.6983024065
 C   -0.0276813478   -0.1016192367   -0.1173142459
 C   -1.4254609709   -0.5425059136   -0.3372448990
 N   -0.6382507483    0.0021684804   -1.4556218912
 N    1.4714485561    1.8066004187    0.2742392730
 C    2.1224801212    1.7729287098   -0.9096136132
 N    3.1704059440    2.5775633870   -0.8821522288
 C    3.1088767912    3.0964308257    0.3734041202
 N    2.1008169155    2.6646102046    1.1146122451
 H   -0.5937928966    1.8340535879    0.6255754446
 H    0.3774986448    0.8854928783    1.7555770766
 H    0.7482781971   -0.8618408398   -0.0596082104
 H   -1.6502747193   -1.6023197177   -0.4053556785
 H   -2.2249428207    0.0638908576    0.0810594113
 H   -0.9220962316    0.9632820713   -1.6353389966
 H    1.8043374498    1.1565376262   -1.7363430865
 H    3.8268830335    3.8069794539    0.7551676626