20

 C   -0.0169915351    1.5739792136   -0.0399645314
 C   -0.0033861726    0.0362329911    0.0144107822
 C    0.6487323322   -0.4960954595   -1.2342687876
 C    1.5061300220   -1.5204149145   -1.2602066836
 C    1.7745853182   -2.2964639510   -0.0398345748
 O    2.5345912143   -3.2423326430   -0.0064026335
 C    0.9494662031   -1.8876380909    1.1738180772
 N    0.6757815352   -0.4551555030    1.2143933203
 C   -0.0060405692   -0.1028671728    2.4514337766
 H    1.0037474336    1.9606118443    0.0286520628
 H   -0.4580624201    1.9112014710   -0.9825862402
 H   -0.6088149652    2.0059327616    0.7692185028
 H   -1.0636600242   -0.3060531816   -0.0055944199
 H    0.3891141373    0.0245279507   -2.1530700264
 H    1.9886684524   -1.8551346630   -2.1728243559
 H    0.0208848182   -2.4992991370    1.1605034558
 H    1.5040950346   -2.1771479852    2.0700271125
 H    0.5682950998   -0.4892326739    3.2983630045
 H   -0.0732546272    0.9807142455    2.5667001299
 H   -1.0286636476   -0.5220978523    2.5166224085