13

 C    0.0016522965    1.6001111486    0.1511116542
 C   -0.0572277276    0.0682725801   -0.0075062411
 C    0.7590859647   -0.6024238558    1.0158860696
 N    1.4129716450   -1.1067272404    1.8231106598
 C   -1.4628029729   -0.4655876177    0.0278743155
 N   -2.5183406091    0.2126499012    0.3693011441
 O   -3.5414189463   -0.6582382675    0.2358759252
 N   -3.0360237783   -1.8828422844   -0.2028761078
 N   -1.7931100425   -1.7621549322   -0.3265802659
 H    1.0382599367    1.9359957145    0.0906078926
 H   -0.5761789057    2.0766380037   -0.6434224349
 H   -0.4126925719    1.9066551245    1.1130424007
 H    0.3635081712   -0.2138725745   -0.9810189521