19

 C   -0.0576051881    1.5443032766    0.0652932077
 C   -0.0302653981    0.0106848991    0.0166572483
 C    0.6828602394   -0.5263949110   -1.1987465718
 C    0.1348768285   -0.3087387316   -2.6433368850
 C    0.8981770208   -1.5779732135   -3.0081155058
 C    0.9334809664   -2.0406372259   -1.6028139543
 N    2.2046567830   -1.6211412219   -2.2556129250
 C    2.2006262936   -0.3697723600   -1.4303085508
 H    0.9556545635    1.9598802210    0.0797111220
 H   -0.5745353432    1.9597302280   -0.8059619877
 H   -0.5752215151    1.8995934904    0.9610979963
 H    0.4585088114   -0.3764245189    0.9206050886
 H   -1.0577269464   -0.3759424495    0.0358863993
 H   -0.9446736537   -0.4782220156   -2.6953810608
 H    0.3877966938    0.6298587020   -3.1492481777
 H    0.8604562414   -2.1583808515   -3.9205073542
 H    0.7760418760   -2.9988016305   -1.1244699098
 H    2.5642977256    0.5312165330   -1.9396252005
 H    2.7951771112   -0.5519737101   -0.5301017288