21

 C   -0.0592571455    1.5278494378   -0.2165780698
 N   -0.1316835887    0.0700186443   -0.2328721487
 C   -0.3325160194   -0.5838508281    1.0571741502
 C   -1.4339630443   -0.5169311086    0.0578534145
 C    1.3671645326    1.9938948024   -0.0480439431
 C    2.6018613981    1.6990203744   -0.9312580056
 N    3.2045914337    2.6070127943    0.1576364331
 C    1.9211946851    3.4373473516   -0.0260904346
 C    2.3526908235    1.7686911003    1.1265228067
 H   -0.4494996710    1.8956510249   -1.1743177417
 H   -0.6893076420    1.9703074240    0.5789639305
 H    0.2185996468   -1.5066939663    1.2133062791
 H   -0.4264588908    0.0459062041    1.9410123820
 H   -2.2608503816    0.1575853574    0.2757943198
 H   -1.7015769977   -1.3897984128   -0.5307229312
 H    3.0045420256    0.6834779050   -0.9277974748
 H    2.6357730713    2.1392196562   -1.9322092092
 H    1.9031816830    4.0116497582   -0.9573281230
 H    1.6843750750    4.0698600510    0.8348306510
 H    2.1496065699    2.2741673577    2.0757574618
 H    2.7426790466    0.7601280120    1.2868416031