19

 C   -0.9177336979    1.7506343960    0.4319306304
 C    0.5687126687    1.5889798038   -0.1695254886
 C   -0.0192680186    0.4601787355   -1.0638705389
 C    0.5759655497   -0.9227524396   -1.3721431931
 C    0.4361248810   -1.5785970934    0.0282745445
 C    1.4956580708   -0.8210219973    0.8734527499
 C    0.8113970075    0.5520619614    0.9643493901
 C   -0.5797145166    0.2398911761    0.3619343492
 O   -0.8724409828   -1.1230896567    0.5435680099
 H   -1.6732519978    2.1357054181   -0.2568986672
 H   -0.9864709038    2.2116745261    1.4200046601
 H    1.2036341484    2.4244622727   -0.4674090461
 H   -0.7386350158    0.8026955237   -1.8099994588
 H    1.6092184679   -0.9527701955   -1.7271248549
 H   -0.0553123290   -1.4170858653   -2.1156545945
 H    0.4549482309   -2.6668285175    0.0698650556
 H    2.4821142173   -0.8562152909    0.4042086575
 H    1.5817197050   -1.2360089227    1.8814538244
 H    0.8099183751    0.9739863256    1.9710730404