20

 C    0.0073305414    1.4824739128    0.0305460113
 C    0.0714424348   -0.0205978711    0.0014376570
 N   -0.7985149784   -0.8342718284    0.8864601974
 C    0.6800833777   -0.9121437997    1.0283787748
 C    1.3652746152   -1.9758203153    0.1472340644
 C    0.3001689556   -2.2533779661   -0.9488071514
 C    0.5114209595   -0.7543826853   -1.2888775868
 C    2.0235575833   -1.0411146903   -0.9357053350
 O    2.9100644268   -0.0183550242   -0.5773532300
 H    0.8902155795    1.9225017475   -0.4461916685
 H   -0.8713644884    1.8485748420   -0.5133422392
 H   -0.0537920842    1.8618849330    1.0569241808
 H   -1.1511630146   -0.2251943427    1.6239040132
 H    1.1399462041   -0.5560163144    1.9446288506
 H    1.9182426551   -2.7744701543    0.6411190200
 H    0.6827623626   -2.9105733162   -1.7316514461
 H   -0.6891582236   -2.5613723162   -0.6239196846
 H    0.2106372905   -0.3218333718   -2.2434974149
 H    2.5219332189   -1.6092718469   -1.7241883197
 H    2.5455007443    0.4373388874    0.1884392569