22

 C   -0.1032933237    1.5431838676   -0.0634881399
 C   -0.0026914676    0.0310702197    0.0111027218
 C   -1.2336205382   -0.6862731290   -0.5127008471
 C    1.3418812835   -0.6193668424   -0.2330789603
 C    0.7418605420   -0.6278708837    1.1576065111
 C    1.3706844865    0.1286913408    2.2854195538
 C    0.7240785420    0.1364059123    3.6503390990
 C    2.0116605486   -0.6190290287    3.4303876166
 H    0.8089009687    2.0388754493    0.2777233783
 H   -0.2846929036    1.8651900499   -1.0958796705
 H   -0.9334398938    1.9157973594    0.5485030208
 H   -1.4193085006   -0.4359614847   -1.5644575158
 H   -1.1236835990   -1.7733508431   -0.4448628719
 H   -2.1280422913   -0.4051200632    0.0564165564
 H    1.3797460399   -1.5494187554   -0.7914648876
 H    2.1949434346    0.0313284312   -0.4022832624
 H    0.3222207970   -1.5815746640    1.4739932355
 H    1.8703605450    1.0489076045    1.9980571223
 H    0.7534772279    1.0501740975    4.2338386572
 H   -0.1855924337   -0.4413808895    3.7787117090
 H    1.9672746871   -1.7032692858    3.4122180228
 H    2.9238356889   -0.2213669827    3.8617070709