23

 C    0.2533882488    1.3094416780    0.3540015938
 C   -0.1848254694   -0.1165849659   -0.0076714601
 C   -1.7004576196   -0.1937676826   -0.2455267437
 C    0.5653093157   -0.6293854584   -1.2248296720
 C    2.0299693421   -1.0478201580   -1.2473146084
 C    2.3535489587   -1.8690973870   -0.0071284925
 O    1.2068602244   -2.7323709127   -0.2250271859
 C    0.9222052979   -2.0664419094   -1.4707144517
 C    0.5069761442   -2.9282088238   -2.6182729852
 H    1.3309250991    1.3588402211    0.5405948885
 H    0.0250359344    2.0097462160   -0.4586950772
 H   -0.2629561797    1.6654029984    1.2518951445
 H    0.0505388725   -0.7786135413    0.8331555250
 H   -1.9988730733    0.4377237489   -1.0914011282
 H   -2.0140015294   -1.2188869594   -0.4657880877
 H   -2.2561002964    0.1477218473    0.6341019758
 H    0.2995134157   -0.1171654974   -2.1505381876
 H    2.7544258601   -0.6333609272   -1.9363514073
 H    3.2842661707   -2.4411677440   -0.0961032167
 H    2.3232014668   -1.3721361405    0.9699069008
 H   -0.4578591491   -3.4055567980   -2.4113596368
 H    0.3982625739   -2.3296757889   -3.5273510718
 H    1.2415262618   -3.7184872054   -2.8031397257