21

 C   -0.2045860139    1.5999351171   -0.1741228843
 C    0.0788053087    0.0984340320    0.0294547527
 C    0.7687820134   -0.5311229204   -1.1455078954
 C    2.0465349037   -0.9575305160   -1.2477362984
 C    2.3387639709   -1.5715650755   -2.6008377163
 C    1.1259506970   -1.1340101047   -3.4548012031
 C    0.0149574582   -0.8056035586   -2.4306321430
 C    3.0679824419   -0.9032282400   -0.2046938518
 O    4.1970986830   -1.3287744700   -0.3445850298
 H    0.7281241905    2.1578733412   -0.2991561100
 H   -0.8232894921    1.7774093551   -1.0587150515
 H   -0.7335287784    2.0092113510    0.6914598037
 H    0.6628461669   -0.0357224974    0.9438744837
 H   -0.8752479034   -0.4216375150    0.1909256938
 H    3.2979403314   -1.2392078199   -3.0071579634
 H    2.4084950799   -2.6637257668   -2.5121332267
 H    1.3799911637   -0.2283630556   -4.0148906640
 H    0.8203093867   -1.8888296632   -4.1830912458
 H   -0.6639075497   -1.6573710840   -2.2715206913
 H   -0.6216224670    0.0311064643   -2.7390912796
 H    2.7605973085   -0.4347413738    0.7549744004