19

 C    0.0687511360    1.5510098881   -0.0209242142
 O    1.3112262645    1.5297590377    0.7053270095
 C    1.4667721668    0.1163878149    0.4679705700
 C    0.0226656515    0.0032838332   -0.0957767455
 C   -0.9810309860   -0.6072170073    0.8833903874
 O   -0.9394231918   -2.0219117602    0.8419138380
 C   -1.3658809660   -2.5367817671   -0.4049439437
 C   -0.7903127162   -1.7964692985   -1.5804594820
 C   -0.1423425276   -0.6421125142   -1.4368994276
 H   -0.7357992120    2.0371865260    0.5456838995
 H    0.1678831757    2.0473887380   -0.9966374917
 H    2.2557663686   -0.0904539588   -0.2671733766
 H    1.6715881536   -0.4468175730    1.3857172166
 H   -0.7519600460   -0.3181104741    1.9134381987
 H   -1.9936807030   -0.2407529147    0.6424110445
 H   -1.0535133801   -3.5875793213   -0.4241079122
 H   -2.4704606209   -2.5335121294   -0.4675203863
 H   -0.9294677838   -2.2493248765   -2.5585816799
 H    0.2922349667   -0.1368911028   -2.2965389645