12

 N   -0.0568871291    1.3377525139    0.0102079379
 C    1.2579762784    1.8212640988    0.0001977502
 C    2.1522150238    0.7732573386   -0.0145403111
 C    1.3569308367   -0.4128178527   -0.0132767617
 C    0.0485722560   -0.0122766189    0.0017262818
 O   -0.7867181757   -1.0707154686    0.0040415157
 C    0.1212876527   -2.1301459086   -0.0101136208
 N    1.3713040215   -1.8089038945   -0.0211550599
 H   -0.8911899662    1.8961636447    0.0212214518
 H    1.4316865527    2.8847830377    0.0044219580
 H    3.2261903583    0.8669316805   -0.0246077597
 H   -0.3259110492   -3.1107880708   -0.0109691022