18

 C    0.0391790685    1.5478322522   -0.0973451920
 C    0.0191792293    0.0316673125   -0.0146469338
 O    0.6621518476   -0.4900903049   -1.1650437753
 C    0.7014591602   -1.8929413064   -1.1948447143
 C    1.4250371341   -2.2900833539   -2.4909097289
 C    1.5364189214   -3.7278395549   -2.6507291927
 C    1.6183544923   -4.9279651182   -2.7644192682
 C    1.7127601463   -6.2833380904   -2.8961210369
 N    1.7917057573   -7.4372238719   -3.0063198704
 H    1.0677774530    1.9168179096   -0.1384808538
 H   -0.4849443900    1.8907247088   -0.9937633390
 H   -0.4508833771    1.9816694722    0.7791264244
 H    0.5361058100   -0.3157204134    0.8951855971
 H   -1.0167797477   -0.3419274611    0.0391801890
 H    1.2409272674   -2.2982246896   -0.3238097776
 H   -0.3126847039   -2.3234998324   -1.1834095368
 H    0.8840735854   -1.8606026096   -3.3425695081
 H    2.4231652240   -1.8360413686   -2.4908943482