23

 C   -0.0442656734    1.5265401327    0.0214832225
 C    0.0155932897    0.0236136825    0.0079135798
 C   -0.0995418265   -0.7938051034   -1.2852438471
 C   -0.6597288158   -1.9898945465   -0.4521171014
 C    0.4688631189   -2.9577150875   -0.0752476070
 C    1.4816494064   -2.0491603007    0.6686154105
 C    0.6563981296   -0.8290849627    1.1082311702
 C    1.0432711734   -0.1630485459    2.4095959963
 C   -0.7998986228   -1.0280124878    0.7576107607
 H    0.8594631642    1.9595153583   -0.4260763586
 H   -0.9005291583    1.8844293284   -0.5625771882
 H   -0.1388658414    1.9374561338    1.0300123538
 H   -0.8630796220   -0.3646652808   -1.9414691182
 H    0.8084422501   -0.9722794626   -1.8752493880
 H   -1.5600073588   -2.4638019637   -0.8441318071
 H    0.0895689477   -3.7377882487    0.5951753317
 H    0.9030927706   -3.4558167316   -0.9487598314
 H    1.9152193290   -2.5533973723    1.5386849707
 H    2.3202432193   -1.7604548156    0.0247586911
 H    2.0211845003    0.3281903427    2.3372111747
 H    0.3170992953    0.5914833988    2.7238688555
 H    1.1089624163   -0.9062775908    3.2127032892
 H   -1.6285048121   -0.9226361666    1.4478103006