16

 N   -0.0886943510    1.2675743868    0.0107364689
 C   -0.0248115262    0.0037879867    0.0035999342
 O    1.1256074268   -0.7162794920   -0.0071148606
 C    0.8739898349   -2.1718212300   -0.0134630233
 C    0.0479436240   -2.4685625568    1.2270198715
 C   -1.0828699768   -1.7689078769    1.2456807828
 C   -1.2675503229   -0.8965619589    0.0060665327
 C   -1.0975859569   -1.7554843773   -1.2449743542
 C    0.0333103583   -2.4552491380   -1.2472096436
 H    0.8522526915    1.6674328049    0.0073158947
 H    1.8600607655   -2.6303313661   -0.0217617967
 H    0.4023759448   -3.1375904799    1.9999278616
 H   -1.8018324524   -1.7435712407    2.0541842156
 H   -2.1669973549   -0.2879960778    0.0146606411
 H   -1.8260485628   -1.7214827948   -2.0446071550
 H    0.3785293380   -3.1158992492   -2.0314119997