22

 C    0.7732608719    1.3479934126    0.3321235166
 C   -0.0728671718    0.1562445957   -0.1359149550
 C    0.6926919959   -0.6352787403   -1.2118049191
 C    0.0265316402   -1.9223038082   -1.7197531026
 C   -0.3307288788   -2.9304664977   -0.6097361678
 O    0.5595759257   -2.8847677841    0.5097367837
 C    0.5025298491   -1.8278918703    1.3782577324
 N    1.2729441058   -1.7756855645    2.3845715251
 C   -0.4828379694   -0.7236472735    1.0844599353
 H    1.6607573242    0.9981509188    0.8704738669
 H    1.1055703631    1.9568241735   -0.5153329086
 H    0.2061607101    1.9936099798    1.0100823907
 H   -0.9977281563    0.5422053925   -0.5840402723
 H    0.8758418284    0.0228106928   -2.0687631152
 H    1.6821704749   -0.8910993359   -0.8133541089
 H   -0.8902916031   -1.6880563627   -2.2751049376
 H    0.7081644432   -2.3957997996   -2.4347025069
 H   -1.3622552062   -2.7937926707   -0.2693928086
 H   -0.2513508818   -3.9549506408   -0.9811032642
 H    1.8727434857   -2.6042968989    2.4037161044
 H   -0.5425249105   -0.1092762212    1.9837068497
 H   -1.4772218102   -1.1505908273    0.9226816520