15

 C    0.1150584744    1.6928369005    0.2184301796
 C   -0.0304652562    0.1819057953    0.0500474475
 C    0.5755662509   -0.4843794686   -1.2162545616
 N    1.4967632674   -1.2030490345   -0.3258996509
 C    1.0559252000   -0.6495851859    0.8407063965
 O    1.3812892242   -0.7453352213    1.9913267610
 C   -1.4232812185   -0.2931823460    0.3991084207
 O   -2.0689502451   -1.0780983465   -0.2477240948
 H    1.1449539754    2.0071568889    0.0276634248
 H   -0.5428811550    2.2358592546   -0.4677932534
 H   -0.1381597469    1.9863145880    1.2418707147
 H   -0.1214216234   -1.1280718801   -1.7560552338
 H    1.0717670618    0.2115767652   -1.8992103813
 H    2.2424861668   -1.8583802129   -0.5068004106
 H   -1.8196497260    0.1392373033    1.3440343515