19

 C   -0.7170778458    1.2180201219   -0.0361210413
 C    0.0637110525   -0.0952802392   -0.0651347060
 C    1.1494459703   -0.1574320217   -1.1240065689
 O    2.3294688275    0.5845266567   -0.7781348458
 C    2.3353880251   -0.8399136539   -0.5923594638
 C    2.0752559334   -1.2607564009    0.8372031708
 C    0.8300594458   -0.4541799320    1.2228617039
 C    0.7764677825    0.3382922220    2.4562998843
 O    0.0705585404   -0.9044381957    2.3417489567
 H   -0.0418734223    2.0679011568    0.0994481116
 H   -1.2622705277    1.3637275582   -0.9741890580
 H   -1.4512729826    1.2197427242    0.7752437607
 H   -0.6351592896   -0.9218211802   -0.2616376971
 H    0.8905412556   -0.1563275862   -2.1802226997
 H    3.0311719398   -1.3895373504   -1.2205698144
 H    1.8508036003   -2.3340860200    0.8741965301
 H    2.9219153078   -1.0730561323    1.5035249956
 H    1.6320055692    0.3282992217    3.1309760922
 H    0.1507364876    1.2254597708    2.5195473890