23

 C   -0.1340181756    1.5569847257    0.1013863630
 C    0.0434936532    0.0366733106    0.0195020338
 C    0.7522483619   -0.4649773190   -1.2479584072
 C    2.2310605924   -0.0693404636   -1.2887684566
 O    2.8439625874   -0.3916334688   -2.5286828252
 C    2.6620717858   -1.7012277134   -2.9821678030
 C    2.9819390189   -2.9088642792   -2.1447873057
 C    1.5347007690   -2.5634406015   -2.4754260794
 C    0.6282215908   -1.9952566201   -1.3853022699
 H    0.8246343570    2.0840054618    0.1345641141
 H   -0.6897416706    1.9359564545   -0.7634040677
 H   -0.6902372566    1.8367232091    1.0015193266
 H    0.5923054830   -0.3197002471    0.9025628209
 H   -0.9437953189   -0.4403743306    0.0713691400
 H    0.2785362376   -0.0012948222   -2.1248853215
 H    2.3601043712    1.0109630610   -1.1860770150
 H    2.7677880148   -0.5445652170   -0.4493173731
 H    2.9099655321   -1.7412891522   -4.0376933371
 H    3.4435741804   -3.7614550166   -2.6310966212
 H    3.3001001374   -2.7571828346   -1.1183149870
 H    1.0445279146   -3.1969602585   -3.2078225649
 H    0.8587280116   -2.4612668272   -0.4177799425
 H   -0.4141643775   -2.2513470211   -1.6028232413