21

 C   -0.0346405378    1.4984810971    0.0903802165
 C   -0.0177138129   -0.0168291246    0.0153456563
 C   -1.2583668163   -0.6088500547   -0.6293782382
 C    1.3168665741   -0.6995653351   -0.2383593679
 C    0.7099528080   -0.7639416041    1.1339914190
 O    1.3726670075   -0.0055052811    2.1091505191
 C    0.1850047453   -2.0532905348    1.6901818476
 C    0.8566273556   -2.7292453797    2.8059984386
 O   -0.3285783217   -1.9477931927    3.0297141083
 H    0.8313739795    1.8801030038    0.6329748306
 H   -0.0372681510    1.9332105310   -0.9158710191
 H   -0.9364193389    1.8526900937    0.6042509696
 H   -1.4106636358   -0.1694180211   -1.6223474115
 H   -1.1905893075   -1.6913447415   -0.7669147823
 H   -2.1561189183   -0.4005036804   -0.0357143760
 H    1.3315226609   -1.6017431112   -0.8425141777
 H    2.2014271317   -0.0784963019   -0.3342072672
 H    0.7790167508    0.0109345176    2.8726371006
 H   -0.4306603354   -2.6550719581    1.0257054710
 H    0.7311982999   -3.8022942040    2.9388792063
 H    1.7715483220   -2.3012772384    3.2070600064