18

 C   -1.1070271578    0.7910512636   -0.8913971357
 C   -0.1761277123   -0.0556408490   -0.0106389936
 O   -0.8754066664   -1.0562365229    0.7384559415
 C   -1.6706287941   -0.5668318894    1.8058070017
 C   -3.1816820326   -0.6440111821    1.5498397878
 N   -3.5215175485   -1.3673153080    0.4533772455
 O   -3.9713419687   -0.1128079656    2.3053656943
 C    0.8359620912   -0.7408685710   -0.8124856895
 C    1.6654093751   -1.2748894437   -1.4972854319
 H   -0.5224860185    1.5394559097   -1.4333377604
 H   -1.6241623608    0.1596746218   -1.6176615302
 H   -1.8508827202    1.3105654036   -0.2814017277
 H    0.3375656566    0.6113172250    0.7002064502
 H   -1.4631401108   -1.1820379718    2.6898843462
 H   -1.4274086633    0.4693008209    2.0669492962
 H   -2.8027419690   -1.8244760525   -0.0817107318
 H   -4.4940474915   -1.5349200062    0.2581188229
 H    2.4045189216   -1.7527543725   -2.0918684256