19

 N    0.0050497051   -1.1726141516   -0.0015455349
 C    0.0073900921   -0.0173543797   -0.0036273912
 C   -0.0172374079    1.4518213249    0.0248911993
 C   -0.9266975279    1.9653079534    1.1670366549
 C   -0.7999475048    3.4873621599    1.2582679687
 C    0.6357186039    3.8826010743    1.6343387658
 C    1.6880375762    3.1596789150    0.7911011892
 C    2.1848851746    1.8145372346    1.2016141852
 N    1.3629166567    1.9550589155    0.0035169507
 H   -0.4692296228    1.7838702760   -0.9199160421
 H   -1.9551039552    1.6586412527    0.9537231776
 H   -0.6475747311    1.4984425247    2.1186712333
 H   -1.0705511402    3.9300598132    0.2905723210
 H   -1.5028087390    3.8861119434    1.9959023188
 H    0.7671626690    4.9623113426    1.5192348786
 H    0.7992775585    3.6635073397    2.6961647355
 H    2.3807822338    3.8109831309    0.2634424805
 H    3.2122988927    1.5121350553    1.0194954306
 H    1.7406738164    1.3804674952    2.0954844385