17

 C   -0.0276265238    1.5187833797   -0.0066248757
 O    1.1609683827    0.7121666273    0.0301938264
 C   -0.0979201691    0.0611992522    0.0052555317
 C   -0.5469558084   -0.9130018109    1.1091927318
 C   -0.9967881761   -1.9131982983    0.0009524896
 C   -2.4297528542   -1.7455575753   -0.5672549489
 O   -2.7666083253   -0.3546655407   -0.5232906854
 C   -1.9593616936   -0.8205125729   -1.6135252790
 C   -0.4966932044   -0.9217058140   -1.1082277306
 H   -0.2425972571    2.0752599353    0.9046238864
 H   -0.1936311191    2.0648356268   -0.9345207266
 H    0.2992865058   -1.2798128471    1.6957621605
 H   -1.3299790889   -0.5504070746    1.7776379942
 H   -0.6288984288   -2.9370824250    0.0436208752
 H   -3.2545323560   -2.4492826321   -0.5504935367
 H   -2.3257371428   -0.6187324593   -2.6137534073
 H    0.2616447992   -1.2029724512   -1.8378923155