20

 C   -0.0703567791    1.5433073710   -0.2970065796
 C    0.0225890946    0.0423500620   -0.1288824312
 C    1.3598806279   -0.6516066067   -0.0838565015
 O    2.4948866694    0.1579172941   -0.2053331390
 C    0.5134506104   -0.5661572520    1.1613946543
 C    0.9482574660    0.1411865212    2.4513552698
 C    0.6644568552   -1.1853691066    3.2190420371
 C   -0.0466579402   -1.7539965587    1.9542820564
 H    0.7952020762    2.0422594625    0.1433226922
 H   -0.1038461437    1.8166816376   -1.3570281873
 H   -0.9755181534    1.9367546287    0.1786722414
 H   -0.7618256639   -0.5198495129   -0.6325663859
 H    1.4416227886   -1.6247554953   -0.5720657909
 H    3.1781070119   -0.1960924859    0.3737399370
 H    1.9749638840    0.5183807290    2.4774138503
 H    0.2811824445    0.9580242706    2.7443858040
 H    1.5792303324   -1.7300914665    3.4663324888
 H    0.0584581079   -1.1042680126    4.1239029700
 H   -1.1385384111   -1.7361678858    2.0368444460
 H    0.2558143023   -2.7529821437    1.6248400182