21

 C    0.2450676287    1.2850712544   -0.9381482364
 C   -0.0089662554    0.0263158413   -0.1333794126
 C    1.1214517983   -0.9703188723    0.0185097092
 C    0.6932785771   -0.1315339181    1.1971680241
 C   -1.3801425460   -0.5428627103   -0.2471872435
 C   -2.3344559329   -0.4464271296   -1.3987882600
 C   -2.7882248271   -0.0163878356   -0.0140980514
 C   -2.9729574503   -1.2565023305    0.8440234291
 O   -1.6508872128   -1.7489383069    0.4912832396
 H    1.2589453806    1.6539789046   -0.7584338820
 H    0.1432663058    1.1044476951   -2.0136374397
 H   -0.4510989374    2.0860091427   -0.6617204012
 H    0.8652133442   -2.0229367407    0.0401225757
 H    2.0615690441   -0.7396804221   -0.4715181401
 H    1.3412810464    0.6753916462    1.5226373227
 H    0.1548361315   -0.6371638189    1.9896473624
 H   -2.1698423053    0.3739174558   -2.0893108309
 H   -2.7239603579   -1.3560212808   -1.8498027634
 H   -3.1471146879    0.9789601182    0.2101809927
 H   -3.0310010686   -1.0489345928    1.9185181045
 H   -3.7634694351   -1.9622068797    0.5604761110