22

 O    0.0724072183    1.3674092778    0.0035339055
 C    0.0849801387   -0.0511084249    0.0839381865
 C   -1.3488731538   -0.5371582578   -0.0860432790
 C   -1.4812126424   -2.0594929982    0.0209885478
 O   -0.9739404136   -2.5448604562    1.2649096825
 C   -2.9221297700   -2.5228197896   -0.2179605183
 N   -2.9982741207   -3.9668520007   -0.3714223461
 C   -3.1796220234   -4.7535438297    0.8405339295
 C   -4.2977027194   -4.5850693388   -0.1273901278
 H    0.9699144678    1.6820413359    0.1447800637
 H    0.7179413560   -0.4906258057   -0.7044611433
 H    0.4790409779   -0.3996267286    1.0486524760
 H   -1.9764422252   -0.0536704824    0.6762783958
 H   -1.7251891568   -0.1989175375   -1.0584767860
 H   -0.8485831622   -2.5399815607   -0.7347526128
 H   -1.4674150323   -2.1071140486    1.9683099716
 H   -3.5605694661   -2.1506528011    0.6093213179
 H   -3.2980489582   -2.0655708310   -1.1412790409
 H   -2.6194751787   -5.6825106305    0.8895163916
 H   -3.2555495980   -4.2226141099    1.7871004090
 H   -5.1218318330   -3.9391369460    0.1734302216
 H   -4.5742476149   -5.3870429159   -0.8059001448