20

 C   -0.1938163740    1.5601855356    0.2201779648
 N   -0.0271802902    0.1197037775    0.1206707213
 C    1.2817806823   -0.3974080288   -0.2549821605
 C    0.7476437268   -0.6119138742    1.1211646610
 C    1.4109895975    0.0504357193    2.3122018073
 C    0.5005921719    0.1833063665    3.5211478879
 O   -0.4787624044   -0.5106247057    3.6937498308
 C    0.8619204427    1.2271388900    4.5699841259
 O    0.0083812599    1.1622322289    5.6707099081
 H    0.7117951476    2.1136809202    0.5181040420
 H   -0.5039169468    1.9424440268   -0.7574084812
 H   -0.9900807206    1.7846797534    0.9374278297
 H    1.2932328066   -1.2035586957   -0.9841875713
 H    2.0998339242    0.3168391390   -0.3585901310
 H    0.3106618930   -1.5767799641    1.3659497062
 H    2.2610397391   -0.5691428834    2.6356174438
 H    1.8423500237    1.0261714506    2.0678919224
 H    1.9128545787    1.0786794685    4.8686931173
 H    0.8214155630    2.2165016828    4.0803905556
 H   -0.6500500510    0.4879365830    5.4362392999