19

 C   -0.0280615263    1.4784671944    0.0991001643
 C    1.3091858968    0.7637789771   -0.0665645132
 C    2.0463423051    0.3775659303    1.1706110744
 C    1.3711554184   -0.5187776022    1.8973021539
 C    0.0425646827   -0.8648328109    1.2564664717
 O   -0.0921733721   -2.2247531407    0.8177301189
 C   -0.0013876465   -2.2709548116   -0.6054850479
 C   -0.5170553797   -0.9128639410   -1.1117728934
 C    0.0055546003   -0.0106634014   -0.0173618571
 H   -0.2557054323    1.9223467122    1.0640023724
 H   -0.3916306825    2.0432220842   -0.7545055588
 H    1.8499761477    0.9155221389   -0.9954367154
 H    3.0097986086    0.8007250475    1.4349643786
 H    1.6771533533   -0.9227908772    2.8552039393
 H   -0.7925069228   -0.6708784800    1.9433341808
 H    1.0413652940   -2.4246073601   -0.9237077761
 H   -0.5948773616   -3.1233785309   -0.9483254348
 H   -0.1391344280   -0.6615596560   -2.1063589999
 H   -1.6128703753   -0.9037620025   -1.1478100977