25

 C   -0.0203362574    1.5715311490    0.0534506782
 C    0.0511649714    0.0376667915    0.0912764088
 C    0.7335450736   -0.4359189970    1.3832798835
 C   -1.3380347466   -0.5993631916   -0.0831879556
 C   -2.0801981775   -0.2633731947   -1.3927201092
 C   -3.2571119183   -1.2591976920   -1.4234205138
 C   -2.7526434172   -2.5165530548   -0.6600385687
 C   -1.3683153849   -2.1489209132   -0.0698283276
 O   -0.2919386672   -2.7278256846   -0.8083729033
 H    0.9754812199    2.0088627172    0.1814423049
 H   -0.4250297071    1.9425667464   -0.8928059035
 H   -0.6549825932    1.9560871362    0.8614692267
 H    0.6732495154   -0.2949817332   -0.7500109852
 H    0.1249228475   -0.1936918598    2.2634536823
 H    0.9049986200   -1.5150028453    1.3706979902
 H    1.7043309604    0.0545619145    1.5110770407
 H   -1.9752442362   -0.2674068034    0.7523306575
 H   -2.4103418482    0.7764497621   -1.4497510031
 H   -1.4097749365   -0.4242334237   -2.2500777455
 H   -4.1187788497   -0.8246978092   -0.9062923449
 H   -3.5869352292   -1.4869381777   -2.4407757542
 H   -3.4507961685   -2.8014669662    0.1325260426
 H   -2.6409127170   -3.3910651013   -1.3074897923
 H   -1.2412840862   -2.5483401391    0.9389495965
 H   -0.3727387873   -2.4496339499   -1.7267566152