18

 C    0.0662982933   -1.2230724330    0.1689470399
 C    0.0292587795   -0.0234646937    0.0780950003
 C    0.0043369589    1.4225560745   -0.0028599660
 C   -0.3623714970    2.2458220618    1.2838701624
 C    0.8781794490    3.1567042335    1.0640183244
 C    2.1206836499    2.7673008910    1.8993588346
 C    2.4950294454    1.6930051443    0.8316372744
 C    1.3538322182    2.2045350885   -0.0908123711
 H    0.0899526478   -2.2821647304    0.2392275692
 H   -0.6440847309    1.7286544874   -0.8305998590
 H   -1.3326894975    2.7432869723    1.2287403182
 H   -0.3255551902    1.6607220918    2.2060820655
 H    0.6717807663    4.2175122646    0.9163331957
 H    2.8579957534    3.5726652019    1.9565518401
 H    1.9255433053    2.4106641563    2.9154219937
 H    3.4964128883    1.8043479652    0.4102717806
 H    2.3744775729    0.6538513657    1.1479626006
 H    1.6461807274    2.5487507383   -1.0834793436