25

 C    0.1251196751    1.5885677703    0.0944706008
 C    0.2608708597    0.0683197478   -0.0266159515
 C    0.6190583373   -0.6058578998    1.3014607116
 C    0.7598391075   -2.1173104091    1.1796787735
 O    1.0676849270   -2.6388565098    2.4631825474
 C    1.4097013189   -3.9987328907    2.4910001894
 C    0.2673949154   -4.9578590912    2.2315431442
 C    2.8122520878   -4.3544704539    2.0557833919
 C    2.4396538461   -4.3310370416    3.5268635788
 H    1.0600418244    2.0425161988    0.4411052791
 H   -0.1306288504    2.0447507093   -0.8669489593
 H   -0.6579180212    1.8595484543    0.8112525377
 H   -0.6785855382   -0.3529692820   -0.4084385853
 H    1.0265792213   -0.1714274928   -0.7764573106
 H    1.5598200936   -0.1965930811    1.6901680719
 H   -0.1485513077   -0.3855775255    2.0537385764
 H   -0.1756922406   -2.5526247345    0.7942384109
 H    1.5566869805   -2.3747058348    0.4637847538
 H   -0.1209713261   -4.8641935994    1.2118049343
 H    0.5953410194   -5.9926687935    2.3647257935
 H   -0.5555221166   -4.7662725607    2.9283850209
 H    2.9849178763   -5.3123372260    1.5764855815
 H    3.4391682627   -3.5470458737    1.6946771198
 H    2.8132265716   -3.5032895559    4.1181971792
 H    2.3541030863   -5.2725550844    4.0584306202