15

 O   -0.0911686793   -0.0734114137    0.0060233459
 C   -0.0501578470    1.1391280373    0.0594860868
 C   -1.3194010432    1.9871757525    0.0014854361
 O   -1.1620704598    3.2450665781    0.6305531759
 C   -0.1064109342    4.0049738171    0.0987948443
 C    1.2085551691    3.2447351397    0.0673116644
 C    1.2102622907    1.8953977106    0.1065086394
 C    2.3906262489    4.0189026030   -0.0269051036
 C    3.3628815159    4.7264280672   -0.1090041990
 H   -1.6096890379    2.1021868637   -1.0585691938
 H   -2.1260046377    1.4628360659    0.5172678533
 H   -0.3369202528    4.3579524582   -0.9235644030
 H   -0.0049780187    4.8905664645    0.7323306723
 H    2.1310166680    1.3225324413    0.1074419768
 H    4.2324974179    5.3324103447   -0.1829858756