20

 C    0.0218062918    1.5918085606    0.0918917894
 C   -0.0061587818    0.0534939658    0.0291298140
 C   -1.4066473758   -0.5139853339   -0.0167707486
 C   -2.0456148284   -0.8700029484    1.1737641375
 N   -3.2855226694   -1.3528686787    1.2712410638
 C   -3.9541003931   -1.5077034563    0.1268934460
 C   -3.4184027945   -1.1983691858   -1.1180162273
 C   -2.1224930800   -0.6904059553   -1.2137519814
 C   -1.5279863337   -0.3656535082   -2.5614466594
 H    1.0515598831    1.9612939922    0.1244629922
 H   -0.4692205579    2.0388882142   -0.7780074686
 H   -0.4980859035    1.9531410185    0.9845244891
 H    0.5681233519   -0.2844119574   -0.8404113773
 H    0.5087927018   -0.3449738640    0.9105059445
 H   -1.5063920667   -0.7568771124    2.1138583487
 H   -4.9649420805   -1.9011930124    0.2069010432
 H   -4.0095717455   -1.3553916050   -2.0150191502
 H   -1.2251450260    0.6842723032   -2.6315065562
 H   -0.6336954560   -0.9675756749   -2.7597773981
 H   -2.2458360659   -0.5614347817   -3.3616377313