17

 N   -0.0489771425    1.2101241427   -0.0709717646
 C   -0.0353756755   -0.0509747277   -0.0950773471
 O   -1.1559950222   -0.7429613369    0.1955522158
 C   -1.0951379269   -2.1528208323    0.0199876727
 C   -2.3906346256   -2.7546043943    0.5486261952
 C   -3.0323088245   -2.6632639066   -0.7847073608
 C   -1.5709041481   -2.6182788771   -1.3832633332
 C   -1.5892417959   -4.1426220525   -1.2120558258
 N   -2.7124678688   -4.0027333029   -0.2202379811
 H    0.8777595813    1.5712039455   -0.2875409245
 H    0.8287551770   -0.6910054258   -0.3228772191
 H   -0.1331986469   -2.5371389364    0.3844616985
 H   -2.8164925178   -2.6566986571    1.5376316418
 H   -4.0112186557   -2.3488331262   -1.1174577073
 H   -1.2189583546   -2.1093236937   -2.2784058775
 H   -1.9660633589   -4.6814650530   -2.0844229186
 H   -0.6862934344   -4.6366033558   -0.8324385244