14

 N   -0.0982325166   -1.1572489861   -0.1172399128
 C   -0.0348319769   -0.0057300682   -0.0348738988
 C   -0.0054831088    1.4472881243    0.0200835609
 C    0.0416278819    2.0876326629    1.4650826663
 N    1.4821295804    1.6678879437    1.4715617010
 C    1.4284060289    2.1134995733    0.0398385185
 C    1.0242481053    3.5994304699    0.1290117426
 C    0.0927262135    3.5820647804    1.0864690593
 H   -0.7280596721    1.8734893221   -0.6752554605
 H   -0.6031422839    1.7452426805    2.2724147139
 H    2.0568648200    2.2893500317    2.0420674992
 H    2.2237679331    1.7979713131   -0.6329065079
 H    1.3952661230    4.4091184209   -0.4820737522
 H   -0.5224674680    4.3733658516    1.4890281204