19

 C   -0.0796811665    1.6850642638    0.5192822258
 C   -0.1138960135    0.1790678116    0.3428901336
 C    1.0700832815   -0.5216217199   -0.3868352691
 O    1.9417615991   -0.2118991196    0.7804040615
 C    0.6732016502   -0.7083497135    1.3463197267
 C    0.7272746055   -1.8702654644    0.2921079349
 C   -0.4886649173   -2.6951628995   -0.0748795290
 C   -0.6496187090   -3.9918646782    0.6985047101
 O   -1.2758618829   -2.3595329233   -0.9328909508
 H    0.9236724578    2.0221393201    0.7864163241
 H   -0.3843475632    2.1874789308   -0.4048825418
 H   -0.7753809345    1.9986362549    1.3051821228
 H   -1.0996722880   -0.1911883917    0.0594296843
 H    1.4798216012   -0.3465686391   -1.3815615412
 H    0.6014235879   -0.7830254617    2.4328154684
 H    1.6055556849   -2.4985949478    0.4622176865
 H   -0.5884000195   -3.8114713089    1.7775997980
 H   -1.6036057779   -4.4577307796    0.4491889329
 H    0.1673906341   -4.6784245040    0.4471122623