19

 C   -0.6322752834    1.3032033041   -0.1757268220
 C   -0.3787632292   -0.1643245423   -0.4427079981
 C    0.4266539983   -0.7788055410   -1.5659748794
 C    1.7395178438   -0.0467279532   -1.8901309172
 C    1.7505393196    1.2387513647   -2.7003056174
 N    2.0465707999    0.0795067147   -0.4200338499
 C    0.9284306484   -0.8444376518   -0.1122687403
 C    1.0742494659   -1.9562276854    0.7654858067
 N    1.2111196396   -2.8558768723    1.4822998741
 H   -1.2798877871    1.7367577327   -0.9446121711
 H   -1.1323364178    1.4239519877    0.7904522925
 H    0.3038287476    1.8620015956   -0.1425906307
 H   -1.2241169976   -0.8095371977   -0.2108681717
 H    0.0174265162   -1.5800443922   -2.1678969837
 H    2.4179147831   -0.7736019442   -2.3544289608
 H    1.0716043137    1.9876030813   -2.2893034390
 H    2.7583115148    1.6667367725   -2.7210946154
 H    1.4531445603    1.0334126655   -3.7344198344
 H    2.9450705040   -0.3286978989   -0.1854398123