16

 O   -0.0664954786    1.3390214311    0.0085068270
 N    0.0448588012   -0.0616472992    0.0042338348
 C   -1.1057420598   -0.6243474806    0.0113207795
 C   -1.2504466258   -2.1386235342    0.0086179620
 C   -2.7811305931   -2.3821304025    0.0189372967
 C   -3.3843279157   -0.9855294822    0.0269711148
 C   -2.4315740498   -0.0275416755    0.0224862959
 C   -4.7809221358   -0.7822753944    0.0375731584
 C   -5.9802086364   -0.6576348373    0.0467260887
 H    0.8558585956    1.6149076610    0.0024086748
 H   -0.7732277324   -2.5722531467   -0.8741568747
 H   -0.7607684488   -2.5765042404    0.8824300168
 H   -3.1239212431   -2.9438437582   -0.8567005007
 H   -3.1113751082   -2.9485664347    0.8963443708
 H   -2.6066184473    1.0379057051    0.0264514610
 H   -7.0344077619   -0.5304540913    0.0541738143