16

 O    0.0069583169    0.0372812632   -0.0587993610
 C   -0.0789765299    1.2248841071    0.0560469856
 C   -1.1702152667    2.2372500696   -0.1329426234
 C   -1.1326554582    3.1885904500    1.0178880848
 N   -0.1564426029    3.3807157458   -0.0457536160
 C    0.9491304171    2.3757096870    0.1928270293
 C    1.8477985632    2.5252025818    1.4223625507
 C    2.6985590694    3.7074602052    1.3609291292
 C    3.3914442757    4.6863169376    1.2910375204
 H   -1.9822126411    2.2103983646   -0.8498772056
 H   -1.9078874596    3.9482564714    1.0378248594
 H   -0.8224222567    2.8396318959    1.9990755021
 H    1.5736144444    2.3643447615   -0.7073822638
 H    1.2533776603    2.5425433537    2.3428134576
 H    2.4650843280    1.6196182564    1.4824143007
 H    4.0056403802    5.5506854492    1.2349844001