16

 O   -0.1294869321    1.3345989633   -0.1568734177
 N    0.0534908897   -0.0521444917   -0.0667947572
 C   -1.0547782249   -0.6538991329    0.0862383060
 C   -2.4581284303   -0.1113336713    0.1809035733
 C   -3.3011474265   -1.3970962344    0.1116078001
 O   -2.4535191641   -2.4391572590    0.6080160214
 C   -1.1389314251   -2.1704381758    0.1885459740
 C   -0.8061064320   -2.7766441674   -1.1814826593
 O   -1.6141999828   -3.2970989463   -1.9006092183
 H    0.7731508954    1.6565571651   -0.2575308479
 H   -2.5828114398    0.4106477646    1.1362469166
 H   -2.6712763629    0.6066326743   -0.6146363370
 H   -4.1914356139   -1.3730471200    0.7428252628
 H   -3.6011175464   -1.6171247580   -0.9199472894
 H   -0.4329003554   -2.5746487568    0.9238440191
 H    0.2638622209   -2.6623822037   -1.4655166665