20

 C    0.0380859207    1.5358116458   -0.0269517735
 C    1.3082487511    0.7244196607   -0.0460017945
 C   -0.0229873238    0.0302879782    0.1028112768
 C   -0.4366473468   -0.5939407438    1.3833860930
 C    0.0265365145   -0.2531224866    2.7932887356
 C   -0.4766917396   -1.6671452488    3.1348789094
 C   -2.0073800391   -1.6331504733    2.9686890558
 C   -1.6774827761   -1.4275251043    1.5027302463
 N   -0.3237558528   -2.0820431354    1.6342647141
 H   -0.1684974488    2.1268165234    0.8590473836
 H   -0.3091424536    1.9851723582   -0.9505092711
 H    1.8354803392    0.6095185993   -0.9863260172
 H    1.9566847035    0.7794005147    0.8213659439
 H   -0.3742649702   -0.5097070441   -0.7721068859
 H    1.1173571655   -0.1995563931    2.8425373161
 H   -0.4125752444    0.6008548189    3.3210078477
 H    0.0019778941   -2.2675914112    3.9057881980
 H   -2.4493116939   -2.6193990672    3.1334589695
 H   -2.5783059913   -0.8724525851    3.5122806612
 H   -2.3094793482   -1.6235679162    0.6429250412