21

 C   -0.5631384812    1.1185460442    0.0483223825
 C   -0.0512635548    1.3729032582    1.4737218918
 C    0.7506313517    0.2271657215    2.0069760006
 O    0.0486912623   -0.9839505466    2.3512032639
 C    0.9074385539   -0.3717901491    3.3289464977
 C    2.3856657079   -0.7598976929    3.0329815929
 C    2.4883722735   -1.6142049510    1.7926779536
 C    2.2505005687   -0.1345681150    1.6486715139
 C    3.1749780963    0.8127187472    0.9401635470
 H   -1.1880609967    0.2213736743    0.0207237709
 H   -1.1595137960    1.9632041519   -0.3087872536
 H    0.2650889579    0.9720419380   -0.6524308406
 H    0.5614672237    2.2823319761    1.4965548933
 H   -0.8972800148    1.5419818764    2.1492728952
 H    0.4710557090   -0.1260007376    4.2905134798
 H    3.1928583987   -0.6435206440    3.7446537817
 H    3.4975889829   -1.9327680316    1.5485578599
 H    1.7093726514   -2.3289008465    1.5599821465
 H    2.9541018939    0.8707447994   -0.1328456722
 H    3.1070519683    1.8285486113    1.3473329372
 H    4.2153816934    0.4872753357    1.0432536181