20

 C    0.0247170780    1.5411110030    0.2952841925
 C   -0.0221897303    0.0806917024   -0.0996886750
 C    0.6633542646   -0.2867101123   -1.4291182673
 C   -0.2540307338   -1.3755263131   -2.0675888118
 N   -1.2356685480   -1.7965051228   -1.0578111566
 C   -0.7149474320   -2.6984734893    0.0249054030
 C   -0.7502149334   -1.5345027501    1.0318570903
 O    0.4661906431   -0.7660812719    0.9987394871
 C   -1.3755018420   -0.6789796664   -0.0858753367
 H    1.0604399628    1.8612170393    0.4499427387
 H   -0.4143930539    2.1683815397   -0.4878389437
 H   -0.5230816825    1.7090628174    1.2270319691
 H    0.7634053150    0.5840978242   -2.0841279827
 H    1.6689802935   -0.6577430814   -1.2150267938
 H   -0.7921929907   -0.9539945228   -2.9247477023
 H    0.2976993739   -2.2461562071   -2.4329710292
 H   -1.4206724914   -3.5105654753    0.2322311684
 H    0.2831176582   -3.1171887852   -0.1445766158
 H   -1.1261487741   -1.6869017841    2.0449478359
 H   -2.3213119469   -0.1357239540   -0.0740125900