20

 C   -0.1318738909    1.5651732344    0.0671480530
 C    0.0240590653    0.0443544907    0.0151417748
 C    0.7126536229   -0.4685540272   -1.2697536149
 C    0.9353165144   -2.0063804839   -1.2232862327
 C    1.6938695695   -2.5192965442   -2.3557489680
 C    2.3240945314   -2.9136536043   -3.3023054100
 C    3.0749761991   -3.3989473032   -4.4509231385
 C   -0.0593828850   -0.0929045071   -2.4589225808
 N   -0.6926480085    0.2131055929   -3.3761943630
 H    0.8412002815    2.0654223371    0.0142662534
 H   -0.7424286129    1.9295110648   -0.7641726737
 H   -0.6141532139    1.8712641479    0.9998035266
 H    0.6238357729   -0.2998793738    0.8657359129
 H   -0.9563302375   -0.4378509034    0.1054646721
 H    1.6955597124    0.0103480496   -1.3600363879
 H    1.4565813212   -2.2326378184   -0.2848275346
 H   -0.0415544148   -2.5019081354   -1.1625655735
 H    2.7591011427   -4.4094816005   -4.7321290544
 H    2.9248512252   -2.7509059565   -5.3211494810
 H    4.1497628250   -3.4326168095   -4.2416385998