19

 C    0.2210937868    1.4759226109   -0.0838585871
 O    1.1677696712    0.4985069849    0.3607365471
 C   -0.1580922203    0.0663494659    0.0162947831
 C   -0.9969040002   -0.5143896425    1.1486613655
 C   -0.8962182078   -2.0326631643    0.9091977050
 C   -0.9266072018   -2.1418497817   -0.6108363252
 C   -1.0498064548   -3.4044621616   -1.3398166516
 O   -2.1774164457   -2.5340681988   -1.1980910205
 C   -0.2743895744   -0.8798102618   -1.1815127660
 H   -0.1139625682    2.1831714376    0.6749170590
 H    0.4245041866    1.9141312800   -1.0608249565
 H   -0.6302428358   -0.1875494363    2.1237438731
 H   -2.0389803639   -0.1893577103    1.0433021379
 H    0.0621566231   -2.4064424217    1.2892765385
 H   -1.6992958789   -2.6143379146    1.3661148454
 H   -0.6474491264   -3.4887409631   -2.3492084006
 H   -1.1110318558   -4.3442047033   -0.7908672934
 H   -0.9042228630   -0.4742164471   -1.9783409658
 H    0.7210608593   -1.0694943821   -1.5928248677