19

 C   -0.0858209318    1.5322586810   -0.0557445386
 C   -0.0213378204   -0.0023108367   -0.0286552573
 N    0.6194013916   -0.5764044720   -1.2274074718
 C    1.8902961947   -1.2310169747   -0.8890352569
 C    3.1606295299   -0.3547637731   -1.0673237308
 N    3.0674949907    0.0270976314    0.3628238581
 C    2.1039554884   -1.0723667112    0.6379800801
 C    0.7993553249   -0.4920240000    1.1780760636
 O    0.4681038286   -0.4082536266    2.3323814071
 H    0.9199424325    1.9498207918   -0.1448334490
 H   -0.6830358885    1.8691392239   -0.9075967484
 H   -0.5403589322    1.9045522236    0.8673878010
 H   -1.0400393470   -0.3926197101    0.0868361054
 H   -0.0010969065   -1.2270429066   -1.6865779833
 H    1.9471631609   -2.2315965314   -1.3191629804
 H    4.0484890283   -0.9507995558   -1.3195242536
 H    3.0708201357    0.4819353180   -1.7668687618
 H    3.9236313063    0.0037421660    0.9024364315
 H    2.4731909938   -1.9241841874    1.2162564451