21

 C   -0.0167311836    1.5561828240    0.1161550255
 C   -0.0221774348    0.0278242754    0.0587943320
 C    0.7567296253   -0.4987222747   -1.1544589587
 C    0.6208501304   -1.9953529234   -1.3382454400
 O    0.3993166777   -2.5317163072   -2.3940439984
 O    0.5931192889   -0.5521027810    1.2068577918
 C   -0.2125324465   -0.6137376583    2.3745069745
 C    0.6697135391   -1.1810406396    3.4758967514
 O    1.7903805544   -0.3540328677    3.7156225066
 H    1.0106743213    1.9316913491    0.1553187885
 H   -0.5054358917    1.9739128382   -0.7693364408
 H   -0.5509250688    1.9242019185    0.9961820442
 H   -1.0642767089   -0.3271723080   -0.0004522161
 H    0.4422819007   -0.0022836137   -2.0760761521
 H    1.8199049308   -0.2735606858   -0.9887407607
 H    0.7449906805   -2.5855230002   -0.4049119639
 H   -0.5635433417    0.3867000878    2.6643354489
 H   -1.0919627386   -1.2556652799    2.2058402996
 H    0.1019997196   -1.2384186379    4.4102492168
 H    0.9730600869   -2.2038331856    3.2004703235
 H    2.1870922990   -0.1953856800    2.8511857172