15

 O   -0.2381876143    1.0395481645   -0.9347450641
 C    0.0288419632    1.4938875109    0.1566837217
 N    1.2412074630    1.3830020996    0.7690202600
 C    2.3682978832    0.7203832903    0.1385744715
 C    3.3247223352    1.7167634671   -0.4754625841
 O    4.1614449948    2.4438597992    0.4277801034
 C    4.7917188649    1.5294504132   -0.4703686002
 C    5.4007178319    0.3563974629    0.1213053597
 N    5.8994384320   -0.5815805525    0.5765738493
 H   -0.6996796611    2.0450114367    0.7818182841
 H    1.3879327410    1.8532372097    1.6481414864
 H    2.8918591509    0.0992988225    0.8707066533
 H    1.9611213421    0.0763273243   -0.6452226796
 H    2.9130870762    2.3217230880   -1.2834198157
 H    5.3832305272    1.9870156037   -1.2609437457