19

 O    0.1844736915    1.3697904814    0.0560544978
 C    0.0886691545   -0.0379126360    0.0244085735
 C   -1.3691550031   -0.5368356669    0.0098541476
 C   -1.4924680041   -2.0902786831    0.0947082363
 C   -2.6552531678   -2.3897073672    1.0793683677
 C   -2.8639909439   -1.0685914701    1.7770783136
 C   -2.1735848327   -0.0777254529    1.2162605910
 C   -2.0888424636   -0.0288055237   -1.2323097637
 O   -1.6751537450    0.8249711611   -1.9819318755
 H   -0.1947850401    1.6726762044   -0.7795540212
 H    0.6222620532   -0.4623492966   -0.8415325680
 H    0.5803497043   -0.4100529556    0.9296265783
 H   -1.6434555141   -2.5528348950   -0.8853137367
 H   -0.5511642846   -2.4867457877    0.4881731839
 H   -3.5666629810   -2.7073507476    0.5556797654
 H   -2.4109123394   -3.1996242761    1.7760453365
 H   -3.5118080975   -0.9607645072    2.6404396016
 H   -2.1593824222    0.9591520594    1.5274432947
 H   -3.0806509445   -0.5012537008   -1.4117709928