21

 C   -0.1421797081    2.1626221362   -0.4329156083
 C   -0.0022929368    0.6639767815   -0.6066717944
 C    0.7654949051   -0.0772867294   -1.6529563892
 C    1.9598649156    0.4961797969   -2.3803261481
 N    2.4140409279    1.8490220234   -1.9731666751
 C    3.0563065733    0.6579618307   -1.3925804213
 C    2.5119661075    0.2361920579   -0.0231990067
 C    2.6911686664    1.2515479070    1.1044479561
 N    1.1121076175   -0.2300580840   -0.2200606844
 H    0.7290022766    2.7165075889   -0.7684680598
 H   -1.0090799145    2.4970917204   -1.0153430324
 H   -0.3510791760    2.3965951345    0.6171686654
 H   -0.9348378611    0.1665279440   -0.3307572774
 H    0.3117490675   -0.9385833294   -2.1419207088
 H    2.1423835425    0.1735007289   -3.3996375557
 H    3.0094461495    2.2308996067   -2.7043144796
 H    4.0965922446    0.4550876989   -1.6316985103
 H    3.0631533847   -0.6729148802    0.2546665874
 H    2.2919412474    2.2293168275    0.8319391951
 H    2.1856631835    0.9050853776    2.0102062247
 H    3.7545816869    1.3717496920    1.3363767226