16

 C   -0.0482315483    1.4875434697    0.1084635124
 O    1.2728970907    1.9034354269   -0.2657163388
 C    2.0992356663    0.7748196794   -0.5846963049
 C    1.1997429353   -0.4014882244   -0.3843155961
 C   -0.0027383496   -0.0023960535    0.0038212677
 C   -0.9022633795   -1.1786974187    0.2040956771
 O   -0.0758770526   -2.3073228394   -0.1147266553
 C    1.2452043860   -1.8914212728   -0.4890625454
 H   -0.2733280786    1.8442761529    1.1255607746
 H   -0.7854752025    1.9475267413   -0.5677841060
 H    2.4681557936    0.8676775281   -1.6179915012
 H    2.9805710939    0.7643377670    0.0752669507
 H   -1.2713447208   -1.2715690394    1.2373277785
 H   -1.7834986513   -1.1681893321   -0.4560074614
 H    1.4701772820   -2.2480542174   -1.5062264686
 H    1.9825109236   -2.3514923041    0.1870504068