16

 C   -0.0989902625   -1.2822467163   -0.4103631050
 C   -0.0443802248   -0.1047979262   -0.1851020639
 C    0.0035065696    1.3250799171    0.1201531145
 C   -0.5069800828    1.6611866248    1.5495900684
 C    0.2674179736    2.9459847962    1.8583325028
 C    1.6160084493    2.6711547084    1.1854552411
 O    1.3496617746    1.7960727852    0.0748672849
 C   -0.7974466988    2.0733607540   -0.8881733344
 N   -1.4180357072    2.6874280736   -1.6447758980
 H   -0.1414326167   -2.3225500073   -0.6224361393
 H   -1.5917814513    1.7657293577    1.5853151819
 H   -0.2089651081    0.8455910747    2.2133180654
 H   -0.2257855275    3.8086074296    1.4006888815
 H    0.3633729157    3.1354552316    2.9293890353
 H    2.0999345873    3.5738115484    0.8020331876
 H    2.3121719996    2.1651561583    1.8665580374