17

 C    0.0784364000    1.6188180711    0.0001316860
 C    0.0848508084    0.0902256366   -0.0253534486
 C    0.8052821915   -0.5674969565   -1.1918408822
 O    2.0436474616    0.0811861361   -1.5654971752
 C    2.8207302383   -1.0847403733   -1.2007693431
 C    1.5872789850   -1.7522894153   -0.5794414828
 O    1.5247606327   -1.6032102703    0.8360750449
 C    0.7750465538   -0.5163156376    1.2025294848
 O    0.6919960584   -0.1612656066    2.3397375949
 H    1.0857845457    2.0044711942   -0.1700805212
 H   -0.5797564159    2.0200704098   -0.7751472435
 H   -0.2718578514    1.9656514671    0.9749933187
 H   -0.9483491904   -0.2831762769    0.0017240139
 H    0.1754648004   -0.7660094231   -2.0640160615
 H    3.2191248434   -1.5995418318   -2.0836028538
 H    3.6310589733   -0.8512878878   -0.5035189743
 H    1.3521076153   -2.7834249456   -0.8416984770