15

 C    0.0951398573    1.5201436153    0.2211198334
 N    1.5400034334    1.7816879548    0.0881570066
 C    2.0449898126    0.7170588847   -0.3892504601
 C    3.1840757427    0.0105441220    0.3262719084
 O    2.8923869203    0.0839960709    1.7340895800
 C    2.3937935801   -1.0327381756    1.0065130701
 C    0.9898043253   -1.0655589800    0.3635369237
 C   -0.0173906139    0.0182579591   -0.0459636550
 N    1.1228270757   -0.3038498372   -0.9074302242
 H   -0.2102902496    1.8442486088    1.2207816366
 H   -0.5160254414    2.0681171441   -0.5093339674
 H    4.2217449946   -0.0531967692    0.0252129207
 H    2.7978270041   -1.9987479287    1.2969997153
 H    0.6097626482   -2.0803633714    0.2536091552
 H   -0.9852596793   -0.3665609776   -0.3602383834