17

 O    0.5571670907    0.1663386186    0.9152926204
 C   -0.1367013289    0.5164708009   -0.2752370290
 C   -1.4609531517   -0.1650167500   -0.2236660712
 C   -2.4794814832   -0.3741490087    0.8363901590
 O   -3.5965291235    0.0908128975    0.0654863245
 C   -2.7714569171   -0.1585490663   -1.1018512195
 C   -2.6823112762   -1.7140115020   -1.1658271857
 O   -1.8479776321   -2.1787577510   -2.2082937343
 C   -1.8776722055   -1.5963845950    0.1177900672
 H    1.4432754380    0.5360445314    0.8640070979
 H   -0.2776589903    1.6076958529   -0.3503316626
 H    0.4130449393    0.1901533934   -1.1722057186
 H   -2.4661982982   -0.2178906130    1.9061689394
 H   -3.0145225627    0.4566077106   -1.9678325107
 H   -3.6426202068   -2.2475817940   -1.1380451532
 H   -2.3546800348   -2.1424637991   -3.0263140062
 H   -1.3042121271   -2.3586774162    0.6275236828