20

 C    0.2457022879    1.5183488428    0.2080486618
 C   -0.0912127154    0.0498524036   -0.1116974655
 C    0.5732674779   -0.4710161426   -1.3467945983
 C    0.0570768732   -0.7661498587   -2.5927761072
 C    1.1405800814   -1.2007309841   -3.4072368160
 O    1.1043961775   -1.6009307384   -4.7174999652
 C    2.2955568038   -1.1673916192   -2.6596281936
 C    3.6962498676   -1.5245057808   -3.0209707829
 N    1.9217463343   -0.7158207588   -1.4036362004
 H    1.3210966808    1.6562597845    0.3623460522
 H   -0.0550148105    2.1726125158   -0.6155750922
 H   -0.2672525568    1.8495812353    1.1168681088
 H    0.1739003678   -0.5755761903    0.7524617352
 H   -1.1735012256   -0.0548040813   -0.2389229767
 H   -0.9804826411   -0.6800691493   -2.8824795996
 H    0.1955202253   -1.5461109972   -5.0238669609
 H    4.3865346513   -0.6760780100   -2.9221941677
 H    4.0950960745   -2.3426530572   -2.4063527259
 H    3.7234794813   -1.8518071529   -4.0627986140
 H    2.5574201549   -0.5978813011   -0.6340330519