18

 C   -0.0913289182   -1.2152963704   -0.0088301368
 C   -0.0478065052   -0.0127293334    0.0024140453
 C    0.0214911623    1.4183544991    0.0122101960
 C    0.5106464728    2.1630045409    1.2783819493
 C    1.3471392229    2.1168507218    0.0631706939
 C    2.7823722009    1.7215281733   -0.2741940336
 C    2.4047616070    2.2040385638   -1.6944006106
 N    1.7526213739    3.2916391518   -0.8082671767
 C    3.0726870506    3.2182671515   -0.0066925050
 H   -0.1373727470   -2.2758059174   -0.0185100016
 H   -0.7559530692    1.9328490969   -0.5469270067
 H   -0.0029102010    3.0884279123    1.5171106357
 H    0.7872249107    1.5510584024    2.1300290313
 H    3.3418677090    0.8345881283    0.0358329690
 H    3.2038856759    2.5939052826   -2.3301269251
 H    1.6824443051    1.6146282276   -2.2623429434
 H    2.9807898720    3.5880854661    1.0168539074
 H    3.9162695575    3.6752175728   -0.5304891486