18

 N    0.2005190427   -0.9530238909    0.7738052063
 C    0.0843837549    0.1316339949    0.3833894167
 C   -0.0168839230    1.4678423365   -0.1166800186
 C   -1.1475820582    2.1647857961    0.0715206800
 C   -1.3708940546    3.5575832404   -0.4348972270
 C   -0.1006529425    4.2854921062   -0.8355437909
 C    1.0355363985    4.4095057923    0.1508325302
 C    1.1739545578    3.5044990765   -1.0485202943
 C    1.1844621218    1.9967390389   -0.8733135789
 H   -1.9693138772    1.6963313564    0.6052362741
 H   -2.0490204370    3.4992066128   -1.3000860783
 H   -1.9226567294    4.1322178422    0.3216837567
 H   -0.2640389626    5.1366934181   -1.4889191230
 H    1.6055414636    5.3314996620    0.1682203743
 H    0.9115284597    3.9428077877    1.1232868014
 H    1.8307213814    3.8549233739   -1.8386172027
 H    2.1021960078    1.6756605362   -0.3652102345
 H    1.2089230962    1.5131866198   -1.8594789015