15

 O    0.1238486216    1.2861741124    0.1478204196
 C    0.0819387686   -0.0494605517    0.0157672584
 N    0.0828073265   -0.7280808868   -1.1054780769
 C    0.0299252484   -2.0399701205   -0.6720402110
 C   -0.0012859348   -2.1308862223    0.6739340109
 C   -0.0586878895   -3.5434534338    1.1355311362
 O   -0.0565365930   -4.2712836833   -0.1054792792
 C   -0.0038490053   -3.4094458644   -1.2639714542
 N    0.0323226809   -0.8266616833    1.1420728254
 H    0.1549302778    1.6445027186   -0.7482838616
 H    0.8061223167   -3.8560210595    1.7414296844
 H   -0.9677072554   -3.7961665614    1.7034838492
 H   -0.8857076948   -3.5990858692   -1.8922937278
 H    0.8883310274   -3.6587675303   -1.8557842445
 H    0.0243512049   -0.4856917045    2.0877836310