19

 O    0.1892230235    1.3812886107   -0.2133295387
 C    0.0123889144    0.0112884534    0.0103144323
 C    0.2973417614   -0.6119210002    1.4083449292
 C   -0.4020022814    0.1421708774    2.5609805898
 C   -1.7475326391   -0.5203812203    2.1825875191
 C   -2.4036934123    0.1095415531    0.9284755765
 O   -2.4378278239    1.5240744648    0.7843326035
 C   -1.4097869521   -0.6087099461   -0.0025623520
 C   -0.9834934278   -1.5064080558    1.2226482570
 H   -0.5817539876    1.8276179588    0.1616485209
 H    0.6267823245   -0.5165124571   -0.7285913957
 H    1.3037631452   -0.9921629926    1.5854698508
 H   -0.0548290106   -0.2102153636    3.5357867997
 H   -0.3521644161    1.2356449041    2.5439709128
 H   -2.4150553292   -0.8276638620    2.9891890990
 H   -3.4095723672   -0.3113440239    0.7898368679
 H   -2.9658371500    1.8974181607    1.4976938897
 H   -1.7961984925   -0.9671025686   -0.9567290928
 H   -1.0266603492   -2.5909027828    1.2541380709