21

 C    0.3031465412    1.6427039869    0.4350600411
 C    1.5547114750    1.8854222409   -0.4117703234
 O    2.1354385049    0.6040083469   -0.6181331098
 C    1.1489392896   -0.4450391047   -0.4374013720
 C   -0.1682166230    0.2977030697   -0.1279245718
 C    1.1018483197   -1.3736425455   -1.6784555352
 C    1.9781206348   -2.6024057775   -1.3386987568
 C    2.1039334901   -2.5239660302    0.1635228078
 C    1.6441538206   -1.3744409162    0.6509129983
 H    0.5725880567    1.5500371069    1.4927813173
 H   -0.4391497265    2.4396649771    0.3427672334
 H    1.2860446942    2.3470277752   -1.3763100809
 H    2.2971401174    2.5279721055    0.0730545288
 H   -0.8062827171   -0.2697634063    0.5540043596
 H   -0.7298066728    0.4551714312   -1.0560574014
 H    0.0691175490   -1.6955053012   -1.8477590697
 H    1.4335661118   -0.8327941593   -2.5674535669
 H    1.5250339448   -3.5421512000   -1.6748378786
 H    2.9677000819   -2.5518188785   -1.8115364426
 H    2.5504066086   -3.3186298004    0.7522263965
 H    1.6645496690   -1.0716482107    1.6923223365