16

 C   -0.0608340612    1.5622429502    0.0198018563
 C    0.0803773626    0.0584120422    0.0475400493
 C    1.3660123285   -0.6704110033   -0.2133325931
 O    2.5666204319    0.0663010106   -0.0371839847
 C    2.5972952498    0.4029879398    1.2903667109
 N    1.6484673203   -0.0173628886    2.0393046139
 C    0.7397976042   -0.7253693709    1.1800189327
 C    3.7042864990    1.1923038580    1.7033271661
 C    4.6441446373    1.8594232700    2.0426877477
 H    0.7790917824    2.0662235122    0.5014286288
 H   -0.1197809783    1.9238252312   -1.0118750818
 H   -0.9726659312    1.8698707295    0.5408985502
 H   -0.7721668515   -0.4798817806   -0.3604495977
 H    1.4728056795   -1.4746107442   -0.9302285342
 H    0.2349143868   -1.5802483203    1.6130704803
 H    5.4733828098    2.4475607342    2.3516376252