15

 C   -0.0028461067    1.5199165958   -0.0495378174
 C   -0.0851431206    0.0502066651    0.1462555328
 C   -1.0693612009   -0.8758639856   -0.0655012562
 N   -2.3779707975   -0.7141666993   -0.4965422001
 C   -0.4593953893   -2.1015619663    0.3474421325
 C   -1.0435352137   -3.4416962799    0.3154337493
 O   -2.1668013775   -3.6618574473   -0.0924830848
 N    0.7801651784   -1.9182581255    0.7715049549
 O    1.0171306858   -0.5830164880    0.6392403957
 H    0.5297534224    1.7879176777   -0.9699832930
 H   -1.0097721690    1.9429160485   -0.1031053601
 H    0.5219380501    1.9920955749    0.7861546788
 H   -2.5064375319   -0.0343951878   -1.2318987805
 H   -2.8180683891   -1.6008101287   -0.7087500454
 H   -0.3833547306   -4.2513263437    0.6814441536