17

 C    0.2445263177    1.4440670669   -0.1200828325
 N    0.0501514972    0.0062711971    0.0535559007
 C    0.5121151167   -0.5156646329    1.3303613603
 C    0.6864688036   -2.0598162159    1.1863445489
 O    1.4418358500   -2.3307520822    0.0295838894
 C    1.3513263490   -2.6111757896    2.3676283714
 C    1.8880100017   -3.0223725232    3.3587388315
 C   -0.6751870511   -2.6635643093    1.0575153921
 N   -1.7469497573   -3.0723575120    0.9168709542
 H    1.3151225952    1.6713521532   -0.1008211367
 H   -0.1461014605    1.7446596370   -1.0957593386
 H   -0.2467857436    2.0556828131    0.6530695186
 H   -0.9292293918   -0.2287718957   -0.0776094258
 H    1.5061306048   -0.1079683132    1.5361073089
 H   -0.1376300347   -0.2893230211    2.1880466916
 H    1.1695473529   -1.6264655823   -0.5886231760
 H    2.3660331401   -3.4050387098    4.2271680620