20

 C   -0.2039358738    1.5711977355   -0.0643145961
 C    0.0675451590    0.0839546088    0.0240631766
 O    1.1349582494   -0.3900392644   -0.8542561698
 C    1.7485179947   -1.1316404371    0.2091287486
 C    2.9135510284   -0.4467762677    0.9704328058
 N    2.6374546584    1.0040274991    0.9962285416
 C    1.9391979255    0.1220650455    1.9552397587
 C    0.7461485423   -0.5894032817    1.2543809223
 C   -0.0794283686   -1.4767632016    2.1577462909
 H    0.6960451297    2.1459251832    0.1480349159
 H   -0.5615811640    1.8238181370   -1.0682044546
 H   -0.9918235502    1.8446711502    0.6474118414
 H   -0.8539506822   -0.4677708010   -0.2199898170
 H    1.8769561281   -2.1968052411   -0.0055661274
 H    3.9221874281   -0.8176943940    1.1084787376
 H    3.4080501474    1.4386164851    1.5036399088
 H    2.0387719205    0.2773438430    3.0237371315
 H   -0.7299471508   -0.8809100176    2.8098041560
 H   -0.7150767620   -2.1523519118    1.5763639056
 H    0.5596965304   -2.0893288194    2.8039542734