19

 O   -0.0794958600    1.4928923137    0.4235710370
 C   -0.0204231661    0.1171739264    0.0717808726
 C    0.7163119645   -0.7303983347    1.1228617968
 O   -0.2550746869   -1.1955957659    2.0558389686
 C   -1.5429400487   -0.7239276282    1.6751569179
 C   -1.4479737102   -0.4450994922    0.1678015825
 C   -2.5457596525    0.4595129306   -0.4029380422
 C   -3.8954471088   -0.2239152091   -0.4017835585
 O   -4.9034040929    0.2328136671    0.0708572158
 H    0.8197392181    1.8257822452    0.5005984788
 H    0.4120225190   -0.0101863664   -0.9307229807
 H    1.2158625062   -1.5935630126    0.6611422690
 H    1.4800857346   -0.1331809104    1.6402892109
 H   -2.2784620705   -1.4927944194    1.9317470570
 H   -1.7987266360    0.1977988226    2.2181977301
 H   -1.4546450493   -1.4071673465   -0.3615886746
 H   -2.6140992760    1.4013111737    0.1437997115
 H   -2.3049517614    0.6935810442   -1.4502268435
 H   -3.8996136431   -1.2261117580   -0.8955592491