16

 O   -0.1889891938    1.3904168299   -0.0808289984
 C   -0.0092514093   -0.0140104059   -0.0140113031
 C    0.5281776621   -0.6108608262   -1.3262797033
 C   -0.4096145198   -0.3056161493   -2.4916191259
 O    0.1012891726   -0.9045279236   -3.6836988926
 C    0.4275879032   -0.0975273144   -4.7146866682
 O    0.8684000844   -0.5113664066   -5.7421000238
 C    0.8575771435   -0.3886804874    1.1202513035
 N    1.5636687284   -0.6572466208    1.9943735108
 H    0.6798597062    1.8090985369   -0.0985338892
 H   -1.0089853071   -0.4188672041    0.1841937647
 H    1.5243937693   -0.2023123033   -1.5325061017
 H    0.6422312070   -1.6940108882   -1.2165313688
 H   -1.4028025904   -0.7317289877   -2.3121563991
 H   -0.5238035447    0.7764657289   -2.6196371358
 H    0.2377576583    0.9720092319   -4.4955371891