18

 C    0.3109541858    1.4219922265   -0.3629621123
 C   -0.1018346813    0.0486591668    0.1726988999
 O   -0.0215313545   -0.9469388957   -0.8485115120
 C    1.2703062942   -1.5412836229   -0.7842201530
 C    1.6042002252   -1.6310292575    0.7119385274
 C    0.7879615877   -0.4840463156    1.3066968184
 C    1.1875693465    0.3006811882    2.4792539934
 O    0.1772217900   -0.7074063965    2.5796080780
 H    1.3678799739    1.4415936433   -0.6480808043
 H   -0.2867259180    1.6665085135   -1.2451450023
 H    0.1492283306    2.2010818631    0.3882584578
 H   -1.1421131951    0.0777214243    0.5119113761
 H    1.2130589482   -2.5132480573   -1.2799526658
 H    2.0135387537   -0.9299236146   -1.3199288849
 H    1.2408729574   -2.5689825313    1.1414275519
 H    2.6742546894   -1.5515965543    0.9184588035
 H    2.1276595126    0.0749569783    2.9824771191
 H    0.8386689638    1.3255016818    2.6023909890