23

 C   -0.0865636691    1.7762286747    1.0277512969
 C   -0.6987739551    0.3917463472    0.8457101250
 C   -0.3064297631   -0.3278723849   -0.4808688317
 C    0.6578640597   -1.2721554678    0.3022726609
 C    0.0260591555   -0.7457813345    1.6339660144
 C   -0.8421607550   -1.8993120668    2.0602607085
 C   -0.6497723433   -2.9881650462    1.3156799167
 C    0.4170029242   -2.8014395442    0.2521890366
 C    0.0611674566   -3.3853748675   -1.1213371159
 H    0.9968670941    1.7573490511    0.8605552304
 H   -0.5178140443    2.4955361107    0.3225491686
 H   -0.2581655672    2.1560501397    2.0413879297
 H   -1.7777115414    0.4398695515    1.0277275043
 H   -1.1452221809   -0.8488097860   -0.9466673777
 H    0.1612809485    0.3073705442   -1.2383304584
 H    1.7075202882   -1.0151073671    0.1471435174
 H    0.6924481519   -0.4012304708    2.4340045649
 H   -1.5430876030   -1.8248328613    2.8861587374
 H   -1.1689870526   -3.9328552248    1.4478909679
 H    1.3348340967   -3.3113998199    0.5855041822
 H   -0.8684790823   -2.9651387548   -1.5165053636
 H    0.8554855400   -3.1917590386   -1.8500054996
 H   -0.0707259181   -4.4707568939   -1.0562442748