16

 N   -0.0339186945    1.4588624196   -0.2477454444
 C    1.2800939461    0.8177594632    0.0193992354
 C    0.0305874678   -0.0066292829   -0.0547879897
 C    0.3669778946   -0.7134040532   -1.3469197594
 O   -0.0516061578   -1.6723378288   -2.3504578697
 C    1.2957870193   -1.1623777539   -2.7920564024
 C    1.8751940615   -1.1194186679   -1.3609927837
 C    2.0907318724    0.4217324746   -1.2532719132
 C    1.0050765396    0.2885954350   -2.3450111428
 H   -0.3710856605    1.8978603195    0.6074472731
 H    1.7805107715    1.0066220221    0.9630063270
 H   -0.4124232396   -0.4909039805    0.8065821117
 H    1.6727057171   -1.5779393754   -3.7244034644
 H    2.3220556665   -1.9354190565   -0.7936413000
 H    3.0540613353    0.9036998623   -1.4161015276
 H    0.4611554508    1.0578495130   -2.8845114399