18

 C   -0.3329887851    1.5434584581    0.0909998154
 C    0.0884203480    0.0829603683   -0.0001064126
 C    0.7687954023   -0.5348135220   -1.2280454686
 C    2.2045364070   -0.2345040766   -1.3877691810
 C    2.9658037729    1.0202509492   -1.0112217393
 O    4.3217126517    0.7190868106   -0.7419978678
 N    1.8137402365   -1.2481974257   -0.3482929740
 C    1.2928381883   -0.4811426938    0.7738683726
 O    1.7030728397   -0.4181539602    1.8917131848
 H    0.4672249389    2.2286578407   -0.1974839194
 H   -1.1909421916    1.7378799990   -0.5600764311
 H   -0.6280778994    1.7825606591    1.1171691746
 H   -0.7637477898   -0.5565122788    0.2655237928
 H    0.2372967558   -1.1069427222   -1.9805576975
 H    2.6755290803   -0.7481382823   -2.2239742323
 H    2.9673072819    1.7060848168   -1.8654164580
 H    2.4999539028    1.5441922973   -0.1674552136
 H    4.3408134499    0.1270547324    0.0188972150