16

 O   -0.0252784575    0.0571691996    0.0046584635
 C   -0.0201894122    1.2572031773    0.0108296227
 C   -1.3036308841    2.1424569791    0.0333425241
 C   -0.6995787160    3.5012227533    0.0316277548
 C    0.6736820990    3.5321750594    0.0126026432
 C    1.2485574476    2.1501861628   -0.0022772819
 C    1.0755024206    4.8957291768    0.0137816053
 C   -0.0820725263    5.6446682558    0.0336714843
 N   -1.1635090025    4.7865277907    0.0445015566
 H   -1.9231037766    1.8990994621   -0.8399826167
 H   -1.8982038040    1.8903205312    0.9213711241
 H    1.8703663626    1.8963375202    0.8659113901
 H    1.8461294457    1.9050852967   -0.8897764703
 H    2.0784307625    5.2939522131    0.0017603526
 H   -0.2291308164    6.7127288592    0.0410233628
 H   -2.1264289323    5.0732457826    0.0592921049