20

 O    0.4660169491    1.2844029173   -0.2826323340
 C    0.1442259538   -0.0640286678   -0.0912512313
 C    0.0289848626   -0.6924826106    1.3307988560
 C   -1.3342205578    0.0393599883    1.5005371616
 C   -1.3364024668   -0.5481347543    0.0296433647
 C   -0.7544297437   -1.8476891412    0.6465263594
 N   -2.3085424290   -0.4899442417   -1.0071199959
 C   -3.7175389210   -0.3977057988   -0.6291502694
 C   -3.0077396580    0.7776112534   -1.2032751132
 H    0.0247305792    1.8169419309    0.3865067516
 H    0.7514633968   -0.6225225254   -0.8080200680
 H    0.8124947496   -0.7858633603    2.0804321708
 H   -2.0351385005   -0.4118774417    2.2074049622
 H   -1.3209057817    1.1260638800    1.6331865280
 H   -0.1932560774   -2.4983300400   -0.0292594850
 H   -1.4271259142   -2.4160219282    1.2922054428
 H   -4.4028009872   -0.9806537648   -1.2373981072
 H   -3.9610183180   -0.3624391384    0.4306272088
 H   -2.7787059368    1.5981111431   -0.5270463493
 H   -3.1645127490    1.0695842904   -2.2372136028