17

 C    0.0258876780    1.4567991780    0.1284805753
 N   -0.0213187097    0.0334729606   -0.1379234817
 C   -1.1978074133   -0.6888435637   -0.0699292631
 C   -2.4630107852   -0.0698369961   -0.0411709996
 N   -3.6069229520   -0.7506575563   -0.0174831800
 C   -3.5665228651   -2.0788713800   -0.0145321182
 C   -2.3619833033   -2.7913378299   -0.0335630014
 O   -2.3121449889   -4.1519545431   -0.0249451503
 C   -1.1667741474   -2.0897546207   -0.0607959279
 H    1.0663079262    1.7859564649    0.0866477828
 H   -0.5273651275    2.0133919315   -0.6358191638
 H   -0.3866296472    1.7301398242    1.1116738306
 H    0.8039236689   -0.4797103624    0.1267041858
 H   -2.5483375112    1.0115796708   -0.0397412034
 H   -4.5188443837   -2.6084057377    0.0073567774
 H   -3.2120701277   -4.4951496667   -0.0056741993
 H   -0.2272445411   -2.6328810234   -0.0800627031