14

 C   -0.0289580118    1.4294036278    0.0086475308
 O   -0.0377564626   -0.0035384844    0.0051692628
 C   -1.2095365050   -0.6361248988    0.0122968118
 C   -1.2229840726   -2.0043085309    0.0089882434
 C   -2.4585905830   -2.7147031322    0.0164693653
 O   -2.6957099851   -3.8854465847    0.0150106615
 O   -3.6174215772   -1.8270413410    0.0271018732
 C   -3.4576329244   -0.5187722265    0.0291774792
 N   -2.3479274335    0.1328099797    0.0226416198
 H    1.0257861276    1.7048774969    0.0010503778
 H   -0.5309273911    1.8276450269   -0.8761206090
 H   -0.5169156076    1.8232122140    0.9031968050
 H   -0.3062831648   -2.5764845586    0.0006887028
 H   -4.4051595090    0.0152102617    0.0374698155