19

 O   -0.1805476509    1.3035325430   -0.3613222824
 C   -0.0456241659   -0.0536620289   -0.0559660880
 C   -0.3428705008   -0.4318985469    1.3596617199
 C   -1.2963267609   -0.8410564449    0.2527198648
 C    1.0929981238   -0.7241304643   -0.7999002731
 O    0.8879520533   -0.5087230714   -2.2078369622
 C    2.1006677320   -0.0692613288   -2.8206473626
 C    3.0337846128    0.2126919500   -1.6764315995
 C    2.4638672418   -0.1550947717   -0.5365617615
 H   -0.2307404029    1.3423956824   -1.3251176027
 H    0.2609831923   -1.1974068958    1.8361287054
 H   -0.6522870991    0.3745698283    2.0142668067
 H   -2.2339259016   -0.3022403266    0.1836098306
 H   -1.3423862800   -1.8867218597   -0.0325632533
 H    1.0654943434   -1.8055851527   -0.5808708040
 H    2.4938823599   -0.8503285638   -3.4922719394
 H    1.8937977903    0.8153952401   -3.4396757525
 H    4.0206074431    0.6378129371   -1.8076705048
 H    2.8847216295   -0.0904219156    0.4580548686