21

 C   -0.0688262016    1.5616388019   -0.0050171073
 C    0.0956196055    0.0372118030    0.0229062337
 C    0.8222854569   -0.4784445799   -1.2317362595
 O    0.1227709547   -0.1761727528   -2.4304236154
 C    0.8045398041   -0.4165450975    1.2698183060
 C    2.2879750074   -0.2313688259    1.7126313535
 C    1.5954134471   -1.2359048352    2.6576099625
 C    0.3698205375   -0.3014039727    2.7576835494
 O    0.9752717458   -1.8864765707    1.4820441083
 H    0.9048822548    2.0599009460    0.0654163917
 H   -0.5320734581    1.8640694470   -0.9467782441
 H   -0.6908639313    1.9160478997    0.8222429621
 H   -0.9013706124   -0.4289065169    0.0428167700
 H    1.7949061585    0.0182106353   -1.3248535537
 H    1.0096488886   -1.5556156754   -1.1324613305
 H   -0.6760114191   -0.7130229142   -2.4460739894
 H    3.0330868069   -0.6639060864    1.0438581006
 H    2.5872042737    0.7386189291    2.1179739744
 H    2.0329329551   -1.8865079622    3.4143560670
 H    0.4928107569    0.6620115086    3.2590910853
 H   -0.5715462912   -0.7959481006    3.0019593053