18

 O    0.1393005931    0.0155882910   -0.7964215790
 C    0.0656094093    1.1497276670   -0.3763663676
 N   -1.0772548736    1.8884982177   -0.2378341459
 C   -0.9205585566    3.1542003948    0.4550329621
 C    0.6092017837    3.4276604052    0.3919191086
 C    1.2109568089    3.8929297233    1.7398435779
 C    1.7397903460    2.6097376293    2.3397715427
 C    1.7615787276    1.6093548799    1.4603782396
 C    1.2241330965    2.0306974431    0.1103601157
 H   -1.9734615182    1.4479977020   -0.3765026217
 H   -1.4984896915    3.9470534893   -0.0313807088
 H   -1.2623192897    3.0848869830    1.4973983098
 H    0.8165615325    4.1327222209   -0.4150710134
 H    2.0233822563    4.6168627596    1.5912445375
 H    0.4712889619    4.3923831798    2.3777144321
 H    2.0888424770    2.5460563875    3.3646301582
 H    2.1208620271    0.6033984905    1.6417949779
 H    2.0085060098    2.0211238762   -0.6545695258