16

 N    0.1192413422   -1.1118945613    0.0279158275
 C    0.0378337587    0.0403342535    0.0090866518
 C   -0.1044753673    1.4870878126   -0.0155414242
 C   -1.0226989453    2.1130432978    1.0387176808
 C   -1.0530302325    3.6076091969    0.6112717068
 C   -0.5448188483    3.6028194805   -0.8319069656
 C    0.8098418576    2.9692182414   -1.0731711561
 O    1.1903781769    2.1746556553    0.0582552761
 C   -0.4290366141    2.1873685692   -1.3637132371
 H   -2.0151293064    1.6535198991    0.9868269243
 H   -0.6229210697    1.9601257513    2.0437546975
 H   -2.0645885090    4.0171977755    0.6684113165
 H   -0.4124511477    4.2156323794    1.2554431562
 H   -0.8436740013    4.3843667644   -1.5215721726
 H    1.5988467091    3.3634427975   -1.7009105884
 H   -0.8509357730    1.7534175669   -2.2579827936