18

 C    0.1395137357    1.5159486316    0.0890264347
 C    0.0099658780    0.0259682941   -0.0292506609
 C   -0.9068175665   -0.7984569080    0.7863917493
 N    0.5436451103   -0.9477015936    1.0140410246
 C    1.0184291075   -1.8322345970   -0.1004408607
 C    0.5356203565   -0.8364248524   -1.1924735435
 O   -0.4860134502   -1.2148825032   -2.0942068190
 C    1.6679932723   -0.1690969303   -1.9621168779
 O    2.8222354588   -0.1462953162   -1.6223362266
 H    1.1604480219    1.8496588717   -0.1215021354
 H   -0.5402671656    2.0210485947   -0.6067567356
 H   -0.1145266520    1.8352080612    1.1034250667
 H   -1.4148102929   -0.2933246751    1.6023988726
 H   -1.4625254120   -1.6135593428    0.3307933722
 H    2.1056092968   -1.9171328300   -0.0769307483
 H    0.5482132636   -2.8204008861   -0.1212513779
 H   -0.1377230093   -1.8882962475   -2.6900237418
 H    1.3210257670    0.3065185890   -2.9078889324