20

 C   -0.0734085632    1.5344585125   -0.0601694178
 C    0.0778258284    0.0331739069    0.0721784387
 C    1.3642561345   -0.7358129798   -0.1780228859
 C    2.5693913494   -0.0257749991    0.4011755482
 N    3.1716459851   -0.7769543988    1.5054820606
 C    1.9506589531   -0.0085566779    1.7779489963
 C    1.9725400436    1.0134914871    2.8771421811
 C    0.7257829796   -0.7175781863    1.2143050096
 O    0.1131682438   -1.8042678932    1.8254771975
 H    0.8181920016    2.0664358456    0.2786267925
 H   -0.2481112173    1.8112081612   -1.1058205074
 H   -0.9258016555    1.9001580566    0.5236227843
 H   -0.7845859942   -0.5234327492   -0.2958725416
 H    1.4036727159   -1.5733634179   -0.8658989393
 H    3.1668263298    0.7452235806   -0.0714057482
 H    2.9828932611   -1.7749916182    1.4283795933
 H    2.9539424608    1.4905367826    2.9359643077
 H    1.2128956433    1.7866903222    2.7229359825
 H    1.7763224468    0.5396960854    3.8464697026
 H   -0.6184318168   -1.4804620902    2.3616943151