17

 C   -0.1348632110    1.5279822346    0.0989604929
 C    0.0411044361    0.0150885312   -0.0521068798
 C   -1.2942505553   -0.7282066551   -0.0086306372
 C   -1.1852846551   -2.2169105347   -0.1661183425
 N   -0.0971726267   -2.8451676616   -0.2656738368
 O   -2.4613253237   -2.7894141988   -0.2270045156
 C   -2.6962156085   -3.9599756413    0.4296385765
 O   -3.7170307707   -4.5601111744    0.3071635382
 H    0.8311958762    2.0399207700    0.0648581628
 H   -0.7580915963    1.9400244805   -0.7025826920
 H   -0.6122744784    1.7826661001    1.0519034128
 H    0.5473477748   -0.2154842440   -0.9952847590
 H    0.6929891510   -0.3724167541    0.7373974993
 H   -1.8237137209   -0.5303667607    0.9339242390
 H   -1.9721825039   -0.3663419175   -0.7933646263
 H   -0.2214493979   -3.8453098981   -0.4195072346
 H   -1.8593994996   -4.2513151862    1.0874202625