19

 C    0.4038393391    1.2809817168    0.2023257362
 C   -0.2630139769   -0.0436470692   -0.1527076530
 C    0.2819036306   -0.6272119339   -1.4829638320
 O    0.1500042648   -2.0254046750   -1.5620309922
 C    1.2689313097   -2.7212147845   -1.0378155593
 C    1.7892650879   -2.1313623215    0.2827138468
 C    0.6709211334   -1.8791662344    1.2789808484
 O    0.5540792325   -2.4950787862    2.3036729203
 O   -0.2478847045   -0.9290823789    0.9853810806
 H    1.4762694234    1.1491563019    0.3818447045
 H    0.2834010551    1.9972256601   -0.6176442197
 H   -0.0457973786    1.7074246396    1.1019131961
 H   -1.3360580132    0.1224859385   -0.2868853547
 H   -0.3119991688   -0.1993320523   -2.2973890263
 H    1.3227807423   -0.3137765267   -1.6500605227
 H    0.9321488519   -3.7500590062   -0.8829407810
 H    2.0895495295   -2.7373846873   -1.7720665627
 H    2.4815411717   -2.8353071899    0.7478812382
 H    2.3378848202   -1.2021918509    0.0987470024