18

 C   -1.3972233970    0.7152786763    0.4993048079
 C   -0.0609961496    0.1621122320    0.0044312533
 O    0.8463890392    0.2639782409    1.1065739418
 C    2.1994168310   -0.0472690524    0.8330686570
 C    3.0756867761    0.8527472190    1.7077861841
 C    2.4984348767   -1.4714062514    1.1111567426
 N    2.7788307009   -2.5645140015    1.3583691975
 C   -0.1878245491   -1.2055031688   -0.5072191682
 C   -0.2928114681   -2.3229226338   -0.9359432622
 H   -1.2601971989    1.7376260430    0.8598536636
 H   -2.1277369949    0.7137770923   -0.3129282989
 H   -1.7772283054    0.0977640980    1.3161734377
 H    0.3136258750    0.8011185698   -0.8125104541
 H    2.4264053987    0.1346064956   -0.2275573355
 H    4.1336155390    0.6247141721    1.5564168418
 H    2.8895024699    1.8971713046    1.4475925579
 H    2.8291987225    0.7009095192    2.7610125229
 H   -0.3702458861   -3.3173889148   -1.3019094391