20

 C   -0.0912998674    1.5361274947   -0.0017645187
 C   -0.0064529398    0.0218867371    0.0588945033
 C   -1.2085595985   -0.6754949473   -0.5536266079
 C    1.3615629356   -0.6529350860   -0.1900015060
 C    2.5366965233    0.1197850526   -0.4523568803
 N    3.4866521162    0.7540037828   -0.6461350658
 C    0.6974329332   -0.6480774289    1.2038872062
 C    1.3230681763    0.1154730938    2.3485922235
 O    0.1285194855   -1.8656057259    1.5930495756
 H    0.8267135282    2.0315773557    0.3179826302
 H   -0.2926223133    1.8565571581   -1.0293358512
 H   -0.9131426842    1.8966724810    0.6263175796
 H   -1.3088887719   -0.3988177298   -1.6083751031
 H   -1.1326863872   -1.7601448950   -0.4775995531
 H   -2.1256403396   -0.3684578922   -0.0388427725
 H    1.3226125533   -1.6070196357   -0.7052224739
 H    1.8207389093    1.0297639606    2.0241055873
 H    0.5601610456    0.3703234254    3.0904886169
 H    2.0806549654   -0.5063875329    2.8409595927
 H    0.8086929802   -2.3845313082    2.0372166371