17

 C   -0.1463864993    1.3859175588    0.1102011157
 C    1.3193379476    1.0193836186    0.0591401581
 C    2.1614534829    0.9505592177    1.3199596639
 C    2.7077101145   -0.4516642995    1.5659866585
 O    1.7603313611   -1.3275587081    2.1913507248
 C    0.5411260982   -1.5731548874    1.6528107177
 N   -0.1151184911   -1.0889304905    0.6901910949
 C    0.2610928981   -0.0355494679   -0.1953408435
 H   -0.5722778049    1.5670862932    1.0921070835
 H   -0.5741622922    1.9870245993   -0.6844201088
 H    1.8637195879    1.3419851246   -0.8247931800
 H    3.0052492310    1.6451498186    1.2406624604
 H    1.5930730522    1.2572797029    2.2053909386
 H    3.0524942718   -0.9029766091    0.6265695507
 H    3.5482927631   -0.4340075719    2.2652689613
 H    0.0818954739   -2.3652094092    2.2453113610
 H    0.1228095953   -0.3327672300   -1.2318575468