20

 C   -0.1529419351    1.5565191115    0.1010560166
 C   -0.0055814048    0.0435451135    0.0247713855
 C   -1.3517711011   -0.6377210677   -0.2008164572
 N    0.9534610247   -0.4865961396   -1.0422870545
 C    2.3087550728   -0.0150990206   -0.7194603549
 C    1.7751356284   -1.1541369474    0.0553805241
 C    0.8383994480   -0.6502389160    1.1161177062
 O    1.2519259722   -0.0700885910    2.3436884905
 C    0.4310481207   -1.2487234210    2.3835365110
 H    0.7866066763    2.0637017955    0.3289761894
 H   -0.5368352981    1.9442779525   -0.8483957001
 H   -0.8624909681    1.8234289376    0.8903778172
 H   -1.8005386462   -0.2822323576   -1.1334985243
 H   -1.2315596039   -1.7219493669   -0.2772336034
 H   -2.0425608989   -0.4194135229    0.6199559123
 H    3.0239881099   -0.2417736990   -1.5043844652
 H    2.4617948553    0.9442068588   -0.2349211543
 H    2.1494843578   -2.1677404030   -0.0414401513
 H   -0.5820813626   -1.1016700366    2.7552979407
 H    0.9286600226   -2.1489223703    2.7432004016