20

 C    0.1425991383    1.3487977221   -0.1752184831
 O    0.1345474655   -0.0581116699   -0.0708447163
 C    0.5634420431   -0.5345665795    1.1886983571
 C    0.6033684750   -2.0591648847    1.0679532101
 O    1.3960314191   -2.4263593723   -0.0405746641
 C    1.2224980363   -2.7395893030    2.3053013584
 C    0.5078346828   -2.3957433675    3.6272324983
 C    1.2358108569   -4.1947953903    2.1124878958
 N    1.2269797762   -5.3454150743    2.0084957933
 H    1.1514113537    1.7603489753   -0.0207511026
 H   -0.1955319377    1.6019050860   -1.1824163674
 H   -0.5368882935    1.8111652319    0.5561752627
 H    1.5699084464   -0.1490760300    1.4248224269
 H   -0.1274591998   -0.2079376070    1.9800315195
 H   -0.4309505972   -2.4208447926    0.9467194034
 H    1.1252543818   -1.8467895230   -0.7636660173
 H    2.2689830166   -2.4141490770    2.3590745399
 H    0.6197183465   -1.3350685025    3.8641882232
 H   -0.5590080835   -2.6298087338    3.5673012291
 H    0.9336765333   -2.9733633379    4.4504701531