21

 C    0.0839139593    1.5494486998   -0.0499618443
 C    0.0482057040    0.0341802417    0.0210916622
 N    1.0675265504   -0.5872973996   -0.9091910278
 C    0.9252774625   -2.0470068279   -0.7319105147
 C    1.6954128946   -1.3027458259    0.2869063821
 C    3.1745463414   -1.4336516919    0.4911645086
 C    0.7287120971   -0.6275759716    1.2317812786
 C    0.9863397788   -0.0368832074    2.5599381331
 N    0.1512575691   -1.2509127743    2.4202824166
 H    1.0952721580    1.9232020880    0.1341158019
 H   -0.2285407543    1.8882394850   -1.0424265604
 H   -0.5906385683    1.9932902212    0.6903376475
 H   -0.9657267252   -0.3345069706   -0.1861290600
 H   -0.0526164016   -2.4585503592   -0.4886864969
 H    1.4875619837   -2.6197354713   -1.4638703080
 H    3.6692482781   -1.7180385971   -0.4418415315
 H    3.6132995050   -0.4913575457    0.8359034207
 H    3.3929690893   -2.2041899420    1.2395991631
 H    1.9396059226   -0.1985315795    3.0567090637
 H    0.5070385014    0.9075864892    2.8053834963
 H   -0.8335261559   -1.0053223609    2.4992559292