19

 C   -0.1817326528    1.5649117344   -0.0939842721
 C    0.0173685136    0.0579184069   -0.0182424827
 C    1.2132524949   -0.6566470250   -0.7397383071
 C    2.1500805382   -0.1329748459    0.3888821240
 C    0.8730022974   -0.6041524932    1.1277323109
 C    0.6077637478   -0.5992283882    2.5886481590
 O    1.4135843953   -0.2739163603    3.4274978769
 C    0.9572708463   -1.8835685825    0.1836462533
 O   -0.1133133633   -2.7534977850   -0.0012038038
 H    0.7365606720    2.1346266012    0.0621916054
 H   -0.5799048750    1.8408198086   -1.0766441085
 H   -0.9079521379    1.8945804400    0.6565450168
 H   -0.9569591165   -0.4214789733   -0.1726589566
 H    1.4194744821   -0.6722458942   -1.8113522899
 H    3.0578482110   -0.7107475842    0.5767930223
 H    2.3599172373    0.9339464118    0.4066088762
 H   -0.4132784591   -0.9416435981    2.8764765625
 H    1.8276280299   -2.5109001725    0.3881260088
 H   -0.8578008111   -2.2823646902   -0.3883608555