19

 O    0.0218442971   -0.0317883158    0.6563252115
 C    0.2646474712    0.7398622890   -0.2419755324
 C    1.2102199998    1.8824788842   -0.1458283757
 C    1.4649594828    2.4368614267    1.2467563259
 C    2.5107851903    1.5913508574    0.6078633293
 C    1.2602323412    2.7998821364   -1.3464147104
 C    0.1779897443    3.8984994585   -1.5033873502
 C    1.3765581816    4.8630546313   -1.5625857832
 O    2.3022986950    3.7963395936   -1.2484238311
 H   -0.2249636443    0.6199804552   -1.2361253208
 H    1.6534545734    3.5021978292    1.3105425592
 H    0.8714781020    2.0007370502    2.0417092582
 H    2.6350955348    0.5744359928    0.9611353256
 H    3.3958179379    2.0843752436    0.2243368391
 H    1.3904278991    2.1985793789   -2.2595258698
 H   -0.4477251933    3.8402937520   -2.3946520301
 H   -0.4523135896    4.0190588343   -0.6205248183
 H    1.5782579588    5.2905859013   -2.5525389680
 H    1.4088565479    5.6631334010   -0.8152950889