15

 O   -0.3863518865    0.3646864115    0.7043587712
 C   -0.1289401450    1.3990311628    0.1837823328
 O   -1.0019525839    2.2697029165   -0.4324023059
 C    0.0907244589    3.2003356592   -0.7691678633
 C    1.1013691299    2.2794631546   -0.0580327747
 C    1.6005925386    3.0275662454    1.2021035986
 C    0.5372477854    4.1104302709    1.4804170663
 C   -0.0192820549    4.4621521613    0.0994331479
 O   -0.4192663255    5.5302875024   -0.2764214047
 H    0.1365116372    3.3855035051   -1.8408060928
 H    1.8897699446    1.8080328273   -0.6435464387
 H    1.7516784349    2.3435018776    2.0399145020
 H    2.5640457358    3.4966395544    0.9806852721
 H   -0.2849242367    3.7094369037    2.0865487286
 H    0.9161582773    4.9989612773    1.9866361205