14

 C    0.0130935901    1.5176668444    0.0025684003
 C    0.0035785967    0.0233716013   -0.0222519876
 C   -0.1349448721   -0.8134236732   -1.1172593546
 N   -0.0796661937   -2.0832516079   -0.6237474281
 C    0.0882468332   -1.9878197738    0.7359565194
 C    0.1849400395   -3.1898535274    1.5632378480
 O    0.3323431304   -3.2126606071    2.7605632142
 N    0.1401958084   -0.7198459459    1.1129490461
 H    0.9531778334    1.8941693855    0.4182039447
 H   -0.1086517873    1.9306414797   -1.0022030746
 H   -0.7950940766    1.9017175029    0.6331222307
 H   -0.2635181126   -0.6105905505   -2.1681143824
 H   -0.1491231430   -2.9348683480   -1.1574329507
 H    0.1076796637   -4.1331102400    0.9693426045