14

 N   -0.2009120342    1.2906056357    0.1210601003
 C   -0.1378490610    0.0356992027    0.1910347840
 O   -1.1479109343   -0.7140281109   -0.3137833349
 C   -1.0154616520   -2.1006473139   -0.1781976845
 C   -1.6246339458   -2.7625164990    1.0987846730
 O   -2.9749101727   -2.4373068198    0.5731679535
 C   -2.2610795002   -2.8801036431   -0.6533732779
 C   -1.7949224656   -4.0542274900    0.2541760153
 O   -1.7827065835   -5.2360553092    0.3291841718
 H    0.6325687206    1.7081789214    0.5294728465
 H    0.6758613143   -0.5613248676    0.6253436363
 H   -0.0346791913   -2.4623055453   -0.5102112860
 H   -1.4293513296   -2.5847853109    2.1533880895
 H   -2.7909599347   -2.8328063500   -1.6008449667