16

 N   -0.2038928005    1.4343857229    0.0001938528
 C    0.0276487854    0.0281660463   -0.0197444771
 C   -0.9928501644   -0.8852597109   -0.0063132631
 N   -2.3449526062   -0.6173282959    0.0270825368
 C   -3.4276882650   -1.4650066648    0.0422515080
 N   -3.3466077278   -2.7354552042    0.0268730060
 O   -0.5252508136   -2.1437268144   -0.0301349149
 C    0.8457120507   -2.0532347643   -0.0601755441
 C    1.2343554612   -0.7546313347   -0.0552624514
 H    0.2266989566    1.8717595367    0.8097044894
 H    0.1894144832    1.8886914608   -0.8189125491
 H   -2.5208925334    0.3766788156    0.0414312052
 H   -4.3590716777   -0.8855350995    0.0693053586
 H   -4.2814539872   -3.1370478373    0.0435197005
 H    1.3633965407   -2.9963761485   -0.0816388952
 H    2.2493234281   -0.3877359979   -0.0743781624