21

 C    0.0801305644    1.5224644585    0.1237442642
 C    0.0810705619   -0.0032553968    0.0111956733
 C    0.6357217718   -0.5125465449   -1.3201907067
 O    1.9840429455   -0.0408651670   -1.4089070132
 C    2.7359085516   -0.5385943596   -2.4772011157
 C    3.8254422403   -1.5170934047   -2.1304686218
 C    2.5600795716   -1.9852420372   -2.8397681320
 C    1.4838902198   -2.7027907374   -2.1140027585
 C    0.5665907066   -2.0192417675   -1.4325086955
 H    1.0929640473    1.9173361458    0.0157286194
 H   -0.5417668253    1.9747447521   -0.6572857626
 H   -0.3143002525    1.8443155002    1.0922822809
 H    0.6786950327   -0.4431196221    0.8186779953
 H   -0.9388488659   -0.3915840395    0.1223715289
 H    0.0435437381   -0.0635300591   -2.1391360295
 H    2.9141895074    0.1898634541   -3.2665421369
 H    4.7503036844   -1.4939987284   -2.6968450653
 H    3.9255089628   -1.7613793019   -1.0792771852
 H    2.6781011787   -2.2527525174   -3.8865086874
 H    1.4500308962   -3.7873342282   -2.1752477529
 H   -0.2550585775   -2.5184620590   -0.9265391387