17

 N   -0.0350391078    1.4924826408    0.1352085053
 C    0.0248529541    0.0437277402   -0.0439095690
 C   -1.3993313724   -0.5181531250   -0.0625471492
 N   -2.1565713268   -0.0551628392   -1.2306230547
 C   -2.5593932586   -1.1077433834   -1.8399249938
 N   -3.3791804426   -1.1325466745   -2.9439087239
 N   -2.1597675339   -2.3199052362   -1.2721675969
 C   -1.4184870502   -2.0530259996   -0.1238096078
 O   -0.9267280236   -2.8676209636    0.6161783463
 H    0.8974922279    1.8884909728    0.0723789744
 H   -0.5754682825    1.8874851215   -0.6295846988
 H    0.5363686546   -0.2821954480   -0.9668098330
 H    0.5579053140   -0.4061616442    0.8009023434
 H   -1.8965178828   -0.1939632346    0.8612822915
 H   -3.4831000118   -0.2178431162   -3.3612447390
 H   -3.1864400908   -1.8550439677   -3.6230660824
 H   -2.4590891869   -3.2425079630   -1.5439668422