23

 C   -0.0984386655    1.4790738309    0.1698631210
 C   -0.0001582080   -0.0412981714    0.0192565300
 C    0.7299595826   -0.4670288671   -1.2583093674
 C    0.8272208621   -1.9850084260   -1.4072458712
 C    1.5483941985   -2.4153836839   -2.6687013151
 O    2.0148807480   -1.6755108676   -3.4991294097
 O    1.6063953408   -3.7608537161   -2.7515166837
 C    2.2722955082   -4.2905507084   -3.9143922746
 C    2.2301435527   -5.8035249683   -3.8192476850
 H    0.8959058707    1.9379412014    0.2016302176
 H   -0.6397807113    1.9251846343   -0.6716970730
 H   -0.6234979215    1.7567822215    1.0890862447
 H    0.5153827744   -0.4638164777    0.8922904659
 H   -1.0086582701   -0.4764763297    0.0255352081
 H    0.2210510162   -0.0514651026   -2.1358205338
 H    1.7390276017   -0.0389157066   -1.2725084203
 H    1.3482092370   -2.4360015930   -0.5531777662
 H   -0.1674302650   -2.4485323017   -1.4153771418
 H    1.7662128607   -3.9217124381   -4.8123208098
 H    3.2982696648   -3.9095848143   -3.9405370884
 H    2.7280020867   -6.2446750093   -4.6878912610
 H    2.7389559977   -6.1528034544   -2.9162914353
 H    1.1982274186   -6.1650256717   -3.7931439410