15

 O    0.0879452794    1.4546126459    0.0462243391
 C    0.0573266963    0.0572084019   -0.0589070278
 C   -1.2528092779   -0.7193420110   -0.0532135942
 C   -0.7084337050   -1.7557455620   -0.9614084606
 N   -1.7699002827   -0.8492375971   -1.4681924610
 C   -0.7639827395   -0.1320080643   -2.3251455996
 C    0.3544773088   -0.6490456559   -1.4114354467
 O    1.6751188434   -0.7737481541   -1.7766848046
 H   -0.6541840163    1.8176055101   -0.4470984575
 H    0.7393409253   -0.3300231690    0.7031530595
 H   -1.9872180425   -0.8130233605    0.7358379544
 H   -0.7596013937   -2.8358493201   -0.9540377713
 H   -0.7667213715   -0.6021232819   -3.3136281562
 H   -0.8995246190    0.9515763961   -2.4375836075
 H    1.7224024849   -1.1382639181   -2.6671398759