18

 C    0.0447508125    1.4370327776   -0.1160457049
 N    0.0230839122   -0.0082357017    0.0870877378
 C    0.8483992960   -0.4124661813    1.2217630146
 C   -1.3232234227   -0.5508592920    0.0804857089
 C   -1.3542509740   -2.0831420846   -0.1569612701
 C   -0.7041970654   -2.4490585085   -1.4122892978
 N   -0.2091517470   -2.7501484938   -2.4112291747
 C   -2.0945960132   -0.2369371785    1.3129679530
 N   -2.6398923817    0.0345304326    2.2955104671
 H    1.0808002701    1.7616308296   -0.2429046761
 H   -0.5031355003    1.6910848117   -1.0283084500
 H   -0.3926678147    2.0023171203    0.7246619022
 H    0.4784308815   -0.0288187476    2.1871791723
 H    0.9155328958   -1.5013857716    1.2843780536
 H    1.8612684503   -0.0331141372    1.0657832191
 H   -1.8547550443   -0.0825714201   -0.7550534927
 H   -0.8724869295   -2.6113913338    0.6704576274
 H   -2.3958279556   -2.4194469612   -0.1790983597