20

 C   -0.0322838834    1.5738454583   -0.0009718750
 C    0.0893093825    0.0520350551    0.0087449809
 C    0.7631718149   -0.5091702607   -1.2718083395
 O    2.0379070399    0.0689967962   -1.4861531786
 C    0.8952635764   -2.0329606637   -1.1752820127
 N    1.7833088663   -2.3056812684   -0.0462197130
 C    1.1652546641   -1.9583431175    1.2352309535
 C    0.7984943389   -0.4708069685    1.2596575648
 O    1.0262636775    0.2145615452    2.2272367636
 H    0.9524208095    2.0261157982   -0.1368518232
 H   -0.6756007853    1.9011733292   -0.8237572111
 H   -0.4501554284    1.9373418235    0.9395774655
 H   -0.9160886475   -0.3999398041    0.0486240105
 H    0.1467691526   -0.2390444682   -2.1364865329
 H    2.6498280163   -0.4604230306   -0.9531780017
 H   -0.1013304422   -2.4989613782   -1.0696390698
 H    1.3584917113   -2.4169434530   -2.0886307909
 H    2.0921104367   -3.2701731536   -0.0425809097
 H    0.2356810522   -2.5300840079    1.4300466507
 H    1.8591612279   -2.1504766714    2.0561077087