16

 N    0.0489198286    1.3926355139    0.0683546904
 C   -0.0253170452    0.0004498987    0.0315866529
 C   -1.2066124418   -0.6821215740    0.0071399543
 N   -2.4375052200    0.0047111714   -0.0551567333
 C   -1.1918180980   -2.1275737538   -0.0504110451
 N   -2.3098618886   -2.7778038417   -0.1399139261
 C    0.1527453707   -2.6958695555   -0.0025098542
 N    1.2631455874   -2.0286800838    0.0726094446
 N    1.1621265913   -0.6893513585    0.0669536263
 H    0.8284285387    1.7694275365   -0.4589799378
 H   -0.8214644129    1.7892499258   -0.2729037214
 H   -2.6386385233    0.5171427867    0.7984246138
 H   -3.1651878355   -0.6967226770   -0.1832274837
 H   -2.1435293671   -3.7828291275   -0.1949650369
 H    0.2647391520   -3.7772183072    0.0006064954
 H    2.0301445538   -0.2056078942    0.2292803808