16

 N    0.1291130659   -1.0688197319   -0.0009781906
 C    0.0568586237    0.0863870768   -0.0112070595
 C   -0.0378267849    1.5132153047   -0.0281208498
 C   -1.1115293102    2.2325247519   -0.8315154711
 C   -0.7351833257    3.6573217661   -0.4836542547
 C   -0.1678682304    3.7439813056    0.9201310870
 C    0.7615546407    3.7915804669   -0.2793470917
 C    1.2427397089    2.3575302563    0.0455562726
 C    0.3224394370    2.3105392022    1.2338825951
 H   -1.0290518479    2.0216889422   -1.9023894853
 H   -2.1186916398    1.9660743939   -0.4958768836
 H   -1.2887122839    4.5002239745   -0.8791761764
 H   -0.4155169052    4.5098639583    1.6410436021
 H    1.3675492290    4.6011798465   -0.6600564516
 H    2.2298362036    1.9391739010   -0.0893779020
 H    0.4556320494    1.8485881550    2.2015831297