16

 C   -0.8164172044    1.2876859706    0.0428634357
 C   -0.0469596655   -0.0214900257   -0.0338651567
 N    1.2440767971    0.0491484029   -0.7942558677
 C    2.0060903230   -0.6161501281    0.2983187793
 C    3.2290126081    0.0805741829    0.7021571509
 N    4.1998527904    0.6277299679    1.0063064047
 C    0.7602198529   -0.4617143923    1.1696330654
 N    0.4626218189   -0.6069377467    2.3860470847
 O    1.5591708636   -1.0394839841    3.1347253553
 H   -0.1633336128    2.0940009920    0.3850367663
 H   -1.2102393071    1.5545436705   -0.9427250286
 H   -1.6568594158    1.1925789749    0.7370622292
 H   -0.7077572804   -0.8292650731   -0.3822462177
 H    1.2570976364   -0.4602069560   -1.6702552749
 H    2.2496139415   -1.6746044572    0.1278276320
 H    1.2104556939   -1.0567879684    4.0331374321