16

 C    0.4501049998    0.9257561355   -0.2669019771
 C   -0.5899217329    0.2247729568    0.5930761704
 O    0.0275570120   -0.4670108145    1.7041789737
 C    0.4760002005   -1.6968331194    1.4635290558
 O    0.4121642011   -2.2828683923    0.4091835463
 C    1.1103849898   -2.3303500183    2.7272488507
 C    1.6004271570   -3.7432336338    2.5297847470
 O    1.1909844221   -1.7142922070    3.7578726413
 H    1.1087228882    0.1981490023   -0.7468756382
 H   -0.0507243170    1.5038751817   -1.0498105376
 H    1.0539285068    1.6108273076    0.3346031595
 H   -1.2685073078    0.9386180003    1.0642491353
 H   -1.1659829224   -0.4964798752    0.0084146990
 H    2.3466338012   -3.7723972132    1.7294339471
 H    2.0254848354   -4.1159488386    3.4617295496
 H    0.7767880460   -4.3844725417    2.2000927770