18

 C   -0.4833563126    1.3850957062    0.0213350072
 C    0.2224703997    0.0506782241   -0.0636131068
 O    1.5338570913    0.1350320975   -0.6647527455
 C    2.0760540483   -0.7906044297    0.2918912663
 C    0.8277506281   -0.6419071966    1.2118437038
 C    1.0834364753    0.2929017690    2.4011923397
 C    0.1735782210   -1.8689038310    1.6294392281
 C   -0.3750502022   -2.8834741572    1.9707115756
 H    0.1010492890    2.1218675819    0.5770461587
 H   -0.6475813927    1.7737853693   -0.9887855410
 H   -1.4603829058    1.2694524241    0.5021814327
 H   -0.4011411328   -0.6672563483   -0.6153502984
 H    2.1983159085   -1.7975784557   -0.1260925186
 H    3.0279053287   -0.4454633703    0.7104838425
 H    1.6180328562    1.1897831403    2.0767673594
 H    0.1467633981    0.5958353434    2.8774127842
 H    1.6938268560   -0.2174494970    3.1518398933
 H   -0.8567792242   -3.7811289100    2.2702778588