17

 C    0.1956402782    1.7140784253    0.0101755170
 C    0.0849011463    0.2087693610   -0.0084526121
 C    0.6084606321   -0.6585547820   -1.0961486000
 C    1.6718900300   -0.1189784156   -2.0552892298
 N    2.8246564129    0.2211457752   -1.2044325763
 C    2.5029227164   -0.0819099910   -0.0033783143
 C    3.4451870577    0.2025592075    1.1171920318
 O    3.1728567064    0.0548349021    2.2807313311
 N    1.2488300851   -0.6984146656    0.2491028668
 H    1.0814944496    2.0853662837   -0.5095564177
 H   -0.6859419145    2.1471441208   -0.4742056103
 H    0.2249107405    2.0828789292    1.0403823920
 H   -0.7986888094   -0.1646050731    0.5043750310
 H    0.0519193125   -1.5457932875   -1.3814325607
 H    1.9733717457   -0.8764793127   -2.7876233954
 H    1.3667075833    0.7670497784   -2.6250370629
 H    4.4228920271    0.5896208844    0.7672703397