22

 C    0.1014000612    1.5808804212   -0.0019852923
 C    0.1963947681    0.0552937880   -0.0776794868
 C    0.5406128523   -0.5916863698    1.2734586763
 C    0.6203463911   -2.0899829191    1.2131471979
 C   -0.4977875093   -3.1130244004    1.0640441135
 N    0.4520676681   -4.1943766946    1.5416119730
 C    1.4405385226   -4.2460800311    0.3905812297
 C    1.8947275586   -2.8449308435    0.7574321709
 C    1.3179525296   -3.0544802115    2.1290672868
 H    1.0492923298    2.0204916507    0.3285497993
 H   -0.1448096715    2.0151742579   -0.9758904293
 H   -0.6719276325    1.8954217678    0.7077699730
 H   -0.7543312146   -0.3551633388   -0.4413936564
 H    0.9539864796   -0.2348242926   -0.8162048807
 H    1.4961749466   -0.1889393044    1.6362870156
 H   -0.2127710404   -0.2972075065    2.0177873219
 H   -1.2891287663   -2.9735008709    1.8069552597
 H   -0.9462939600   -3.3027572704    0.0812933368
 H    2.1983179365   -5.0060361496    0.6001032339
 H    0.9883624712   -4.4376898185   -0.5898113328
 H    2.7938368329   -2.3058816068    0.4835385886
 H    1.7072218163   -3.0062612071    3.1364807514