17

 O   -0.0366949809    0.0353927444    0.3222415849
 C   -0.0050013942    1.1946029251    0.0269793315
 O   -1.1381170396    1.8845992184   -0.3057680784
 C   -0.8728711414    3.2346413691   -0.7421048830
 C    0.6126861379    3.5080578868   -0.4619824503
 C    1.0309817838    4.1137783112    0.8944393647
 C    0.4281364774    3.3631226144    2.0503444377
 C    1.6061490789    2.7646219442    1.3357688303
 C    1.1822794050    2.1395971926   -0.0156625035
 H   -1.1151899677    3.2929827745   -1.8082581838
 H   -1.5441134817    3.9007278915   -0.1926536090
 H    1.1221003138    3.9668845950   -1.3091691010
 H    1.4536962471    5.1032783867    1.0159929325
 H    0.6607302688    3.7800537209    3.0248751389
 H   -0.5600935234    2.9151959573    1.9928961635
 H    2.5365832327    2.5414803965    1.8407054116
 H    2.0042435734    1.7235312312   -0.5968388667