20

 C   -0.2433336275    1.3476763698    0.1627076707
 O    0.2170323068    0.0357913973   -0.0471841100
 C    0.6243302266   -0.6001953787    1.1439997682
 C    1.0645826045   -2.0199474191    0.8058946397
 C    1.5598261954   -2.7571524105    2.0256530432
 N    0.5402393314   -3.2859804817    2.9394160441
 C    1.4018629839   -4.2381163552    2.1953945818
 C    0.7789123055   -5.0738803726    1.2060509976
 C    0.2924678438   -5.7914139378    0.3729791666
 H    0.5388575547    1.9929373811    0.5949664634
 H   -0.5356429972    1.7528172462   -0.8092944098
 H   -1.1156944229    1.3735632013    0.8352992926
 H    1.4523886844   -0.0381555368    1.6136714930
 H   -0.2019026350   -0.6293577782    1.8733123478
 H    0.2239895190   -2.5623688038    0.3652309037
 H    1.8595213701   -1.9793892281    0.0519620056
 H    2.4615899818   -2.3442072120    2.4787797791
 H    0.8555948845   -3.2340532239    3.9046179630
 H    2.1901927591   -4.7318302430    2.7603110893
 H   -0.1489303589   -6.4197879143   -0.3603773394