25

 C    0.0031861952    1.5908242860    0.2031627840
 C   -0.0112319513    0.0671671623    0.0488225252
 C    0.6447257893   -0.4404210479   -1.2459744003
 C    0.7458834272   -1.9866097776   -1.3245103252
 C    0.5399462249   -2.3717917890   -2.8132431025
 C   -0.2154551667   -3.6971920657   -3.0058798535
 C   -0.3087727292   -4.1593774074   -4.4630124045
 C   -0.1542051023   -1.1422517321   -3.3624284224
 C   -0.0981585109   -0.1091704513   -2.5241044086
 H    1.0274043741    1.9802707331    0.1835379907
 H   -0.5530837009    2.0854209104   -0.5999186438
 H   -0.4496254047    1.8962353110    1.1517163506
 H    0.5099012053   -0.3855934669    0.9025802216
 H   -1.0445901195   -0.3016929291    0.0905676200
 H    1.6533336716    0.0018485754   -1.2978383443
 H    1.6833071866   -2.3714292158   -0.9129629566
 H   -0.0691217145   -2.4228811712   -0.7323988252
 H    1.5188457846   -2.4771212327   -3.3094725229
 H    0.2881543840   -4.4729480066   -2.4142260388
 H   -1.2232754384   -3.5953203631   -2.5821464635
 H   -0.8528079233   -3.4393510079   -5.0831654181
 H    0.6874231646   -4.2864590636   -4.9017840519
 H   -0.8301990020   -5.1186202801   -4.5407039706
 H   -0.6059885236   -1.1171668990   -4.3485608835
 H   -0.4977191402    0.8785134588   -2.7291072059