15

 C    0.1824992550    1.4285581363   -0.0731675918
 C    0.0282894349   -0.0822016371    0.0200467803
 O    0.8124554621   -0.7783872101   -0.9760141860
 C    1.6583335739   -1.3960212785    0.0209016988
 C    0.8372887298   -0.8012980268    1.1720274200
 O    1.5966942879    0.0047144643    2.0238511053
 C   -1.3824460929   -0.4885624469   -0.0443437158
 N   -2.4906971669   -0.8174814621   -0.0521424113
 H    1.2281636994    1.6981180708    0.0824260442
 H   -0.1389842148    1.7687387992   -1.0607577555
 H   -0.4284025898    1.9300394097    0.6834400886
 H    1.6632979586   -2.4869359132   -0.0629174072
 H    2.6840093519   -1.0129445421   -0.0140780778
 H    0.2306559416   -1.5287055311    1.7201257448
 H    1.0659382892    0.2395206577    2.7917198933