19

 C   -0.0171952309    1.4916775479    0.0430129357
 C   -0.0427619283   -0.0099287334    0.0150115404
 C    0.5674786157   -0.8848437073   -1.0841645419
 C   -0.2576887730   -2.1660988594   -1.1644989971
 C   -0.5990377957   -2.2097907220    0.3352003341
 O    0.6851758388   -2.0746463492    0.9793622735
 C    1.1406356454   -0.9015195215    0.3148397973
 C   -1.2154499876   -0.8136409096    0.5920950303
 O   -1.4677227386   -0.5437759285    1.9521844647
 H    0.9633348534    1.8834183004   -0.2466415516
 H   -0.7588948159    1.9183171219   -0.6422162424
 H   -0.2449422414    1.8546668899    1.0504821063
 H    1.1049020827   -0.4675438086   -1.9257937403
 H   -1.1495060373   -2.0798772998   -1.7916833696
 H    0.3274304324   -3.0329445845   -1.4843842592
 H   -1.1259628932   -3.0726544270    0.7362752200
 H    2.1291163741   -0.5729519810    0.6037200775
 H   -2.1556545116   -0.6611203220    0.0545841474
 H   -0.6875012887   -0.8546870863    2.4301120949