18

 C    0.1444063035    1.4960457355   -0.0241020722
 C    0.0549498141    0.0105082856    0.0779330133
 C   -0.9415851554   -0.8094904087    0.8306544604
 C    0.5422414028   -1.0218169864    1.0723690316
 C    1.1630973619   -1.7267972727   -0.1442378090
 C    0.8087197780   -3.1698410324   -0.4721212496
 O    0.5432796963   -0.7623725627   -1.0433701656
 C    2.6257795098   -1.5349695132   -0.1653885578
 N    3.7728964148   -1.3958203117   -0.1636354376
 H    1.1694374372    1.8121829223   -0.2379227659
 H   -0.5027508016    1.8623886114   -0.8286740918
 H   -0.1811530912    1.9617090271    0.9102778781
 H   -1.4423219884   -0.3028464360    1.6501860779
 H   -1.5461501801   -1.5479818204    0.3132097522
 H    1.0183488431   -0.9145099654    2.0369104443
 H   -0.2705524904   -3.3173011549   -0.4034659538
 H    1.1330446263   -3.4134135148   -1.4874824659
 H    1.3075838090   -3.8504191627    0.2237582414