16

 C   -0.3534926395    1.2362049622   -0.1160747131
 O    0.0095006510   -0.1354282086   -0.0380866485
 C    0.8638690279   -0.5672706720   -1.0832952278
 C    1.2886498428   -2.0000588849   -0.7886137569
 O    0.3374805288   -2.8697430949   -1.4496197013
 C   -0.3571756644   -2.2059624566   -2.4092126372
 N   -1.1862838243   -2.7057029628   -3.2186270070
 C    0.0168936040   -0.7362775687   -2.3566035236
 O   -0.3298837140    0.1218160229   -3.1207433898
 H    0.5369403640    1.8804178652   -0.0737683010
 H   -0.9084477749    1.4653483203   -1.0328393998
 H   -0.9852857806    1.4365001337    0.7513887411
 H    1.7063286853    0.1210964724   -1.2272795082
 H    2.2874998406   -2.2161933070   -1.1813884150
 H    1.2551512848   -2.2154575749    0.2802125902
 H   -1.2789435816   -3.7133424264   -3.0698668220