19

 C    0.0020685252    1.4315823340   -0.0540208006
 O    1.2916984885    1.9771990458   -0.0496367516
 C    2.1274742887    1.5439745202    1.0210968775
 C    1.5723803999    1.8040549602    2.3976814042
 C    1.2138223172    0.8519784045    3.2674429704
 C    1.2162680713   -0.5974687914    3.0048954560
 C    0.4981561464   -1.2290089861    2.0694272363
 C   -0.5340774371   -0.5840037993    1.1715978067
 O   -0.0081145301    0.0261982944   -0.0117676646
 H   -0.5985334673    1.8278667001    0.7807076626
 H   -0.4301113556    1.7562848236   -1.0066398357
 H    2.3569257310    0.4803374345    0.9058738036
 H    3.0542031447    2.1127462756    0.8894119631
 H    1.5163063288    2.8461628228    2.7059685025
 H    0.9384390119    1.1506069975    4.2794718360
 H    1.8482047732   -1.1961143320    3.6616002502
 H    0.6144667949   -2.3055735037    1.9709535460
 H   -1.2410484265   -1.3508558011    0.8364582796
 H   -1.1011379550    0.1611963303    1.7437226379