19

 C    0.3559651543    1.7699218010   -0.5317005736
 O    0.8361956953    0.5093219596   -0.0818066789
 C    0.7519169848   -0.5094099979   -1.0322736873
 C    1.0741096756   -1.9197696691   -0.4485853742
 O    0.7646117146   -1.9700860470    0.9228240152
 C   -0.0843642353   -2.5314235457   -1.3083289844
 C   -0.9825017104   -3.6101862819   -0.7245408691
 C   -0.6304576303   -1.0975560078   -1.4202477903
 O   -1.7231641920   -0.6266361735   -1.5570336408
 H    0.9526696487    2.1355733167   -1.3800823601
 H   -0.6952674610    1.7095627229   -0.8310845855
 H    0.4631453300    2.4644329045    0.3039086740
 H    1.3482287112   -0.2896395794   -1.9329914461
 H    2.0796731172   -2.3071766402   -0.6451444353
 H    0.8389740434   -1.0662521213    1.2575244276
 H    0.3133726292   -2.8298324883   -2.2876193630
 H   -1.2552843754   -3.3567392800    0.3015919900
 H   -1.8973418672   -3.6995734393   -1.3173623704
 H   -0.4809100127   -4.5824085234   -0.7173238079