20

 O    0.1549158546    0.6982692439   -1.5142264959
 C    0.0798863951    1.4195932312   -0.5449035092
 N    1.1055651883    1.7000441181    0.3077811109
 C    2.3951014853    1.0847656095    0.2074621651
 C    3.3516584084    1.5516093020   -0.8606460675
 C    3.6079259230    1.9074698377    0.5832664241
 C    3.4676741637    3.3181246336    1.0640389469
 C    3.5554648265    3.6344251997    2.5421047089
 C    4.6651671137    4.0536956312    1.6107944981
 H   -0.8504895492    1.9474506724   -0.2490123333
 H    0.8970495008    2.2351307090    1.1371601140
 H    2.4120035780    0.0252275628    0.4510372965
 H    3.9746291610    0.8079534299   -1.3436262555
 H    3.0006841127    2.3420268530   -1.5143485974
 H    4.3947590006    1.3489077447    1.0845459156
 H    2.7676676244    3.9190796210    0.4911784819
 H    2.9056868963    4.4019618046    2.9484283023
 H    3.7510179306    2.8123983009    3.2230712385
 H    5.6047712912    3.5141803613    1.6676393048
 H    4.7725322451    5.1068988534    1.3769033412