19

 C   -0.0266767720    1.5527420329    0.1115390502
 C    0.0044268063    0.0544338240    0.0232430122
 C   -0.8110915004   -0.8447041434    0.8849144164
 C    0.7122455460   -0.9514825350    0.9835654019
 C    1.1926032335   -1.7099859200   -0.2109994035
 O    1.8955750790   -2.6714973959   -0.3870672993
 C    0.5290747827   -0.7296998106   -1.2033916152
 C   -0.3682941272   -1.3346988723   -2.2806808953
 O    0.3929656842   -2.1769368347   -3.1274556727
 H    0.9218945375    1.9902345021   -0.2178015611
 H   -0.8208398686    1.9671413240   -0.5202532245
 H   -0.2158544307    1.8845145556    1.1373769893
 H   -1.2639085515   -0.3799299227    1.7558556955
 H   -1.3918802451   -1.6665894743    0.4786402586
 H    1.2250345244   -0.7979002770    1.9251589276
 H    1.3378870401   -0.1728119681   -1.6944850656
 H   -1.2086371498   -1.8798255823   -1.8219348888
 H   -0.8004385300   -0.5547200115   -2.9176186492
 H    0.9254299315   -2.7499996909   -2.5604537065