19

 C    0.0463688488    1.5089621053    0.0117382191
 C   -0.0385309437   -0.0110525314    0.1683561111
 C   -1.4301660140   -0.5505683569   -0.1568923630
 N   -1.4729478968   -1.9999438628   -0.0043100624
 C   -2.6775152537   -2.6371388809    0.0136089882
 N   -3.8597863325   -2.1243962882    0.1901195415
 C   -4.7003663016   -3.2375358368    0.1854070846
 C   -3.9786005973   -4.3593144596   -0.0038010260
 O   -2.6495716301   -3.9851043720   -0.1194677928
 H    1.0506359307    1.8734683423    0.2457753991
 H   -0.1904776452    1.8177711209   -1.0121810373
 H   -0.6569780549    2.0153860649    0.6813817201
 H    0.6991431146   -0.4888597878   -0.4916209161
 H    0.2255622093   -0.3040860787    1.1909461533
 H   -2.1757093535   -0.1320793138    0.5249168210
 H   -1.7284003561   -0.2441947645   -1.1721707753
 H   -0.7351846301   -2.5201520270   -0.4561263283
 H   -5.7664727064   -3.1369083194    0.3151077203
 H   -4.1858302176   -5.4111243037   -0.0848069371