19

 C   -0.5975447469    1.2118542630    0.3560785222
 C    0.0344439067   -0.1153688444    0.0754064075
 N   -0.4595870246   -1.3650103327    0.7175673201
 C    0.9683374552   -0.9735565518    0.8587899976
 C    1.6702506808   -1.4668567015   -0.4072714437
 C    0.7076823540   -0.5440555713   -1.2513536896
 C   -0.1245642234   -1.1471540456   -2.3812551677
 N   -0.9832336650   -2.1301821656   -1.9983458477
 O    0.0042173194   -0.7777246346   -3.5355361834
 H    0.0498722753    2.0307311686    0.0260442674
 H   -1.5544806673    1.3119574282   -0.1690987897
 H   -0.7853249227    1.3410063567    1.4278662951
 H   -0.9400059764   -1.0893333027    1.5731290067
 H    1.3918458747   -0.8254465489    1.8451435097
 H    2.7109585422   -1.1486720289   -0.4866488268
 H    1.5983771155   -2.5409150895   -0.5913324816
 H    1.2604010456    0.2878919095   -1.6888215955
 H   -1.1221846320   -2.3160742956   -1.0128871468
 H   -1.5912438911   -2.5243021327   -2.6970640337