17

 C    0.1128977960    1.4946821196   -0.1600087026
 C    0.0052155649    0.0180899339    0.0571626367
 N   -0.2803315584   -0.7969182994   -0.9579641064
 N   -0.3127870803   -2.0279332619   -0.4098807643
 C   -0.0382206538   -2.0284296169    0.9178943524
 C    0.1740743372   -0.7088103019    1.2624146209
 C   -0.0351338950   -3.2820517939    1.6945597679
 C   -1.2055015685   -4.1805886722    1.7343848581
 O   -0.0749596024   -4.4860035198    0.9160270926
 H    1.1008127643    1.8705501109    0.1277288562
 H   -0.0507468752    1.7267332035   -1.2143862317
 H   -0.6277914888    2.0429029448    0.4326494806
 H   -0.4273268671   -2.8437579161   -0.9882308409
 H    0.4077257185   -0.3230346851    2.2421428669
 H    0.6506689406   -3.3083736354    2.5401332200
 H   -1.3508652453   -4.8362145142    2.5915154830
 H   -2.1082975267   -3.8944004557    1.1981617307