25

 C    0.0087082754    1.5268367698    0.4349323731
 C   -0.0024099590    0.0269896331    0.1118533189
 C   -1.3763984738   -0.5096327774   -0.2331748721
 C   -2.3108878019   -0.9111301535    0.8865190626
 C   -1.7500412206   -1.9642188715   -0.0413302288
 C   -2.6083648806   -2.4253724777   -1.2077290002
 C   -3.0274652837   -1.1427483138   -1.9893832050
 C   -4.5048299181   -0.7671991067   -1.8098361806
 C   -2.0378142438   -0.0312544525   -1.5248314469
 H    1.0155927084    1.8676564574    0.6960523698
 H   -0.3316446588    2.1215288763   -0.4191756653
 H   -0.6528900647    1.7504670542    1.2785567672
 H    0.6836577580   -0.1700989910   -0.7239226837
 H    0.3935402058   -0.5300526343    0.9703662442
 H   -1.9075071025   -0.8814452702    1.8943863491
 H   -3.3637817416   -0.6563793511    0.8337855794
 H   -1.0315636849   -2.6648691877    0.3732699294
 H   -2.0144623587   -3.0848612532   -1.8508669354
 H   -3.4833353971   -3.0042168536   -0.8881933374
 H   -2.8794654292   -1.3189109855   -3.0600204333
 H   -4.7623497304   -0.5720979440   -0.7640007619
 H   -4.7505408558    0.1339570223   -2.3823185986
 H   -5.1572392573   -1.5734200168   -2.1626899422
 H   -2.5476865001    0.9323596618   -1.4081612160
 H   -1.2568133952    0.1198380355   -2.2806350362