13

 O   -0.6733391170    0.7454985656    0.5267547223
 C    0.1368145519    0.9856896285   -0.3350261870
 C    1.2758967326    1.9578100770   -0.2170878724
 C    1.0785666965    3.4948945886   -0.4983424544
 C    0.3006454681    3.6455051308    0.8272177178
 C    1.5597724821    2.7781755811    1.0672235696
 O    2.3342957209    3.7362420180    0.2324884858
 H    0.0840922687    0.4719254490   -1.3224528632
 H    2.1750498888    1.5790375463   -0.7110606972
 H    0.9457095294    3.9915303904   -1.4595751883
 H    0.3507952058    4.6440115284    1.2614116514
 H   -0.6737372007    3.1696702584    0.9281704267
 H    2.0095836728    2.4420812180    2.0004199088