13

 O   -0.7494980529    1.4740517488   -0.3058815226
 C    0.3299050776    1.1014897454    0.0665985110
 C    1.5861743194    1.9822121419    0.0963485553
 O    2.5986820454    1.5813488383    0.6188506537
 N    1.4643834603    3.1804950875   -0.5791697106
 C    0.4945669967    4.2274720764   -0.4079010305
 C    1.9735915585    4.4732646424   -0.1748197961
 C    2.4423158208    4.6775905183    1.1766001913
 N    2.8123637334    4.8792029939    2.2525694193
 H    0.5314837506    0.0869461749    0.4637084071
 H    0.0383391585    4.6122491418   -1.3147082178
 H   -0.1469018973    4.1953653057    0.4671626782
 H    2.5431733691    5.0040578547   -0.9322933383