20

 C    0.4376227119    1.4377692391    0.1790830987
 N    0.4243321783   -0.0058977535    0.0367657909
 C    0.0838822588   -0.6265455156   -1.1292437458
 O   -0.2281845996   -0.0228642284   -2.1410842848
 C    0.1371685122   -2.1579621002   -1.0960647345
 C   -1.2181936159   -2.7309233444   -1.5357166222
 C    1.2805812521   -2.6266211060   -2.0265709928
 C    1.5237721843   -4.1153673160   -1.9235796650
 O    1.5464052879   -4.8825102758   -2.8500784670
 H    0.1708250483    1.8599318400   -0.7903409664
 H   -0.2892182650    1.7727069219    0.9274655685
 H    1.4304302951    1.7995150033    0.4681120279
 H    0.6484575922   -0.5723627451    0.8373953046
 H    0.3610071105   -2.4976337192   -0.0754306207
 H   -1.1837921721   -3.8225336609   -1.6010232960
 H   -2.0086262413   -2.4567577010   -0.8305572766
 H   -1.4847297786   -2.3309182187   -2.5171233581
 H    1.0676673968   -2.3572114283   -3.0634650428
 H    2.2146792945   -2.1282127268   -1.7285225322
 H    1.6961936295   -4.4759568845   -0.8799558056