7

 O   -0.0038222182    0.0796485233   -0.3605398283
 C   -0.0136996141    1.1985352289    0.0492546676
 N   -1.2128911076    1.9060324606    0.3455054340
 N   -1.2496568436    3.1136395312    0.0868564251
 O   -0.0538794551    3.7209570096   -0.3872021317
 N    1.1700876223    3.1466734012    0.0549969071
 N    1.1731170764    1.9386043053    0.3140891662