14

 N    0.0879104220    1.2813308807    0.0068746151
 C   -0.0266510706    0.0183076981    0.0041367052
 N   -1.2377077106   -0.6601230108    0.0116972171
 C   -1.2705582102   -2.1153699279    0.0075253283
 C   -2.7387014792   -2.4260922947    0.0179110679
 C   -3.4507764287   -1.3003799450    0.0268132298
 C   -2.5470774160   -0.1165060791    0.0236315305
 O   -2.8480497697    1.0487475667    0.0293331490
 H    1.0752951078    1.5327028005   -0.0000254371
 H    0.8125666548   -0.6909828135   -0.0043548938
 H   -0.7751384157   -2.5294682956   -0.8821722164
 H   -0.7614722874   -2.5348540849    0.8869256637
 H   -3.1101097575   -3.4423086510    0.0176379186
 H   -4.5247642289   -1.1829486534    0.0353968520