17

 O   -0.2505281011   -0.0168784744   -0.0217893872
 C   -0.1833232648    1.1727497821    0.0523891710
 C   -1.1708977707    2.3082837856   -0.0983353422
 N   -0.9130117792    3.1881831402    1.0978170966
 C   -0.0329914278    3.2907794357   -0.0681922780
 C    1.0241206136    2.1812193423    0.1080566337
 C    1.9324429122    2.2126588859    1.3034019284
 C    3.1336876528    1.3435676563    1.3439166640
 N    3.2829188903    2.8033559799    1.2093610767
 H   -2.1256231215    2.3354680836   -0.6071256558
 H   -1.6032916016    3.9373622005    1.0449550773
 H    0.0640541278    4.2049542098   -0.6389462078
 H    1.5986870946    2.0277337910   -0.8153133814
 H    1.4261225340    2.4417354585    2.2361314721
 H    3.4730186455    0.9322679692    2.2898941847
 H    3.3346336495    0.7137202185    0.4808249201
 H    3.4906516561    3.0358379653    0.2401384880