16

 O    0.0207907013   -0.0676703663    0.0891463345
 C    0.0233216085    1.1362950679    0.0931385443
 C    1.2695652882    1.9882910444    0.0625751669
 C    1.2365723003    3.1076688825   -1.0471645081
 C    1.4258835787    4.3587849329   -0.1496488988
 N    2.4323022010    3.9474946295    0.8813979485
 C    1.4330521763    2.9216963678    1.3112261722
 C    0.4109600000    4.0369126934    0.9708793527
 O   -0.6098759468    4.4676261920    1.3998898024
 H   -0.9297311023    1.7138256501    0.1259947875
 H    2.1312022872    1.3232579887   -0.0329851551
 H    2.0499450966    2.9884923868   -1.7667624198
 H    0.2937830966    3.1268110791   -1.6043479627
 H    1.5273756472    5.3365927866   -0.6158005473
 H    3.2713412669    3.5341916800    0.4733152547
 H    1.5410987205    2.4641020847    2.2922884982