20

 C   -0.0249807146    1.5076116356   -0.3076307892
 C   -0.0145027847    0.0113950768   -0.0880630708
 C    1.1848070081   -0.7771976833   -0.4144562753
 O    0.8801435747   -0.4495853056    0.9421316311
 C   -1.3530348882   -0.6662830825   -0.0747894824
 C   -1.6923605275   -2.1520285446    0.1819341945
 N   -3.0902804477   -1.5426157929   -0.0369291344
 C   -2.5729491600   -0.3920232777    0.8438726157
 C   -2.4227184084   -0.7741365456   -1.1910086663
 H    0.9897729797    1.9093438636   -0.2581748920
 H   -0.4531668521    1.7558208610   -1.2846660109
 H   -0.6276802645    2.0051708553    0.4594643797
 H    1.0908848662   -1.8309197388   -0.6731068309
 H    2.0559259154   -0.2746712962   -0.8339334965
 H   -1.4182422359   -2.8856984647   -0.5816772030
 H   -1.5374158781   -2.5444542252    1.1893378792
 H   -2.4857571826   -0.6550300378    1.9010969789
 H   -3.1266130341    0.5410219018    0.7068785398
 H   -2.9636505119    0.1311238747   -1.4807764032
 H   -2.1974099940   -1.3998000240   -2.0594486841