25

 C   -0.0826041318    1.3866501801    0.0359826531
 O   -0.1091031704   -0.0163269131   -0.0446311209
 C    0.6810714142   -0.5211619493   -1.0998033776
 C    0.5913115526   -2.0408060408   -1.0975347785
 C    1.4189713471   -2.6875560403   -2.2139309470
 C    1.3303676623   -4.2078873878   -2.2238847819
 C   -0.0085484141   -4.8932469032   -2.6290096378
 C    0.8153648446   -5.9701137695   -3.3849145321
 C    2.0254180333   -4.9977080727   -3.3692187922
 H    0.9364157121    1.7688808609    0.2104334770
 H   -0.4692004636    1.8584808332   -0.8821308272
 H   -0.7169629089    1.6806017308    0.8761037878
 H    0.3321759832   -0.1163303462   -2.0667544243
 H    1.7307145596   -0.1978552014   -0.9802835298
 H    0.9263340077   -2.4082406779   -0.1197674516
 H   -0.4626312491   -2.3277163545   -1.1941419653
 H    1.0855777308   -2.3044379627   -3.1891396815
 H    2.4717422599   -2.3875750506   -2.1123385748
 H    1.6617866417   -4.6002305307   -1.2541904524
 H   -0.6791124101   -5.2255309275   -1.8327448696
 H   -0.5788075573   -4.2641636529   -3.3215980240
 H    0.9963671548   -6.8516092775   -2.7629329264
 H    0.4443371772   -6.3046862823   -4.3565467834
 H    2.0736724667   -4.4008372912   -4.2864914402
 H    3.0177616976   -5.4131013930   -3.1752380996