17

 O    0.0807727428   -0.0983062896    0.0368896452
 C    0.1228632544    1.1053419883    0.0791225144
 C    1.3873262458    1.9322083381    0.0426316328
 C    1.4171371701    2.8964155426   -1.1803779416
 C    2.2324932106    4.1309871497   -0.7244597627
 C    2.0070691856    4.1908381895    0.7735970917
 N    0.5872275655    4.0323849651    1.1515477458
 C    1.5066172306    2.8737327376    1.2382243293
 H   -0.8049130593    1.7164839260    0.1528282391
 H    2.2413199482    1.2473090975    0.0317714707
 H    1.8356788653    2.4123745344   -2.0651929160
 H    0.3962527374    3.2027538871   -1.4229111420
 H    3.3023348578    3.9899104991   -0.9179960583
 H    1.9182627340    5.0425014434   -1.2418925915
 H    2.6493178292    4.8019937104    1.3995747222
 H    0.4405611975    4.4109034986    2.0835401959
 H    1.7561198443    2.4699419224    2.2137836250