17

 O   -0.0037128946    1.3559150565   -0.6661936214
 C    0.0426912721    0.0632358439   -0.0633532961
 C   -1.3512088963   -0.5027731640    0.1491210235
 C   -2.2859901480    0.3384790008    1.0095150410
 O   -2.5665887251    1.6042676831    0.4544669551
 O   -1.9468770149   -1.0873429409   -1.0134448799
 C   -1.6132214611   -1.9649341507    0.0650592950
 C   -0.5384029350   -2.9733825255   -0.1973433079
 O   -0.3887398700   -3.9584471031    0.4784307318
 H   -0.3954747882    1.2503151222   -1.5416223486
 H    0.6544921808   -0.6196003784   -0.6633232224
 H    0.5379479316    0.2019605152    0.9028343416
 H   -3.2432650834   -0.1818112947    1.1084688388
 H   -1.8436702962    0.4181801212    2.0177973074
 H   -1.7179490708    2.0028220350    0.2188170719
 H   -2.4530824505   -2.3565777428    0.6386773275
 H    0.0999580396   -2.7545227681   -1.0800082274