18

 O    0.0391193757    0.0427243490    0.3396146948
 C    0.0137529208    1.1818295569   -0.0364225857
 C    1.2739213201    2.0515056207   -0.1320710971
 C    1.2019882569    2.9398636822   -1.2906119550
 N    1.1169428601    3.6484582406   -2.1998426940
 C    1.4227559715    2.8581550644    1.1799053124
 C    1.7150914859    2.0735137140    2.4881654560
 C    2.6931816519    3.2104682422    2.8927489379
 C    2.7311216900    3.6644647443    1.4075035990
 H   -0.9331943108    1.7024447250   -0.2931793411
 H    2.1307425545    1.3776532897   -0.2381262145
 H    0.5489435554    3.5067719420    1.3005617916
 H    0.8714612162    1.8586488833    3.1468148825
 H    2.2390900443    1.1355563256    2.2825745014
 H    2.2107643223    3.9538082055    3.5328105271
 H    3.6393807656    2.9184250831    3.3517650941
 H    3.5725838684    3.2175873951    0.8691282933
 H    2.7062278310    4.7334948165    1.1894864173