22

 C    1.0308373548    1.1554066249    0.6634758229
 C   -0.0451794144    0.3567302448   -0.0696754572
 N    0.5555044694   -0.4034229021   -1.1642130300
 C    1.0479265818   -1.7725774823   -0.9807159402
 C    0.8571015351   -2.5585537694    0.3154481454
 C   -0.4995015864   -3.2683583029    0.3526175927
 O   -1.5524197916   -2.3825641188    0.0127976199
 C   -1.5099580353   -2.0000759652   -1.3518294749
 C   -0.1599230609   -1.4829894790   -1.8215913292
 H    1.7576588298    0.4916426962    1.1437334597
 H    1.5762551929    1.7957834076   -0.0355555334
 H    0.5839452678    1.7837051395    1.4403610146
 H   -0.6127374750   -0.2642188943    0.6359400786
 H   -0.7651904174    1.0474571859   -0.5255247204
 H    1.9968484471   -1.9485965681   -1.4832239087
 H    1.6560759294   -3.3023051031    0.4032399816
 H    0.9490149976   -1.8995658593    1.1862644165
 H   -0.4951679894   -4.1290225541   -0.3372241113
 H   -0.7256236773   -3.6418619832    1.3556054595
 H   -1.7816110464   -2.8580069531   -1.9914968381
 H   -2.2884849981   -1.2389042778   -1.4736792827
 H   -0.0679743936   -1.4854098260   -2.9082466652