17

 C   -0.0659140052    1.4564829127    0.0751218409
 C    0.0380239016   -0.0384482811   -0.0199876703
 C    0.7287352661   -0.6842025329   -1.2452795551
 C    1.0426312415   -2.1019409882   -0.6861044920
 C    0.4340701137   -1.9772686582    0.7365754934
 O    0.7177821203   -0.6144064338    1.0790533860
 C   -1.0843775936   -1.9040158201    0.5442954626
 O   -1.9412385010   -2.7196615697    0.7060259800
 O   -1.2922252672   -0.6431219744    0.0617928705
 H    0.9353358866    1.8937399772    0.0924867708
 H   -0.6107307889    1.8518914850   -0.7852770962
 H   -0.5943137880    1.7354719087    0.9889966075
 H    0.0659090862   -0.6931252476   -2.1118597322
 H    1.6361845891   -0.1341017200   -1.5024343010
 H    0.5947497626   -2.9130230738   -1.2635750851
 H    2.1169505705   -2.2795333326   -0.6122939139
 H    0.7766133159   -2.6693204010    1.5003138442