18

 C    0.0204501667    1.4000229274   -0.0027360581
 O    0.0078402708   -0.0097546231    0.0228940019
 C    0.6336203720   -0.5726897354   -1.0852766575
 C    0.5670888421   -2.0941769754   -0.9646240941
 O    0.0425063313   -2.6521477546   -0.0332601214
 N    1.1661897727   -2.7968845922   -2.0264820320
 C    1.8070404884   -2.1412690240   -3.1645706713
 C    1.1508341861   -4.1942326434   -1.9973650403
 O    1.6373769865   -4.8849907110   -2.8596528326
 H    1.0466939746    1.7997571643   -0.0065425008
 H   -0.5077977180    1.7977046448   -0.8835197167
 H   -0.4895577537    1.7404811179    0.9004964087
 H    0.1517892223   -0.2618515783   -2.0299667443
 H    1.6909128328   -0.2603605857   -1.1615708120
 H    2.6492337192   -1.5209529247   -2.8454860640
 H    2.1754452058   -2.9338522067   -3.8153060576
 H    1.0967495536   -1.5236142234   -3.7212726812
 H    0.6461216969   -4.5750701665   -1.1013700367