17

 N   -0.0844533384   -1.1579831092   -0.1333721297
 C   -0.0654849360   -0.0069837211   -0.0281570861
 C   -0.0103332150    1.4461429083    0.1054102686
 C    1.4316837316    2.0031282533    0.0081667772
 C    2.1067394355    1.7157474795   -1.3237590578
 C    2.5184681786    2.8269791235   -1.9362048947
 C    2.1480378949    4.0350216400   -1.1403996276
 N    0.6699033036    4.1830847470   -0.9921553534
 C    1.4585589976    3.5325636674    0.0762551948
 H   -0.6175777206    1.9098316091   -0.6779492057
 H   -0.4535777682    1.7214122408    1.0691851370
 H    2.0169755778    1.5790288875    0.8344477092
 H    2.1909676586    0.7075665403   -1.7126297800
 H    3.0206348370    2.8741350029   -2.8946365304
 H    2.7608102326    4.9297274229   -1.1407731037
 H    0.4627245375    5.1370327669   -0.7007032652
 H    1.5449372428    4.0256155808    1.0384157775