20

 O    0.4311200703    0.7878293780    0.9116532592
 C    0.0353223618   -0.2484372748    0.0090318811
 C   -1.4767041610   -0.2323094534   -0.0703849484
 C   -2.2262091052    0.9764353805   -0.5775457125
 C   -2.1645698334   -0.2745847418   -1.4153200514
 C   -1.3436025271   -0.4105394025   -2.6909230490
 N    0.1054363606   -0.2065126411   -2.6244030451
 C    0.6635122670    1.0673660570   -2.1896043801
 C    0.7745074852   -0.1427617412   -1.3239339681
 H    1.3923713203    0.7712000454    0.9741589810
 H    0.3163509933   -1.2235711931    0.4377375030
 H   -1.9491587559   -0.7712856039    0.7442927765
 H   -3.1694632279    1.2087720281   -0.0947465031
 H   -1.6639588500    1.8539302954   -0.8663381123
 H   -3.0854177005   -0.8505010277   -1.4573644155
 H   -1.4865922674   -1.4334064768   -3.0623933542
 H   -1.7320151720    0.2573813113   -3.4689555339
 H    1.5264034567    1.4069119638   -2.7587668125
 H    0.0076669417    1.8671413226   -1.8635980202
 H    1.7334826936   -0.6624483257   -1.3158723445