21

 O    0.0709906671    1.3980211166    0.0085489171
 C    0.0639686440   -0.0204282501    0.0013593116
 C   -1.3876758109   -0.4796582092    0.0124574038
 C   -1.5169960840   -2.0011647024    0.0059816327
 C   -2.9591316389   -2.4942335575    0.0170835109
 O   -3.8991689135   -1.7307371518    0.0303546682
 C   -3.1528920415   -4.0020889848    0.0104705754
 C   -4.6151575498   -4.4217554227    0.0224623031
 O   -4.6429063854   -5.8420212218    0.0147073769
 H    0.9853075453    1.6954244115    0.0011414383
 H    0.5752040143   -0.4175294180   -0.8920324875
 H    0.5916134862   -0.4265929111    0.8810359548
 H   -1.8878949941   -0.0665225768    0.8938177113
 H   -1.9040525860   -0.0576801623   -0.8552958898
 H   -1.0201257433   -2.4384100581   -0.8722480997
 H   -1.0038499605   -2.4471533307    0.8703581791
 H   -2.6502039240   -4.4248004957   -0.8694111012
 H   -2.6330403478   -4.4346780661    0.8754513083
 H   -5.1097996702   -4.0087717911    0.9128949559
 H   -5.1271434187   -3.9987831574   -0.8533555115
 H   -5.5629045785   -6.1213060206    0.0220710823