14

 O   -0.0007943973   -0.0605513478    0.2021684769
 C   -0.0049518347    1.1242929050    0.1279366398
 C   -1.0667018126    2.2573590981    0.0163419354
 C   -0.6834930733    3.0391574264    1.2803054438
 O    0.7735732235    3.0335830017    1.1765492894
 C    1.0105774441    2.2888338130   -0.0138294509
 C   -0.0493989136    2.9080539794   -1.0037984535
 C   -0.0700464892    2.3599753573   -2.3449043184
 N   -0.0763710385    1.9263293870   -3.4165698084
 H   -2.1148053607    2.0891373076   -0.2130329454
 H   -1.0409205395    4.0737665457    1.2896332843
 H   -0.9969445481    2.5372864541    2.2013413173
 H    2.0707383847    2.2022536247   -0.2315694809
 H   -0.0379761948    3.9999713277   -1.0171603494