16

 O   -0.3708665267    0.7028895391   -0.8284904905
 C    0.2367369452    0.9800404342    0.1736927075
 C    1.4699493277    1.8172678360    0.1896770789
 C    1.6007088022    2.8474088016    1.2641523259
 N    2.3554849602    1.5496068615    1.3505121074
 C    3.6360183879    2.3033430517    1.0646403980
 C    2.8710180023    3.6324207359    1.0301207893
 C    3.1107645964    4.9320021853    0.4036343165
 O    3.2409837224    4.7350147105    1.8238866570
 H   -0.0827557297    0.6302791000    1.1797054542
 H    1.9046547776    2.0128318162   -0.7882874272
 H    0.7977050505    3.1077629272    1.9460930097
 H    4.3008059334    2.2412599576    1.9286498678
 H    4.1581437289    1.9697325787    0.1633416490
 H    4.0446212756    5.1132871037   -0.1259533470
 H    2.2683108962    5.5482116009    0.0937951335