18

 O   -0.0339637984    1.3889076626   -0.0714441375
 C   -0.0071160247    0.0120022678    0.0355594135
 C    0.2301272113   -0.6692120511    1.4231884319
 C   -0.6174962806   -1.8505989487    0.8603136123
 C   -1.3271147738   -0.8216183223   -0.0531694893
 N    0.1643240013   -2.7857415861    0.0484990337
 C    0.9927787836   -2.1350345103   -0.9797458074
 C    0.9679085536   -0.6078586364   -0.9445116334
 O    1.6431016714    0.0831382801   -1.6754824868
 H    0.6187013578    1.6120353087   -0.7559838078
 H    1.2557661149   -0.8700519673    1.7467467130
 H   -0.2988960948   -0.1042944808    2.1951504651
 H   -1.2297003959   -2.4183518374    1.5620850463
 H   -2.1236127042   -0.2949261715    0.4759366791
 H   -1.6834542620   -1.1551526720   -1.0308824789
 H    0.7549896615   -3.3362331275    0.6603757515
 H    2.0387189917   -2.4542234594   -0.9199135460
 H    0.6547359972   -2.4176539783   -1.9876568793