16

 O   -0.0570579986    1.3976338343   -0.0584254459
 C   -0.0081922373   -0.0212815026   -0.0050501093
 C    0.1885891805   -0.5378375600    1.4600358716
 C   -1.3634837461   -0.5321805117    1.6208830267
 C   -1.4797058896   -0.5198446274    0.0646686693
 C   -1.9758835802   -1.6316263380    2.3439229650
 N   -2.4546842906   -2.5191606821    2.9097782251
 C    0.8673519717   -0.5754094328   -1.0266357158
 C    1.6158010146   -1.0232273484   -1.8544126073
 H    0.8499554059    1.7241377304   -0.0543546122
 H    0.5947941523   -1.5500927787    1.4858353588
 H    0.7604916760    0.1141949059    2.1221953832
 H   -1.7068222676    0.4151584872    2.0404742337
 H   -2.2142376756    0.1534623858   -0.3769336798
 H   -1.5877357326   -1.5248836867   -0.3432186022
 H    2.2680576173   -1.4213593450   -2.5926257308