21

 C    0.2927714423    0.8751620673   -0.7301783841
 O   -0.1530105217    0.1688590719    0.4098531129
 C   -1.3803207552   -0.4602597215    0.2162238578
 C   -1.4224805218   -1.8037896247   -0.4751819522
 C   -1.6457869015   -1.6966076773    1.0199585157
 C   -0.5921189432   -2.2188153115    1.9877810461
 C   -0.6926243718   -3.6584724531    2.2145383357
 C   -0.7920867422   -4.8449627728    2.3942007911
 C   -0.9033090563   -6.2800850911    2.6152026711
 H    1.2539453262    1.3270136691   -0.4741375384
 H    0.4239883141    0.2088798809   -1.5946962871
 H   -0.4116025475    1.6724802511   -1.0121361446
 H   -2.2088671822    0.2295178100    0.0442631757
 H   -2.2596202604   -2.0431126915   -1.1216448692
 H   -0.4698786641   -2.2149434792   -0.7937097957
 H   -2.6671843201   -1.8286786974    1.3643135160
 H    0.4011467353   -1.9616492695    1.6047562377
 H   -0.6869058799   -1.6875434715    2.9443506871
 H    0.0418827945   -6.7922215190    2.4023248787
 H   -1.1737326910   -6.5059432043    3.6529046937
 H   -1.6704340235   -6.7247546959    1.9711573020