21

 O   -0.2097401693    1.3241348318   -0.1455131176
 C   -0.0433505751   -0.0899022158   -0.0251748343
 C    0.1206054036   -0.4403607736    1.4913168334
 C   -1.4553419945   -0.4736645097    1.5698898332
 C   -1.4248447710   -0.7475348640    0.0501310188
 C   -2.0059901581   -0.4313711714   -1.3524668951
 C   -0.8269849097   -1.3943251797   -1.7873973792
 C   -1.1439275027   -2.1773587113   -0.4902542262
 C    0.4993547038   -0.6988267308   -1.3485169468
 H    0.6513645282    1.7276624311    0.0042748180
 H    0.5660921348   -1.4198733070    1.6752970999
 H    0.6343191989    0.3089709734    2.0987990761
 H   -1.9181504091   -1.2310548922    2.2065211678
 H   -1.8526639882    0.5106926459    1.8217367710
 H   -2.9762981411   -0.8868032704   -1.5650229894
 H   -1.9819924436    0.6098959400   -1.6749554786
 H   -0.8392548181   -1.8762127223   -2.7656465910
 H   -0.3443375577   -2.7745057453   -0.0411023714
 H   -2.0617659604   -2.7681876310   -0.5513299352
 H    0.8347424574    0.0900641695   -2.0263300157
 H    1.3058443718   -1.4298998171   -1.2332146276