13

 C    0.1151328311    1.4852532088    0.0090408054
 N   -0.0885634310    0.0502436461    0.0029975373
 C   -1.2277043568   -0.5905023267    0.0105895602
 N   -2.4360134482   -0.0769730836    0.0252700392
 H   -3.1471371360   -0.8094864898    0.0281617335
 H   -2.6676353094    0.9026383014    0.0329596560
 C   -1.1394713450   -2.1693967819    0.0009482898
 O    0.0331932678   -2.5650073880   -0.0125929781
 O   -2.2573810590   -2.6969733340    0.0092315333
 H    1.1852554238    1.6932935922   -0.0002988996
 H   -0.3343525498    1.9507705303   -0.8757134640
 H   -0.3168514032    1.9407769740    0.9076071366
 H    0.6764265456   -0.6315314488   -0.0082365295