20

 C    0.4090214503    1.3971718624   -0.2698350030
 C    0.1275178792   -0.0498605657    0.0826167155
 O    0.8998916033   -0.9855809757   -0.7162953759
 C    1.4469539459   -1.6473200137    0.4617696764
 C    2.9647947840   -1.6355113750    0.3995816574
 O    3.4137708968   -2.2630531492   -0.7853031775
 C    0.7267277730   -0.6476678267    1.3595593347
 C    1.1487959420    0.0325803958    2.6019312272
 N    0.0624720408   -0.9707160678    2.6089634307
 H    1.4700265950    1.6313726201   -0.1468935146
 H    0.1277802662    1.5934134415   -1.3092520821
 H   -0.1755567259    2.0692770327    0.3684941184
 H   -0.9469054202   -0.2655813493   -0.0206540527
 H    1.0705547746   -2.6747362739    0.5411767199
 H    3.3250493977   -0.5962034562    0.4688768714
 H    3.3851234771   -2.1956667739    1.2422805375
 H    2.9294898461   -1.8411404564   -1.5058328626
 H    2.0539695921   -0.2728684848    3.1197321951
 H    0.8954560501    1.0835402271    2.7192619983
 H   -0.8451124782   -0.5125887412    2.6598894759