21

 C    0.0432999227    1.5483768322    0.0863255913
 C    0.0715597666    0.0332355578   -0.1487021066
 C   -1.3157412501   -0.5950406797   -0.0232243852
 C   -1.5104909851   -2.1220580962   -0.0891635950
 C   -0.8675756816   -2.7800241633    1.0827931517
 C   -2.2382990646   -2.1404123731    1.2859351025
 C   -3.4311048158   -2.8958032526    1.7974980714
 C   -2.0459906307   -0.6516269558    1.3497204874
 O   -2.4640539735    0.1980690080    2.0890273758
 H    1.0491606619    1.9749900001    0.0278083904
 H   -0.5770724215    2.0511316742   -0.6639230432
 H   -0.3751912468    1.7834981449    1.0689934286
 H    0.4721190840   -0.1839851525   -1.1474113499
 H    0.7599749196   -0.4357294998    0.5639444459
 H   -2.0064186828   -0.0930728777   -0.7150216444
 H   -1.8062527594   -2.6699881123   -0.9749995727
 H   -0.8972656651   -3.8655398498    1.0985108915
 H    0.0205520367   -2.3619986345    1.5471156517
 H   -3.4379605740   -3.9238030444    1.4216399661
 H   -3.4229975254   -2.9407417938    2.8918251604
 H   -4.3660663852   -2.4142502919    1.4935622623