20

 C   -0.2087645587    1.3662107256   -0.0646725431
 N    0.0321839602   -0.0648903302    0.0562902059
 C    1.4241385667   -0.5079853021   -0.0994803051
 C    0.7610816263   -0.5321754217    1.2232430938
 C    1.2267126664    0.2100253254    2.5027879981
 C    0.8998931725   -1.0656685571    3.2971387983
 C   -0.5654949918   -1.4032831585    3.1320606577
 C    0.3988992249   -1.7577571613    2.0326066396
 O    0.6254189118   -3.0566977068    1.6192086907
 H    0.6044134601    1.9912081602    0.3399039616
 H   -0.3381390550    1.6207042177   -1.1216227090
 H   -1.1330172820    1.6267311581    0.4615117512
 H    1.5685501581   -1.4301312246   -0.6561683621
 H    2.1878649976    0.2528408311   -0.2620274376
 H    2.2890050469    0.4643968214    2.4887606803
 H    0.6520710111    1.0974404146    2.7887947514
 H    1.4945048629   -1.4737022236    4.1037079697
 H   -0.8982973301   -2.2581716055    3.7127944233
 H   -1.3087426260   -0.6186290514    3.0076464212
 H   -0.1794539220   -3.3803951613    1.1998831240