19

 C   -0.0367683643    1.5596974566   -0.0312216466
 C    0.0100133049    0.0662428938    0.2754168874
 O    0.5570666028   -0.1824280130    1.5815987118
 C   -1.3494877570   -0.5885426971    0.1222087037
 N   -1.6569601154   -1.1241900314   -1.2118229960
 C   -1.5461956481   -2.0508436393   -0.0789649680
 C   -0.4660442779   -3.1221134737   -0.1566234149
 N    0.5231455509   -3.0114791518    0.7698568269
 O   -0.5544377850   -4.0374019308   -0.9506915538
 H    0.9542402928    2.0056228853    0.0848878458
 H   -0.3800242216    1.7244114489   -1.0568678510
 H   -0.7288013659    2.0781817604    0.6444372560
 H    0.7027872606   -0.4263091116   -0.4119894016
 H   -0.0386374490    0.2010566049    2.2352004564
 H   -2.1498443336   -0.0724811996    0.6577663207
 H   -2.6299526128   -0.9730975095   -1.4610414600
 H   -2.4755500956   -2.4639245178    0.3114300499
 H    0.6321049857   -2.1744743052    1.3292187953
 H    1.2680533284   -3.6892309393    0.7353217080