17

 C   -0.1798416234    1.5474283033    0.0295646685
 C    0.1518482821    0.0647689457    0.0332376827
 N    1.3661585496   -0.3510470474   -0.7654211523
 C    1.8066362346   -1.2188660722    0.3558979856
 C    2.2343054397   -2.5633797547    0.1799830733
 N    2.5781650931   -3.6590675559    0.0282731434
 C    2.2199577490   -0.2706685710    1.4506261521
 O    2.8150711803    0.9362190451    1.1339934527
 C    0.7478988047   -0.5842703154    1.2909857473
 H    0.6586324541    2.1408194254    0.3984320233
 H   -0.4357307340    1.8826851429   -0.9809063845
 H   -1.0446019605    1.7377052205    0.6741482504
 H   -0.7189557479   -0.5193893578   -0.2862451489
 H    1.1280189152   -0.8779153940   -1.5981953790
 H    2.6714280776   -0.7375355237    2.3207485465
 H    2.7091277167    1.0333827038    0.1730378987
 H    0.1762353691   -1.0549327148    2.0806690502