21

 C    0.0851148065    1.5804714005   -0.0593755862
 C    0.0006251793    0.0510222656   -0.0052283872
 C    0.6507956861   -0.5338326977    1.2335478380
 C    2.1994239750   -0.5155224934    1.3336869795
 O    2.2438097800   -1.9418828813    1.5591574746
 C    0.8107806754   -2.0705789544    1.4125393613
 C    0.1001179938   -2.3878745311    2.7223681534
 C    0.1185438910   -1.0241680834    3.4306344679
 O   -0.0201994633   -0.0571658440    2.3898385372
 H    1.1264160312    1.9213165573   -0.0742877416
 H   -0.4030571273    1.9672751681   -0.9585986648
 H   -0.3999758812    2.0235108381    0.8138605834
 H   -1.0494520965   -0.2647778896   -0.0227296645
 H    0.4805678887   -0.3859211639   -0.8889171979
 H    2.7249017781   -0.2323375063    0.4129451418
 H    2.6057183623    0.0556918260    2.1763901324
 H    0.5443855113   -2.7278418969    0.5787323146
 H   -0.9281864439   -2.7045251126    2.5170704749
 H    0.6062370186   -3.1756107794    3.2853471218
 H   -0.7033102779   -0.8740207185    4.1347300309
 H    1.0669212828   -0.8832598131    3.9686185904