13

 C    0.0819179451    1.3964376149    0.0473640449
 N    0.0264329754   -0.0514339564    0.0461113690
 C   -1.1219974530   -0.6063690170   -0.0459590382
 N   -2.3583277289   -0.0471781627   -0.1750839655
 C   -1.1421234013   -2.1043728516   -0.0406362823
 O   -2.1633497775   -2.7504995358   -0.0775676478
 C    0.1717204751   -2.7615900608    0.0224715384
 N    1.1455833188   -3.3827314824    0.0676955538
 H    1.1219475175    1.7231241221    0.0993886355
 H   -0.3697283828    1.8228026166   -0.8616164761
 H   -0.4499561834    1.8259071428    0.9115723648
 H   -2.4984898143    0.9234611905    0.0440702846
 H   -3.1480879308   -0.6683676803   -0.0886119911