17

 C   -0.1263002703    1.5109189440    0.0585176385
 C   -0.0860959142   -0.0162491887    0.1535610834
 C    1.0780120553   -0.5136356102    1.0157406313
 N    1.1324254689   -1.9633593567    1.0994821614
 C    1.2228083298   -2.6127669247    2.3087774969
 N    1.4190117235   -3.9885096643    2.1913150916
 O    1.1633913955   -2.0528303032    3.3879680569
 H    0.7955395851    1.9068522605   -0.3822187600
 H   -0.9621995152    1.8482144375   -0.5612401935
 H   -0.2400137310    1.9652448472    1.0487064950
 H   -1.0235483381   -0.3961219477    0.5760797441
 H   -0.0045183304   -0.4467381210   -0.8538618017
 H    2.0261888765   -0.1168618622    0.6236774195
 H    0.9798658035   -0.1561258513    2.0435117942
 H    1.4200503590   -2.4660393468    0.2752274768
 H    0.9926115694   -4.4491771872    1.4004765915
 H    1.2563504528   -4.4642489851    3.0663213241