16

 C    0.0194006835    1.4570161180    0.1858993125
 C   -0.0494591331   -0.0185551513    0.0268767729
 N   -1.0683202668   -0.8057920883    0.2040492639
 C   -0.5361007957   -2.0439665819   -0.0881065703
 N    0.7315274293   -2.0246007206   -0.4132656452
 O    1.0634260050   -0.6660116068   -0.3454257595
 C   -1.3253589794   -3.2881730506   -0.0378384584
 C   -1.3295503006   -4.1973289161   -1.2254413558
 N   -0.6365944305   -4.5865846748    0.0022855762
 H    0.7681255359    1.7288632222    0.9358780231
 H    0.3064279861    1.9331001916   -0.7564840551
 H   -0.9562486379    1.8295831322    0.4965635613
 H   -2.2174422275   -3.2137591683    0.5755947868
 H   -2.2267431052   -4.7662995716   -1.4520367089
 H   -0.7421060784   -3.8868347133   -2.0846060726
 H    0.3641365155   -4.4292092503   -0.1007675808