13

 O    0.0134988360   -0.0635310010    0.0026527310
 C   -0.0339949414    1.1529066849    0.0065814935
 C    1.1824796245    1.9558352862    0.0000841781
 C    2.1942851233    2.6075675947   -0.0052839548
 C   -1.2972307813    1.8965825748    0.0170808982
 C   -1.4737663713    3.2536353181    0.0218897669
 O   -2.7838748961    3.5601385145    0.0315816475
 C   -3.4740093016    2.3758465125    0.0330732038
 C   -2.6195371530    1.3279980486    0.0244608492
 H    3.0981836207    3.1672381339   -0.0097079915
 H   -0.7843444088    4.0814597518    0.0194511661
 H   -4.5469452601    2.4685239573    0.0405837138
 H   -2.8589324708    0.2775369637    0.0232521683