19

 C    0.7417959321    1.4680229210   -0.3412085771
 C    0.1436106844    0.0994445155    0.0084081590
 C    0.2545709918   -0.9532049712   -1.1293382948
 C    1.3208427998   -1.9399047308   -0.6837237318
 C    2.6332125714   -1.4184111041   -0.2282885300
 N    1.6049741903   -1.7919592086    0.7593535301
 C    0.7875369848   -0.6547034702    1.2353476273
 C    1.5516219759    0.2102824970    2.1372669894
 N    2.1438153875    0.9082509250    2.8426110993
 H    1.7879133080    1.4087724257   -0.6539628334
 H    0.1773981164    1.9143677166   -1.1661728607
 H    0.6915366193    2.1521684512    0.5100337476
 H   -0.9104335962    0.2645052151    0.2488546311
 H   -0.6938342019   -1.4839548748   -1.2597195771
 H    0.4941328189   -0.4833123361   -2.0883292917
 H    1.2507418584   -2.9616823350   -1.0456225033
 H    3.5020938884   -2.0691790380   -0.2238452318
 H    2.8626406525   -0.3682363759   -0.3744807772
 H   -0.0206974320   -1.0981477721    1.8281742052