15

 C   -2.0625762516    0.3716276879   -1.3284525160
 N   -1.1532915791   -0.6859660811   -0.9221765664
 C    0.0917155286   -0.5746950361   -1.0769446089
 C    1.0146184030   -1.6903471542   -0.6329725724
 O    1.7649633269   -1.3529403126    0.5297481704
 O    0.6488556468    0.5403066995   -1.6968817045
 C    1.9441223017    0.9372065146   -1.4817136722
 O    2.4191886840    1.8194853084   -2.1259435329
 H   -2.7244126685    0.5990086842   -0.4862905616
 H   -1.5731418956    1.2895976944   -1.6663643050
 H   -2.6994274347   -0.0096750063   -2.1344288731
 H    0.3900532927   -2.5742122960   -0.4725496029
 H    1.7504597515   -1.9148610314   -1.4118057065
 H    1.1381986479   -1.2229433133    1.2504344326
 H    2.4393041464    0.3876880922   -0.6700201706