15

 C    0.1812230438    1.4331944022    0.0740609805
 C   -0.0561329729   -0.0262834846   -0.0201650844
 C   -1.1226205125   -0.8225627371   -0.2534283678
 N   -0.7366765440   -2.1666565633   -0.2224967726
 C    0.5267632568   -2.0966578479    0.0248380756
 O    1.4334960908   -3.0711194902    0.1689295029
 C    0.9939332641   -4.3683548276    0.0349389545
 N    1.8400077474   -5.2856313618    0.1724456019
 O    1.0362729752   -0.8649344342    0.1641540883
 H    0.9049707878    1.7737734095   -0.6748155177
 H   -0.7582185696    1.9655246301   -0.0914250962
 H    0.5671562048    1.7168796242    1.0595342566
 H   -2.1450133758   -0.5366576963   -0.4424369886
 H   -0.0732921676   -4.4310353244   -0.1816516965
 H    1.3903285218   -6.1911211986    0.0496618836