16

 C    0.0785973099    1.3432562697    0.0080441601
 O    0.0096698229   -0.0629299815    0.0015650384
 C   -1.3164401523   -0.5430220094    0.0112651016
 C   -1.2529836156   -2.0634971736    0.0030004055
 C   -2.6215871682   -2.7120364301    0.0123368293
 O   -3.6570204485   -2.0804441684    0.0257104691
 C   -2.6204135217   -4.1670755801    0.0042686128
 C   -2.6000244663   -5.3705219484   -0.0024237312
 H    1.1359010603    1.6187350759   -0.0002197388
 H   -0.4103871751    1.7806206300   -0.8767812615
 H   -0.3941038445    1.7716114306    0.9060275528
 H   -1.8590562400   -0.1885817948    0.9015920280
 H   -1.8752050688   -0.1796406277   -0.8653739953
 H   -0.7012890928   -2.4195602378   -0.8764441425
 H   -0.6853789053   -2.4283083662    0.8686460191
 H   -2.6007015639   -6.4336582983   -0.0073553174