16

 C   -0.0205299281    1.5005906448    0.1267935509
 C    0.0166615988    0.0176815372   -0.0124747240
 C    0.0519326024   -0.7704650290   -1.1499950499
 O    0.0584749559   -0.2460578753   -2.4123603868
 C    0.0777831417   -2.1292730229   -0.7626339591
 C    0.0578194897   -2.1563404856    0.6274142735
 N    0.0208071865   -0.8472141230    1.0556138908
 C    0.0697687567   -3.2357473128    1.5280419861
 C    0.0795047401   -4.1507330918    2.3143002078
 H    0.8428606154    1.8885428059    0.6821005907
 H   -0.0080024054    1.9532962437   -0.8668291349
 H   -0.9253562590    1.8484428046    0.6412995841
 H    0.0857102695   -0.9696190537   -3.0443106690
 H    0.1075712231   -2.9964006657   -1.4044263292
 H    0.0002085452   -0.5746764755    2.0230088674
 H    0.0883720875   -4.9628606809    2.9975767017