21

 C   -0.0442116900    1.5475940758    0.0119952978
 C    1.3999585122    2.1278930664    0.0011693311
 C    2.4277168305    0.9816116836   -0.0389797753
 C    2.2326170012    0.0820765875    1.2089236108
 C    0.7857104057   -0.4994655737    1.2196130949
 C    0.0064341729    0.0087092605   -0.0209403963
 C    0.7992334584   -0.4544115879   -1.2420035096
 O    1.1839555036    0.5372776982   -2.2046141073
 C    2.1601626224    0.0924010878   -1.2521384087
 H   -0.5859897890    1.8605837421    0.9110196146
 H   -0.6057431849    1.9158349877   -0.8490532256
 H    1.5394771159    2.7777096176   -0.8651984113
 H    1.5860850478    2.7334429420    0.8946945151
 H    3.4456330481    1.3827224523   -0.0591514491
 H    2.9721135477   -0.7256661515    1.2030432629
 H    2.4244668903    0.6702174017    2.1123698425
 H    0.8108597763   -1.5943248968    1.2186733976
 H    0.2518368564   -0.2033267588    2.1285693514
 H   -1.0061702812   -0.4060936941   -0.0259846760
 H    0.5797849460   -1.4341423617   -1.6623884680
 H    2.9910287998   -0.4653050186   -1.6803575714