17

 C   -0.0225655608    1.4865829963    0.0096371288
 O    1.2319307488    0.7643424219   -0.0070544699
 C    0.0504737067    0.0349089353    0.0018312149
 C   -0.5161918359   -0.9739062196    1.0150487394
 N   -1.6541392892   -1.0681808619    0.0144014284
 C   -0.5374716215   -0.9640893893   -1.0089871627
 C    0.2876367409   -2.2489267885   -0.7539043219
 N    1.5577958544   -2.0322018648   -0.0240475379
 C    0.3032464015   -2.2561225837    0.7302269397
 H   -0.2402987749    2.0168406956    0.9350461259
 H   -0.2596554318    2.0257643757   -0.9058051749
 H   -0.7668558826   -0.7209717285    2.0443812922
 H   -2.0575681085   -2.0070979097    0.0140888848
 H   -0.8096957156   -0.7012060130   -2.0303196992
 H    0.1478566400   -3.1341422717   -1.3640123376
 H    2.0948091571   -2.8985991579   -0.0338989754
 H    0.1762386916   -3.1472258063    1.3345289453