17

 O    0.0073195854    1.4476283116   -0.0150409866
 C   -0.0096633799    0.0579778900   -0.0741154912
 C    0.2870471189   -0.7115108162   -1.3643538005
 C   -0.5914281714   -1.8646496753   -0.7749456877
 C    0.3143733890   -2.7278780573    0.0576134950
 C    0.9192088394   -2.0877449719    1.0634475670
 C    0.3760017681   -0.7041753994    1.2814676614
 O   -1.0644192953   -0.8944268060    1.5561879062
 C   -1.2941856781   -0.7396608413    0.1701057492
 H    0.9180312396    1.7481719160   -0.1109473241
 H   -0.2097028473   -0.2074467338   -2.1991445459
 H    1.3179851924   -0.9595548783   -1.6286923865
 H   -1.2357205645   -2.4054466331   -1.4660181688
 H    0.4672049635   -3.7755128462   -0.1780658721
 H    1.6295439517   -2.5366498076    1.7474874746
 H    0.8553360433   -0.1008633867    2.0536575708
 H   -2.3131466347   -0.4510703644   -0.0913384306