17

 C   -0.1331763969    1.5026717313   -0.0926204605
 C    1.4210165783    1.7311595454    0.1161754074
 C    2.1595884859    1.7090281793    1.4986059230
 N    3.0261715906    0.4648080220    1.4849335090
 C    2.2320833080   -0.4284387717    0.6962303970
 C    1.3729251882   -1.4754041572    1.0067562662
 C    0.0967475901   -1.1916521580    0.3969915052
 C    0.2282414332    0.0024884181   -0.2977999640
 N    1.5777168102    0.3194606808   -0.2501370553
 H   -0.7486575455    1.6713307033    0.7938511075
 H   -0.5558652561    2.0504310711   -0.9376886859
 H    1.8792050437    2.4351000320   -0.5854933317
 H    2.7705424712    2.5961470683    1.6833460444
 H    1.4448810183    1.6048693220    2.3211316244
 H    3.9235550127    0.6764934232    1.0575345155
 H    1.5836994585   -2.3107857268    1.6588605622
 H   -0.8035055104   -1.7675373931    0.5595004057