17

 C   -0.2421513522    1.5505377219   -0.0906568197
 C   -0.0024350595    0.0476287158   -0.0339649074
 C    1.2645392419   -0.4900644090   -0.7385204123
 O    1.7955352268   -1.0051007140    0.5017269158
 C    0.6339641159   -0.5859001340    1.2371508091
 C    0.9951348777    0.3309303330    2.4133067099
 C    1.7057428488   -0.3870949489    3.4690215299
 N    2.2552710879   -0.9617030050    4.3071724432
 H    0.6572772597    2.1210179491    0.1623369854
 H   -0.5405906618    1.8458877888   -1.1018443940
 H   -1.0432952599    1.8586275133    0.5894575153
 H   -0.9118146891   -0.4798535507   -0.3320898145
 H    1.1011587624   -1.2858507195   -1.4745441405
 H    1.9211171213    0.2719029093   -1.1776329010
 H    0.0783328745   -1.4508908198    1.6221035854
 H    1.6212159047    1.1584582238    2.0667009089
 H    0.0805280908    0.7612521059    2.8385416465