15

 C   -0.1196943925    1.3985759310   -0.0247394983
 O   -0.1330411862   -0.0303768529   -0.1710941017
 C    0.6989020367   -0.5216742439   -1.0908653453
 O    1.4495692748    0.1336942495   -1.7672886805
 C    0.6236927165   -2.0365585108   -1.1322874111
 C    1.6560542866   -2.7455969355   -1.9190226343
 O    1.7449475144   -2.6823081333   -0.5052743497
 C   -0.6843566468   -2.7473734825   -0.9368515315
 O   -1.7641815460   -2.2646897621   -1.1453341379
 H    0.8724217236    1.7403917715    0.2793507384
 H   -0.3889342078    1.8789725772   -0.9681114674
 H   -0.8577507466    1.6210478165    0.7447005784
 H    1.4286625176   -3.7273212660   -2.3315035342
 H    2.3618207280   -2.1289071478   -2.4692099598
 H   -0.5437598721   -3.7993207311   -0.6021173151