18

 C    1.1517313341    0.4665456017   -0.3109913803
 N    0.6816328203   -0.7061562344    0.3975275943
 C   -0.0134221401   -0.6240495552    1.5601077745
 O   -0.3510378870    0.4174931068    2.0990490863
 C   -0.3639896892   -1.9958147634    2.1708234948
 N    0.7832942459   -2.7505327878    2.6576781075
 C    1.5704289828   -3.4714747993    1.7976721385
 N    2.6603607835   -4.0827645218    2.3901013786
 O    1.3459371500   -3.5566756344    0.5956076156
 H    0.7804893235    1.3451033165    0.2182292759
 H    2.2470829982    0.5047946660   -0.3426332019
 H    0.7761223186    0.4827082199   -1.3400360825
 H    0.9357910207   -1.6333039037    0.0742170491
 H   -1.0401383149   -1.8085353418    3.0057863643
 H   -0.8736290157   -2.6147966573    1.4277935603
 H    1.1812759446   -2.4615548942    3.5372439682
 H    2.5772143771   -4.3785248989    3.3506780451
 H    3.1144816576   -4.7488778786    1.7844637815