19

 C    0.1914346632    1.7615333505   -0.4727380553
 C    0.2309417301    0.2595729572   -0.1807077306
 N    0.7488357960   -0.5284225575   -1.3065367233
 C    2.1879626019   -0.7727627047   -1.3030792190
 C   -0.1443266471   -0.8901802649   -2.2560291822
 O   -1.3303539475   -0.5688801787   -2.1927661984
 C    0.2966832911   -1.7594893798   -3.4743091611
 N   -0.7719120473   -1.9860402913   -4.2653752790
 O    1.4178379656   -2.1825036408   -3.6987574126
 H    1.1827257196    2.1469186843   -0.7318721860
 H   -0.4912492898    1.9651241801   -1.3009016110
 H   -0.1623793360    2.3069096501    0.4077180968
 H    0.8745502329    0.0501142220    0.6796559706
 H   -0.7744604202   -0.1000895172    0.0448531680
 H    2.4805152648   -1.2980096455   -2.2060394061
 H    2.7237221937    0.1818433351   -1.2381089917
 H    2.4599343003   -1.3730879359   -0.4263082777
 H   -1.6606098116   -1.6035150018   -3.9824341413
 H   -0.6636712899   -2.5482066612   -5.0914841002