14

 O   -0.6296975552    0.7215664914    0.6498537763
 C    0.2305816557    0.8861830257   -0.1620889874
 C    1.3726613581    1.9188559132   -0.0379704124
 O    2.5886859579    1.2023936417   -0.0180454796
 C    3.4813470578    1.8014809757   -0.9731620698
 C    2.7295654843    3.0533165174   -1.4366927467
 O    1.3614807758    2.7003179609   -1.1971833331
 C    1.2548622912    2.7574093926    1.1854431119
 N    1.1896229630    3.4348027330    2.1177219074
 H    0.3243676846    0.3033953825   -1.1008328602
 H    4.4311174121    2.0287431848   -0.4825479473
 H    3.6519780705    1.0919068811   -1.7891114931
 H    3.0016100959    3.9367076654   -0.8467359908
 H    2.8371122183    3.2720289845   -2.4994390252