17

 O   -0.1172412800    0.4009589980   -1.0972674211
 C   -0.0701259945    1.2984859728   -0.3083830007
 C   -1.1282369392    2.1229729324    0.4390110354
 C    0.0053883267    3.1301378880    0.8148410218
 C    1.0763821636    2.1353444388    0.2840270033
 C   -0.0519637873    4.5173032963    0.1619266623
 O   -0.6588157774    5.3129455889    1.1668118028
 C   -0.1134274845    4.8283363723    2.3655971560
 O    0.0909797451    3.4325752051    2.2001594964
 H   -1.9820143881    2.4866397293   -0.1383718419
 H   -1.4940187191    1.5953795990    1.3260085514
 H    1.5797128110    1.6141047829    1.1046088183
 H    1.8292837355    2.5092898915   -0.4156665626
 H    0.9632011545    4.8784710658   -0.0693632747
 H   -0.6642734017    4.5653814198   -0.7403406299
 H    0.8529914802    5.3137348682    2.5886667463
 H   -0.8242426048    5.0125345609    3.1773519768