17

 C   -0.0167132583    1.6821125548   -0.1159994570
 C    0.0467805203    0.1628586677   -0.0355783566
 O    0.7647197198   -0.1853902641    1.1533176911
 C    1.8118350023   -1.0415951356    1.0640137996
 O    2.4618715898   -1.3512558370    2.0124615608
 C   -1.3620431887   -0.4973838201    0.0508701303
 N   -2.3041375176   -0.1624729252   -1.0101716660
 C   -1.1977392037   -1.9600905536    0.0984932355
 N   -1.0228930982   -3.1018347337    0.1019352295
 H    0.9951785369    2.0940202994   -0.1234201336
 H   -0.5230290473    2.0077866717   -1.0280337015
 H   -0.5446907412    2.0926637270    0.7503793857
 H    0.5695044208   -0.2425326459   -0.9134014146
 H    1.9873204408   -1.3974358098    0.0315962196
 H   -1.8007896102   -0.1839351281    1.0061588348
 H   -2.5293373270    0.8252468456   -0.9878121461
 H   -1.9216872585   -0.3806541131   -1.9248978416