15

 C    0.0997303507    1.4498828695    0.0367205678
 C   -0.0809087688   -0.0240546476    0.0098099183
 C   -1.1876562101   -0.8082713475   -0.1929609249
 C   -0.7002445485   -2.1472233123   -0.0974952545
 C    0.6469300334   -2.0650036389    0.1526573695
 O    1.0586810140   -0.7757919659    0.2243908071
 N    1.2697132621   -3.2592389598    0.2737617728
 C    0.2763062975   -4.1149140044    0.0926845205
 N   -0.9407799479   -3.5033274131   -0.1367405971
 H    0.8071302566    1.7820785416   -0.7319555739
 H   -0.8579507422    1.9437856483   -0.1423473918
 H    0.4865586497    1.7900830306    1.0042977688
 H   -2.1848571083   -0.4427310416   -0.3791660417
 H    0.3707331378   -5.1896109064    0.1143014899
 H   -1.8145901659   -3.9744762426   -0.2939203008