14

 N    0.1269045083    1.1194391205   -0.3403849325
 C    0.0242447659   -0.0822241056   -0.0102521473
 O    0.9639457302   -0.9861694425    0.4452911568
 C   -0.0617025144   -2.0278907344    0.6250877080
 C   -1.1276381183   -1.0810581411    0.0495903984
 C   -1.4794389176   -1.6916135405   -1.2841012028
 C   -0.8029359840   -2.8218892396   -1.5330402595
 C    0.0969291333   -3.1636197941   -0.4047817302
 O    0.8217587454   -4.1207670342   -0.2908282906
 H    1.0866612171    1.4570095637   -0.2496912884
 H   -0.1079117392   -2.3606114363    1.6614950517
 H   -1.9819050719   -0.7828656491    0.6580125806
 H   -2.1848317833   -1.2166929131   -1.9559611022
 H   -0.8642452815   -3.4285834436   -2.4271953620