18

 C    0.0272134073    1.3216638597   -0.2626432110
 O   -0.0741928343    0.0785319173    0.3964203517
 C   -1.3104726317   -0.5388870218    0.2196911823
 C   -1.5787191276   -1.3912643008   -1.0379730749
 N   -0.6682266318   -2.5320509250   -0.5257972630
 C   -1.7882698890   -3.5465862158   -0.7398957560
 C   -2.5634198335   -2.3282047486   -0.2486423918
 O   -3.9037122930   -2.1529869091    0.0454892059
 C   -1.4083826667   -1.9764777012    0.7219647393
 H    1.0080354845    1.7371736929   -0.0213203970
 H   -0.0533379474    1.2160577271   -1.3546998938
 H   -0.7507472921    2.0246411991    0.0751235047
 H   -2.1417096312    0.1199424688    0.5105572567
 H   -1.5961187519   -1.1334953408   -2.0982132319
 H   -1.9022395099   -3.8539562745   -1.7849657805
 H   -1.7211550287   -4.4179174270   -0.0807515381
 H   -4.4168847857   -2.2937842145   -0.7581372440
 H   -1.2138234274   -2.3904103559    1.7115576312