17

 C    0.0419993649    1.6471034620   -0.0338857696
 C    0.0775097238    0.1389317686   -0.2914213328
 C   -1.2564368810   -0.5534325368   -0.0229166462
 C   -1.2332174246   -2.1026286345    0.1163694616
 C   -1.6059464614   -1.8239912370    1.5552284606
 N   -1.8133407010   -2.5286908527    2.5655015498
 O   -1.6441920331   -0.4457835515    1.3927058454
 C   -2.3298223538   -0.0384831893   -0.8798146615
 N   -3.1589663097    0.3583506196   -1.5797238871
 H    1.0296295276    2.0845739879   -0.2011483268
 H   -0.6669054229    2.1476236223   -0.7000733959
 H   -0.2539418126    1.8547213299    0.9979750428
 H    0.3639473767   -0.0723761809   -1.3285937701
 H    0.8217990358   -0.3415663677    0.3533605079
 H   -1.9883620951   -2.6420954552   -0.4553306695
 H   -0.2541508473   -2.5595226187   -0.0341989769
 H   -2.0544125064   -1.9652367662    3.3820916981