15

 C    0.4222730721    1.4089456456    0.0589595360
 N    0.5647577797    0.0027923057   -0.2649824447
 C   -0.4056691410   -0.7009635254   -0.9125652264
 O   -1.4701704591   -0.2374180040   -1.2798250033
 C   -0.0518548880   -2.0998946972   -1.1362187820
 C    0.1901816583   -3.2597748847   -1.3455297692
 C    0.4681304001   -4.6685939902   -1.6072144914
 C    1.7834794299   -5.0961453459   -1.1127852936
 N    2.8160121450   -5.4383823318   -0.7265191441
 H    1.2021143060    2.0070518020   -0.4246385261
 H   -0.5531043165    1.7317379370   -0.3057534522
 H    0.4729077151    1.5725123556    1.1408239742
 H    1.4082449135   -0.4834367087   -0.0071643785
 H   -0.3010514444   -5.2985756242   -1.1422096185
 H    0.4181924691   -4.8701122840   -2.6850099201