18

 C   -0.0436602750    1.4978104975    0.0194455095
 C    1.2610746976    0.7712973261   -0.0589961854
 C   -0.0230043328   -0.0218711727    0.0755367147
 C   -0.3099866547   -0.6877127271    1.3545032603
 N    0.1170606518   -0.3576040834    2.5132238981
 C   -0.4921186744   -1.2683888285    3.4496355408
 C   -2.0071723619   -1.2355915121    3.5277164129
 C   -1.3331276811   -2.2099529896    2.6057948379
 O   -1.1347285252   -1.7781382016    1.2696914695
 H   -0.2810370722    2.0055099009    0.9467819908
 H   -0.4444197110    1.9557688635   -0.8778681220
 H    1.7748680170    0.7217445240   -1.0121739603
 H    1.8995478094    0.7887944611    0.8159626461
 H   -0.3858114147   -0.5604442030   -0.7909648801
 H    0.0959482700   -1.5550410771    4.3130211852
 H   -2.4611931446   -1.6612817988    4.4160424555
 H   -2.5254585170   -0.3820728702    3.1030850273
 H   -1.4301754911   -3.2839161389    2.6952438296