17

 O    0.2722671054    1.3470986602   -0.0532804461
 C    0.2087287159   -0.0597390415   -0.0901036570
 C   -1.2367555483   -0.5394037033    0.0482518543
 O   -2.0507948246    0.1074327614   -0.9403688448
 C   -1.4073664389   -2.0572794592   -0.0392819598
 C   -0.8205521712   -2.8237294895    1.1465386397
 O   -0.3754686606   -2.3045185812    2.1356372375
 C   -2.8917763819   -2.4416256858   -0.1236676853
 O   -3.2896114416   -3.4214576598   -0.6934549543
 H   -0.4678284208    1.6609603897   -0.5883716297
 H    0.6288310951   -0.4609387350   -1.0329053029
 H    0.8136352102   -0.4417950510    0.7358516231
 H   -1.6273538874   -0.1830405978    1.0065148592
 H   -1.7710063458   -0.2062045103   -1.8095940541
 H   -0.9373190100   -2.4721988041   -0.9422108588
 H   -0.8601462680   -3.9268054354    1.0291279797
 H   -3.5731637577   -1.7572013574    0.4213729692