19

 C   -0.2795794964    1.5323016240   -0.0241160359
 C    0.0230256373    0.0330639005    0.0208287570
 C    0.9456598636   -0.4451364721   -1.1453337541
 N    1.6802824541   -1.6234653935   -0.6213291933
 C    1.7676348491   -1.4089299504    0.7689182040
 C    2.4496135217   -1.8855070658    1.8596698798
 N    1.9032367983   -1.2340287950    2.9607953332
 C    0.9088001448   -0.3673716643    2.5712386696
 C    0.8103125218   -0.4599718318    1.2052366171
 H    0.6420831045    2.1181523354    0.0548074995
 H   -0.7820949975    1.8080091460   -0.9579875396
 H   -0.9351710368    1.8249609992    0.8023650934
 H   -0.9290209253   -0.5143703947   -0.0446166350
 H    0.3815883993   -0.7110477818   -2.0443923866
 H    1.6353879363    0.3745835693   -1.4053637966
 H    2.5643014281   -1.7789271017   -1.0888497718
 H    3.2483622210   -2.5986887181    1.9746013010
 H    2.2390779422   -1.3324278140    3.9016514143
 H    0.3787120239    0.2266334887    3.2985094440