16

 C    0.1031021770    1.5695459677   -0.0842145479
 C   -0.0576570050    0.0638978154    0.1049519225
 O    0.5017725944   -0.6404848426   -1.0323980730
 C    1.4833884913   -1.6417887611   -0.6737529198
 C    1.5845919159   -1.4894323389    0.8070085266
 C    0.7235345188   -0.5474064122    1.2146858328
 O    0.8086856884   -0.4198111304    2.5628980223
 C    1.7681012353   -1.3431904136    2.8911023091
 N    2.2656335426   -2.0091557934    1.8950665206
 H    1.1613107210    1.8371073479   -0.1458826676
 H   -0.3926795718    1.8818191977   -1.0070438448
 H   -0.3506132798    2.1089400509    0.7536733619
 H   -1.1293003097   -0.1809707786    0.1700873829
 H    1.1264105813   -2.6319896094   -0.9886084643
 H    2.4180741707   -1.4332581610   -1.2098208740
 H    2.0121302297   -1.4213223083    3.9387060327