17

 O   -0.1172129461    0.1350230556   -0.7061710964
 C   -0.0934682370    1.2547198431   -0.2464742113
 C   -1.2125405395    1.9733511598    0.5186143059
 C   -0.7358883357    3.4152391837    0.6118132816
 C   -1.5302519430    4.5331407097   -0.0144724003
 C   -1.3816771533    4.4475683777    1.4875685719
 C    0.7852449060    3.3655464428    0.4319394392
 N    0.9666747221    2.1225793089   -0.2967420193
 H   -2.1680389002    1.8481690412    0.0049650773
 H   -1.3032188064    1.4965998836    1.5028977419
 H   -0.9921690920    5.3181076425   -0.5361733515
 H   -2.4950461325    4.2899533502   -0.4475416956
 H   -2.2457120373    4.1522789894    2.0737066123
 H   -0.7420951495    5.1752362050    1.9779095835
 H    1.1631809341    4.2241910026   -0.1342446154
 H    1.3073637756    3.3469022065    1.4010121190
 H    1.8593580546    1.8053981077   -0.6400394828