17

 O    0.5625979754    1.0776401380   -0.4915330037
 C   -0.0018874013   -0.1089334146   -0.0200472045
 C    0.1032865748   -0.4535494332    1.4929769529
 N   -1.3232179944   -0.7947603553    1.4716343970
 C   -1.5517743406   -0.1967593211    0.1417164963
 C   -2.1301213636   -0.7715672517    2.5783539512
 N   -1.6506586428   -0.7019152292    3.7620311543
 C   -3.6136769390   -0.9063491125    2.3019096460
 O   -4.4331536832   -0.8827597109    3.1834161732
 H    0.3118819784    1.7955660139    0.1004041200
 H    0.3870229774   -0.9037282488   -0.6593542158
 H    0.7652942599   -1.2698182485    1.7932605629
 H    0.3167652039    0.4206776326    2.1243944292
 H   -2.0191008464    0.7979280895    0.1723030738
 H   -2.0948845249   -0.8280542782   -0.5678569752
 H   -2.4262507789   -0.7630564343    4.4256049811
 H   -3.9089422246   -1.0396186757    1.2401929113