23

 C   -0.1553406453    1.5500939277    0.0442929585
 C    0.1294886924    0.0472542400   -0.0375363781
 C    0.7181294118   -0.5235156502    1.2382952909
 C   -0.1041722321   -0.5386238125    2.5662593502
 C    0.7507279236   -1.7853077244    2.9412130253
 C    0.8746059750   -2.0609342144    1.4162663949
 C    2.1233506390   -1.3265050924    3.4594463772
 C    2.5137886137   -0.0111510993    2.7532051815
 O    2.0006979176    0.0861867293    1.4275756384
 H    0.7596922483    2.0987126379    0.2807499158
 H   -0.5494225511    1.9284324242   -0.9036648209
 H   -0.8928131378    1.7726436512    0.8234210190
 H   -0.7906533576   -0.5030256835   -0.2682662303
 H    0.8327240118   -0.1544921783   -0.8552337474
 H   -0.0811527783    0.3405508715    3.2146386697
 H   -1.1443766443   -0.8078446520    2.3654628105
 H    0.3045561090   -2.5553405910    3.5742174895
 H    0.0138326185   -2.6088010477    1.0221482271
 H    1.8035190107   -2.5025720934    1.0451875634
 H    2.1026257748   -1.1534172753    4.5416998908
 H    2.8638853397   -2.1127134514    3.2718629006
 H    2.1495318939    0.8395781386    3.3470526602
 H    3.5993402468    0.0974570753    2.6718044733