23

 C   -0.1521401923    1.5849681722    0.2438740800
 C   -0.0202274710    0.0645337285    0.1108726546
 C   -1.3721233210   -0.6279702317   -0.1039019283
 C   -1.3287110227   -2.1597633638   -0.1505611534
 C   -0.4771383484   -2.6979397960   -1.3035796346
 C   -0.9797337938   -2.8605089191    1.2126859272
 C   -2.2650409886   -3.6855898610    1.0670008993
 O   -2.6962902240   -4.6536815864    1.6232218423
 C   -2.7447708547   -2.8386860575   -0.1189437396
 H    0.8228687861    2.0583915483    0.3947179021
 H   -0.5995002978    2.0229383898   -0.6553207099
 H   -0.7892326395    1.8550632611    1.0934047766
 H    0.6545855926   -0.1666001550   -0.7216247224
 H    0.4577975464   -0.3410621262    1.0123657203
 H   -2.0542726044   -0.3239013009    0.7027121359
 H   -1.8243087978   -0.2577049679   -1.0351462720
 H    0.5741439002   -2.4135709092   -1.1977403040
 H   -0.5169345951   -3.7921677357   -1.3440405476
 H   -0.8351155455   -2.3171624948   -2.2667903322
 H   -0.0475743221   -3.4292453397    1.2727152233
 H   -1.0313825277   -2.1886470358    2.0770597584
 H   -3.5511071688   -2.1561065393    0.1724037922
 H   -3.0630055500   -3.3914828700   -1.0074192880