22

 C   -0.0311784025    1.5773485261   -0.0009063338
 C    0.0621940970    0.0569673555   -0.0038835823
 C    0.7412525307   -0.5587738760   -1.2549816839
 C    1.3273762078   -1.8641595751   -0.7249389088
 C    0.8026678139   -3.2055632083   -1.1765841677
 C    2.2002478410   -2.7700044399   -1.5501152514
 C    1.5723583593   -1.6198430617    0.7413790622
 C    2.2434279408   -0.3477552378    1.1178534420
 N    0.7771721044   -0.4624002157    1.1899041166
 H    0.9609676702    2.0361694527   -0.0735855213
 H   -0.6261612252    1.9290284113   -0.8499488811
 H   -0.5026055627    1.9327794335    0.9197117443
 H   -0.9511175503   -0.3566277682    0.0756555950
 H    0.0329782011   -0.7133285550   -2.0734007390
 H    1.5289988999    0.1026917551   -1.6353421504
 H    0.6941863900   -3.9902520234   -0.4343249465
 H    0.0463041801   -3.2215628117   -1.9546398117
 H    2.3919801327   -2.4928473485   -2.5817734124
 H    3.0354927086   -3.2611374526   -1.0613746498
 H    1.6138326286   -2.4788627309    1.4070922920
 H    2.7318100368   -0.2569360256    2.0837943723
 H    2.6980009679    0.2477263362    0.3302434256