18

 C    0.0617034376    1.4681884974    0.1883433820
 C    0.0689629043    0.0069235156   -0.2026881259
 O    1.0322014358   -0.5472130762   -0.6817976269
 C   -1.2295128052   -0.7810482404    0.0148485471
 C   -1.9223919712   -0.9935463632   -1.3260785113
 C   -1.0700239311   -2.0254080480    0.9244487166
 C   -1.9646269339   -1.2476766755    1.9076026908
 O   -2.1038398671   -0.1435662018    0.9846721678
 H    0.9939110803    1.9374461236   -0.1277611757
 H   -0.7981978703    1.9822359653   -0.2537301770
 H   -0.0605314009    1.5597733006    1.2721748719
 H   -1.2537560383   -1.5257855831   -2.0085188175
 H   -2.8370613489   -1.5767282808   -1.1874338643
 H   -2.1939064984   -0.0346030112   -1.7798017564
 H   -1.5101743784   -2.9364142429    0.5157392350
 H   -0.0505354850   -2.2330974809    1.2492821926
 H   -2.9332330626   -1.7026821130    2.1423098425
 H   -1.4831445066   -0.9379387257    2.8431890387