23

 C   -0.2927320735    1.3533823315    0.1800042430
 O   -0.5160518250    0.0306132967   -0.2758468684
 C    0.4239401483   -0.5013231022   -1.1826410291
 C    0.2742159254    0.0916911212   -2.5844101587
 O    0.8023579722    1.4127516113   -2.6092648448
 C    1.9105339437   -0.5966111493   -0.7258616549
 C    1.9217676860   -2.0763759209   -1.1978114838
 C    0.3641648441   -2.0633794906   -1.2389003703
 C   -0.2984785491   -2.7235417937   -0.0346363363
 H    0.7145955931    1.4736842008    0.6029551127
 H   -0.4182548234    2.0936673014   -0.6163353448
 H   -1.0266391727    1.5349584716    0.9700263929
 H    0.8036318286   -0.5497001893   -3.3059934310
 H   -0.7957972279    0.0798564282   -2.8423486031
 H    0.6767519012    1.7703387940   -3.4930059733
 H    2.6119183991    0.0979230393   -1.1902498623
 H    1.9929297081   -0.5150971190    0.3604046125
 H    2.3758960333   -2.2025829182   -2.1839546950
 H    2.3732989083   -2.8027674040   -0.5174821484
 H   -0.0801837724   -2.4573183575   -2.1598908364
 H    0.1317341665   -2.3680639484    0.9062499216
 H   -1.3699094473   -2.5092104050   -0.0045229265
 H   -0.1625223167   -3.8095992779   -0.0816143757