20

 C    0.1533756053    1.6539189851    0.0081177791
 C    0.0247614927    0.1198985917    0.0280931763
 C    0.7055646840   -0.5662302861   -1.1791057971
 O    0.5069364959    0.1916168293   -2.3567981264
 C    2.1786823250   -0.7269714763   -0.7506845583
 C    2.0950230675   -1.0886964201    0.7439332219
 C    0.7739382341   -0.4953213896    1.1946145919
 N    0.2841589888   -0.4923371684    2.3683431885
 O    1.1616247318   -1.1053843432    3.2852247442
 H    1.1992490166    1.9764092091   -0.0054414605
 H   -0.3356488258    2.0647082100   -0.8776000120
 H   -0.3138740440    2.0700601063    0.9043300150
 H   -1.0373005979   -0.1352791743    0.0763383082
 H    0.2627680844   -1.5697588610   -1.2931010901
 H    0.9305970664   -0.2714661890   -3.0858587704
 H    2.7112255687   -1.4757709107   -1.3447788890
 H    2.6894710881    0.2311028903   -0.8936158393
 H    2.0745284243   -2.1729011259    0.9086397964
 H    2.9300783938   -0.7104671538    1.3401170028
 H    0.6701587904   -1.0367012634    4.1103853591