20

 C   -0.0489966235    1.5242102018    0.0193312826
 C   -0.0261655968    0.0005239174    0.0818731076
 N    0.8395036846   -0.4634202364    1.1530935996
 C    0.9153761596   -1.8464061936    1.3672940736
 C    0.4617424380   -2.8526031472    0.5418187324
 N    0.7887051562   -4.0611334104    1.1465458179
 C    1.4362055609   -3.8292344301    2.3263909241
 N    1.9235187253   -4.9212841692    3.0751095674
 C    1.5270861166   -2.4663176477    2.5042065423
 H    0.9605523897    1.9217290052   -0.1203896059
 H   -0.6768902447    1.8689898263   -0.8072250751
 H   -0.4560995649    1.9511549739    0.9437721156
 H   -1.0557321222   -0.3900383764    0.1802527589
 H    0.3654611403   -0.4009542082   -0.8618433916
 H    0.6778015194    0.0442657271    2.0137361558
 H   -0.0705531175   -2.8239137863   -0.3926903609
 H    0.7466593877   -4.9636330466    0.7075432708
 H    1.1829028174   -5.4061258927    3.5745296906
 H    2.5986959061   -4.6061747773    3.7607095771
 H    1.9603882780   -1.9626113297    3.3555769670