18

 C   -0.2971954173    1.4520196317    0.0248167263
 C    0.1130359862   -0.0171385125    0.0700004098
 C    0.8061985503   -0.5338110936   -1.2051031950
 C    1.5906043827   -1.7716896280   -0.7636834807
 O    1.9916183014   -2.6560343021   -1.4771048633
 C    1.7496981509   -1.6557212488    0.7366475838
 C    1.1266812599   -0.3574752499    1.1899084348
 N    2.2685667965   -2.4691214818    1.5771288944
 O    2.7866050207   -3.6147435487    1.0075356389
 H    0.5736763980    2.0964332396   -0.1431592101
 H   -1.0124439290    1.6401305174   -0.7823801205
 H   -0.7653529423    1.7615225515    0.9652567265
 H   -0.7833943169   -0.6294330506    0.2359533377
 H    0.1367058435   -0.7661135772   -2.0362782247
 H    1.5336742581    0.2069384714   -1.5693426991
 H    1.8950614009    0.4280244598    1.2363534836
 H    0.6773479068   -0.4306095632    2.1826080609
 H    3.1090980696   -4.0973578847    1.7777642268