19

 C   -0.1178633337    1.4478436169   -0.0510026247
 O    0.1073091477    0.0537601234    0.0768061446
 C    0.6861072047   -0.5468876028   -1.0663743499
 C    1.2252593861   -1.9076896000   -0.7409595951
 C    0.7144081635   -2.8832038314   -1.5000461488
 C    1.0517528513   -4.3379424868   -1.4339928389
 C   -0.2935798579   -2.3546983123   -2.4931536646
 C   -0.3676029122   -0.8598901547   -2.1646983877
 O   -1.1334255528   -0.0633915817   -2.6412055607
 H    0.8206917633    1.9826468485   -0.2672750324
 H   -0.8417277284    1.6738537789   -0.8409138320
 H   -0.5067305346    1.7912436512    0.9107122784
 H    1.4587381888    0.1229381705   -1.4862467671
 H    1.9584785348   -2.0535374029    0.0441762987
 H    1.7849884946   -4.5456898056   -0.6503526236
 H    0.1550071210   -4.9385007038   -1.2352169080
 H    1.4583012843   -4.6943158113   -2.3889719965
 H    0.0196697547   -2.4875035515   -3.5379623602
 H   -1.2819674954   -2.8252660546   -2.4114153615