17

 C   -0.0034544380    1.4653381620   -0.0305595601
 N    0.0310125307    0.0191421526   -0.0058160811
 C    0.0197769591   -0.7914420214   -1.0919652886
 O   -0.0281830105   -0.2022521035   -2.3174894815
 C    0.0615890859   -2.1135145702   -0.7003293601
 C    0.1007149351   -2.0873687825    0.7264083857
 O    0.1494961667   -3.1534460366    1.5859147440
 C    0.0820220122   -0.7829230734    1.1517983025
 N    0.1035986197   -0.1908302751    2.4301683247
 H    0.0174588603    1.8065878131    1.0047079172
 H    0.8601356597    1.8713999266   -0.5670183892
 H   -0.9136098652    1.8299873412   -0.5175008589
 H   -0.0291683360   -0.8960849360   -2.9831874742
 H    0.0640320152   -2.9791439356   -1.3458562639
 H    0.1541945768   -3.9602663086    1.0643255838
 H    0.9410176037   -0.4342255453    2.9493564798
 H   -0.6913725453   -0.4726264773    2.9946866401