16

 C   -0.0198730915    1.4856908606    0.0684144463
 C   -0.0004605770   -0.0064474376   -0.0438611811
 C   -0.0182726061   -0.7149792415   -1.1855168912
 C    0.0037607574   -2.1787691382   -1.1761562878
 N   -0.0137857652   -2.8331388604   -2.2782393468
 N    0.0444806582   -2.8053847549    0.0898753041
 C    0.0595833709   -2.0699609982    1.1380290110
 O    0.0981797006   -2.6030975448    2.3723707117
 N    0.0398943281   -0.7071979408    1.1618341613
 H    0.8718878662    1.8554957553    0.5892503504
 H   -0.0513195305    1.9398472931   -0.9225037654
 H   -0.8951937099    1.8291919430    0.6332866650
 H   -0.0495295332   -0.2175334056   -2.1455827330
 H    0.0064020594   -3.8325684594   -2.0647932578
 H    0.1092108126   -3.5616485849    2.2402818289
 H    0.0550107899   -0.2314241156    2.0490473543