21

 C   -0.0893588629    1.6316109234    0.0445666405
 C    0.0646582903    0.1148337146    0.0301956876
 C    1.0591220827   -0.6152568327   -0.9322774609
 C    2.3618856210    0.1751376267   -1.0175311827
 O    2.7678048218    0.5735350676    0.2947830765
 C    2.3300656726   -0.3627609993    1.2685791469
 C    2.6026710833   -1.8199033153    0.8050093636
 C    1.2107732646   -1.7606868746    0.1504888864
 C    0.7749783791   -0.6521444649    1.1604961962
 H    0.8648350546    2.1350486344    0.2104124030
 H   -0.5152449644    1.9943226253   -0.8983185557
 H   -0.7734574119    1.9341090026    0.8457419077
 H   -0.9237277233   -0.3452886918   -0.0960858862
 H    0.7024324423   -0.8995114374   -1.9253504884
 H    3.1501095958   -0.4235338960   -1.4979606126
 H    2.2402111106    1.0932769859   -1.6021929804
 H    2.7271999014   -0.0236103039    2.2263481162
 H    3.4981583199   -1.9982555187    0.2021620798
 H    2.5983356358   -2.5141184874    1.6509159045
 H    0.6323183293   -2.6660336411   -0.0387729950
 H    0.2767320371   -0.8616170373    2.1096142429