15

 C   -0.0257108388    1.5163891252    0.1048385925
 C    0.1412671578    0.0041471311   -0.0151033792
 C    0.6092795747   -0.4431995232   -1.3921556471
 O    0.8255419208    0.3342296066   -2.2986122905
 C    0.7820586386   -1.8745837165   -1.5529531015
 C    0.9224866542   -3.0671583986   -1.6756932959
 C    1.0984981207   -4.4991189639   -1.8463601611
 H    0.9175922814    2.0307134341   -0.0954051995
 H   -0.7568590996    1.8872648084   -0.6178795235
 H   -0.3623624501    1.7868384965    1.1095016910
 H    0.8605141872   -0.3829867150    0.7194186706
 H   -0.7965395725   -0.5249448791    0.2023636801
 H    2.1354377098   -4.7331507311   -2.1109703374
 H    0.8493682032   -5.0481003479   -0.9324282073
 H    0.4597416125   -4.8748053864   -2.6531102412