21

 C    0.0420367302    1.6319112015   -0.0574125693
 C    0.0755867280    0.0988965111   -0.0281384070
 C   -1.3178867276   -0.5079241898    0.0302476396
 C   -1.5567204938   -2.0616000073    0.0779367333
 C   -0.7813383346   -2.4442866157    1.3392207776
 O   -1.1904409743   -1.3686554736    2.2261856724
 C   -2.0741678355   -0.6122122474    1.3827463895
 C   -2.9350117459   -1.7355379340    0.7289579397
 O   -3.8918120968   -1.3489562483   -0.2282564917
 H    1.0522514520    2.0505691548   -0.0989123073
 H   -0.5088990414    2.0008638954   -0.9296640807
 H   -0.4464026627    2.0336604509    0.8369521730
 H    0.5928999194   -0.2722497303   -0.9228884847
 H    0.6627060512   -0.2310076610    0.8350603900
 H   -1.9707097426   -0.0756787301   -0.7298577811
 H   -1.4696127731   -2.7022349889   -0.7989361484
 H   -1.0836211928   -3.4096606705    1.7611653941
 H    0.3067422338   -2.4382729502    1.2136869969
 H   -2.4816236308    0.2324360356    1.9389141358
 H   -3.3321425391   -2.4800943540    1.4320520784
 H   -4.6313739336   -0.9453230880    0.2371482600