20

 C   -0.1046667343    1.6317335982    0.0687438259
 C    0.0654785728    0.1194959582    0.0305661386
 C    1.0656469141   -0.5910520659   -0.9268205378
 C    2.3536665113    0.2178279738   -1.0289921656
 O    2.7737684879    0.6110935822    0.2809910488
 C    2.3533967592   -0.3455969275    1.2449328369
 C    2.5636735627   -1.7754256270    0.7050475018
 N    1.1915424513   -1.7302813988    0.0945013655
 C    0.8187037559   -0.6568661434    1.1173152895
 H    0.8452303100    2.1459601611    0.2251085240
 H   -0.5513687492    1.9991186790   -0.8620277781
 H   -0.7800320314    1.9146566024    0.8837996612
 H   -0.9109784292   -0.3633889954   -0.0834756155
 H    0.7132307376   -0.9188720043   -1.9084441022
 H    3.1428186370   -0.3614241635   -1.5294781837
 H    2.1993612181    1.1341191364   -1.6089406228
 H    2.7711311882   -0.0337038055    2.2048039960
 H    3.4092636657   -1.9546448460    0.0350467084
 H    2.5631917947   -2.5385427341    1.4890420727
 H    0.3184983677   -0.9805049999    2.0350639263