19

 C    0.1785049365    1.0796046242   -0.4624634278
 N   -0.0873058812    0.0055859289    0.5042384438
 C   -1.2235570028   -0.7629136265    0.2779913316
 C   -1.3427019412   -2.0662199442   -0.1196753185
 N   -0.2861978388   -2.9234428105   -0.4227802569
 C   -0.4237730680   -4.3301915841   -0.0760434058
 C   -2.7520660058   -2.3321579056   -0.2187003501
 C   -3.3767171932   -1.1711208255    0.1135341689
 O   -2.4857423332   -0.1999690691    0.4082854508
 H    1.1234492849    1.5679705729   -0.2050896637
 H    0.2787235877    0.6420772543   -1.4595395663
 H   -0.6121336456    1.8424627230   -0.5003617888
 H   -0.0524490249    0.3658660434    1.4524275635
 H    0.5868740249   -2.5225623744   -0.1027833142
 H   -0.6316706787   -4.5118604382    0.9910416088
 H   -1.2341721817   -4.7813244564   -0.6573771234
 H    0.4985197715   -4.8526084601   -0.3433843570
 H   -3.2296221479   -3.2577070953   -0.4979553256
 H   -4.4171057926   -0.8980150868    0.1878547407