16

 C   -0.0041769003    1.5707359280   -0.0538298318
 C    0.0870316701    0.0585339897   -0.0810325081
 C    0.6795431473   -0.7754757701   -1.1613753880
 C    1.3428499536   -0.7485989661    0.2485747469
 C    2.5546047940   -0.1252665604   -0.3573640084
 O    3.6677952923    0.0851222323    0.0128576956
 C    1.8949303873   -0.0707407520   -1.8030118270
 C    2.6247524007   -0.8704440657   -2.7682891314
 N    3.2001003817   -1.5188546355   -3.5333406151
 H    0.8891779677    2.0598996385   -0.4490479625
 H   -0.8638809491    1.9137541430   -0.6387861186
 H   -0.1371386960    1.9205339460    0.9743315860
 H   -0.7811457718   -0.4242078206    0.3639767959
 H    0.1743799397   -1.6151811212   -1.6185541930
 H    1.3516239927   -1.4832334505    1.0438242190
 H    1.7129303804    0.9263305047   -2.2129774896