16

 N    0.0415121817   -1.0920520990   -0.0372310059
 C    0.0172627738    0.0610584647   -0.0217477034
 C   -0.0415569241    1.5210595441    0.0515438163
 C   -0.6944033337    2.1726543263    1.2829233138
 C   -0.4029265516    3.5653845068    0.6879356024
 C    1.1137485236    3.4348121184    0.4614111934
 O    1.2697206276    2.0574497080    0.0385465923
 C   -1.0793780364    3.4040236744   -0.6850329584
 O   -0.7908303450    2.0285229814   -1.0385970160
 H   -1.7541676312    1.9325816695    1.3761306331
 H   -0.1610144421    1.9549408383    2.2089472248
 H   -0.7153104054    4.4364170669    1.2621284780
 H    1.4900734123    4.0958788776   -0.3261294387
 H    1.6946925629    3.5993600555    1.3760786528
 H   -2.1653768625    3.5451691174   -0.6417473906
 H   -0.6621009799    4.0656665797   -1.4511649041