19

 O   -0.1368619809    1.4643173449   -0.0356871016
 C   -0.0101818061    0.0565101201   -0.1681558044
 C   -1.3617157087   -0.5667254646    0.1732742574
 C   -1.3538939117   -2.0588888051    0.1038503239
 C   -0.5782649899   -3.1458769897    0.9245527811
 C   -0.5990768788   -4.0735379784   -0.2811960136
 C   -1.7331610953   -4.1166683137    0.7319952559
 C   -2.5048353066   -3.0385233782   -0.0852081236
 C   -1.3694802044   -2.9974310377   -1.1020447032
 H    0.7125863334    1.8638295898   -0.2435047203
 H    0.2775294040   -0.2281831927   -1.1923883635
 H    0.7626769627   -0.3404769202    0.5098910554
 H   -1.6547404676   -0.2307510308    1.1766057235
 H   -2.1148198669   -0.1711050036   -0.5198463982
 H    0.1396292376   -3.0794587529    1.7318448809
 H    0.1010643346   -4.8472530680   -0.5663674892
 H   -2.0631630182   -4.9296179779    1.3647129381
 H   -3.5588984028   -2.8338954754   -0.2211138041
 H   -1.3999488343   -2.7621225661   -2.1580571047