18

 O    0.1172684601    0.9385902601   -1.1308555784
 C    0.0383630612   -0.0261523804   -0.1089118737
 C    1.2934910754   -0.7837175859    0.2304848648
 C    0.7783368863    0.3021491591    1.1555564198
 C   -1.3271285799   -0.6936956027   -0.0360317406
 C   -2.5252697578    0.1466816036   -0.3417976482
 N   -2.0879430340   -0.8807906436   -1.2962626714
 C   -1.4527200620   -1.7656656812    0.9209246556
 C   -1.5495482196   -2.6412834889    1.7394811031
 H    0.5634838569    0.5395646925   -1.8845966321
 H    1.2000650199   -1.8148522410    0.5492323658
 H    2.1765291573   -0.5589888972   -0.3590741251
 H    1.3072080280    1.2477184610    1.1649807781
 H    0.3399684640   -0.0012680802    2.0989442297
 H   -3.4610710556   -0.0652525268    0.1652014675
 H   -2.3390258527    1.1880081275   -0.5854103893
 H   -1.5681466005   -0.4137950949   -2.0373349371
 H   -1.6473889671   -3.4219259410    2.4527651916