20

 C    0.1608519304    1.3370866132    0.1483511170
 O    0.0797821960   -0.0728311034    0.0439637972
 C    0.5917142400   -0.5751780285   -1.1419431218
 O    1.9968383274   -0.3528428258   -1.2185327435
 C    2.6637128248   -1.4572187804   -1.8389740327
 C    4.0255461615   -1.6365049841   -1.1864492630
 C    1.7049123541   -2.6296276364   -1.6854787608
 N    1.2712788433   -2.8053449257   -0.2871424307
 C    0.4112829448   -2.0755306953   -1.2399168046
 H    1.2017075528    1.6767246451    0.1923755906
 H   -0.3367595030    1.8301114116   -0.7014152601
 H   -0.3519289289    1.6174139742    1.0709585420
 H    0.0996915772   -0.0764297650   -2.0008571530
 H    2.7855745717   -1.2540690850   -2.9160771421
 H    3.8961571592   -1.9109987396   -0.1371857923
 H    4.5939586217   -2.4214847323   -1.6963365490
 H    4.5983702575   -0.7069980829   -1.2429581076
 H    1.7819368802   -3.4832425767   -2.3504389026
 H    0.8985373945   -3.7440122936   -0.1662555015
 H   -0.5493974051   -2.4811621594   -1.5355129717