20

 C    0.0036174678    1.4711356282    0.0622976775
 C   -0.0351456430   -0.0172188644    0.0058459039
 C   -0.0380862397   -0.8782458946   -1.0234911930
 C    0.0332521739   -2.2472567207   -0.3448574190
 C   -0.0176967372   -3.5245443245   -1.1401051868
 N   -0.8913809024   -2.1018614953    0.8469116585
 C    0.0278581631   -0.9692078941    1.2053182087
 C    1.1766028402   -1.9443098874    0.7242902843
 O    1.5090330279   -2.9879741287    1.5771956822
 H    0.9075417460    1.8265181634    0.5733738753
 H   -0.0101668849    1.9099397990   -0.9394007157
 H   -0.8482511859    1.8761926568    0.6233827382
 H   -0.0014534443   -0.6828710107   -2.0871289980
 H    0.7087265255   -3.5002035498   -1.9590493869
 H    0.2174485431   -4.3806879433   -0.5014146090
 H   -1.0106286372   -3.6824499366   -1.5752415496
 H   -1.8203007771   -1.7747484918    0.5745390403
 H   -0.0188736399   -0.5714551240    2.2202033293
 H    2.0968374602   -1.4912834521    0.3534192717
 H    0.6613307337   -3.3381128394    1.8893753480