19

 O   -0.6286813375    0.9444072792    0.8166094542
 C    0.0061763763    1.0629370546   -0.1992347228
 C    1.3823897087    1.6860156712   -0.2895153339
 C    1.3627239364    2.9218592049   -1.1900585907
 C    0.7694252707    4.2900222356   -0.7547125863
 C    1.4964098353    4.6388138847    0.5601306800
 C    2.9450683107    4.3018350297    0.0811209270
 C    2.5814393230    3.8675218560   -1.3543465575
 O    1.6398937236    4.9115339520   -1.7523333481
 H   -0.4088815085    0.7222396682   -1.1770131442
 H    1.7283712351    1.9041431908    0.7229011105
 H    2.0602456546    0.9428853849   -0.7336043318
 H    0.9783767003    2.6770291810   -2.1839240467
 H   -0.2848213603    4.5447380181   -0.8612533202
 H    1.3694537065    5.6947248038    0.8049437276
 H    1.1587551634    4.0424034956    1.4115026038
 H    3.5980354985    5.1763047924    0.0670910643
 H    3.4329241252    3.5155705584    0.6634719113
 H    3.3804266482    3.6864892989   -2.0737106464