21

 C   -0.1056501246    1.5596868388   -0.0063990543
 C    0.0641945280    0.0419940137   -0.0203134367
 C    0.8916494085   -0.5086003220   -1.1910082300
 C    1.2049967322   -1.9478392970   -0.7616191746
 O    2.3156511705   -2.5433836968   -1.4063237294
 C    1.5223768148   -1.8237625522    0.7553338153
 C    0.7897517068   -0.5234266441    1.2266960970
 C    1.1798412817   -3.0147530801    1.5179273439
 C    0.8742498608   -3.9917431121    2.1490824166
 H    0.8683301071    2.0614727739    0.0318830000
 H   -0.6279682739    1.9117852930   -0.9023440394
 H   -0.6832162931    1.8866769660    0.8649352099
 H   -0.9331426012   -0.4163774114   -0.0702734399
 H    0.3720170191   -0.4531352546   -2.1536094051
 H    1.8371562130    0.0415434416   -1.2876397988
 H    0.3070520640   -2.5712808253   -0.8857523234
 H    2.0706442058   -2.7277348037   -2.3181288626
 H    2.6066444833   -1.6730325816    0.8158372143
 H    1.5259956996    0.1999289677    1.5925124042
 H    0.1006126994   -0.7236216071    2.0494983912
 H    0.6169703882   -4.8580598165    2.7060078217