14

 C    0.0547591028    1.4391492012   -0.0204639675
 N   -0.0812329235   -0.0011681147   -0.0363164399
 C   -1.2682223304   -0.6346668765    0.0677633665
 O   -2.3624273397   -0.1081952814    0.1852473027
 C   -1.1127205385   -2.1736898193    0.0223358597
 C   -2.3934953338   -2.9541992804    0.1321775042
 O   -0.0152280161   -2.6720725911   -0.0944817955
 H    0.6691294899    1.7705953630    0.8238661970
 H    0.5101874519    1.8042607336   -0.9474308367
 H   -0.9454428275    1.8638780956    0.0776351007
 H    0.7258841122   -0.6017733856   -0.1263049677
 H   -3.0759120781   -2.6579942230   -0.6706879600
 H   -2.1851896091   -4.0231410270    0.0878385487
 H   -2.9027969502   -2.6969254644    1.0662992377