24

 C    3.2823338149    0.8853020256   -0.4511992628
 C    1.8733956037    0.2872631801   -0.4987476697
 C    1.7746362795   -0.8111640706   -1.5733455386
 O    2.6245840454   -1.9001828303   -1.2788469590
 N    1.5774869120   -0.3741272611    0.7767010244
 C    1.2355807809    0.3587426292    1.9989011324
 C    1.1390501091    1.8684747935    2.0821048928
 C    0.2088724951   -0.4794930155    1.3017605465
 C   -1.0094758699    0.1059448995    0.6182742705
 H    4.0183998856    0.0946894012   -0.2880585457
 H    3.5139150820    1.3793250298   -1.4001040884
 H    3.3794227554    1.6244561648    0.3476627370
 H    1.1540849081    1.0787033066   -0.7587062785
 H    0.7249017440   -1.1376587872   -1.6613030842
 H    2.0772069078   -0.4098047181   -2.5470720677
 H    2.5261173584   -2.0319778731   -0.3246534345
 H    1.6993187713   -0.0759389904    2.8850762759
 H    0.7404528243    2.3276637117    1.1756500545
 H    0.4849821168    2.1515341205    2.9143893776
 H    2.1214978141    2.3108068596    2.2753591074
 H    0.0085527384   -1.4615403840    1.7310611998
 H   -0.8572182580    1.1201474675    0.2459102886
 H   -1.3215862500   -0.5181042964   -0.2259536448
 H   -1.8439083291    0.1374783171    1.3272692364