19

 O   -0.0691309560    1.4819585075    0.0362429868
 C    0.0084841174    0.0708600196    0.1555780692
 C   -1.3792735941   -0.4946331412   -0.1421772808
 C   -1.4195916694   -1.9928468369   -0.0587450110
 C   -0.8900415295   -2.9697378157   -1.1070781212
 O   -1.9617420508   -3.9214855159   -0.8335590561
 C   -2.5673336369   -2.9933382968    0.0792190915
 C   -1.6336091917   -2.7900649442    1.2241614404
 O   -0.7858752406   -3.8077707053    1.6530152079
 H    0.7953555218    1.8503646475    0.2398278663
 H    0.7423582720   -0.3505046541   -0.5512606196
 H    0.3200260711   -0.2343413128    1.1666540954
 H   -2.0896106680   -0.0585508115    0.5700003952
 H   -1.6894478663   -0.1548321117   -1.1384452613
 H   -0.9715287691   -2.5977682425   -2.1342375446
 H    0.1015037332   -3.4050495237   -0.9402244473
 H   -3.6489268331   -2.9087668261    0.0691699329
 H   -2.0173655665   -2.1951298443    2.0492839354
 H   -0.9358680333   -4.5472870319    1.0477311707