16

 O    0.3810459343   -0.2237195613   -0.2184932266
 C    0.1990420036    0.9596742327   -0.3266496987
 C    1.2776187166    2.0047294802   -0.0735817032
 C    1.1978550471    3.1240582225   -1.1071754444
 O    0.1485044078    3.6993681197   -1.3368720374
 N    2.3638794035    3.4044823510   -1.7527234682
 C    2.4600867281    4.4874051645   -2.7248591006
 C    3.5970842149    5.3631865130   -2.4624865509
 C    4.5512811411    6.0619540151   -2.2523267721
 H   -0.7813054563    1.3889424837   -0.6157673080
 H    1.0533795038    2.4645384135    0.8982856544
 H    2.2507375073    1.5125836110   -0.0088915102
 H    3.2092623073    2.9234183640   -1.4933727994
 H    2.5313356179    4.0835811091   -3.7437941179
 H    1.5138868616    5.0342660397   -2.6638783916
 H    5.3838635413    6.6950849519   -2.0675596351