23

 C   -0.9176444353    0.7787292817   -2.4857847458
 C    0.3818176663    0.0214029451   -2.7700578069
 O    1.3476148499    0.9083770326   -3.3417368842
 C    1.0528022570   -0.5597691201   -1.5145648926
 C    0.7302769557   -2.0383877872   -1.1569325358
 C    1.5408105290   -2.4135615561    0.1066337548
 C   -0.7727543523   -2.2615860125   -0.8713229212
 C    1.1427026049   -2.9169370397   -2.2588188082
 C    1.4811663450   -3.6482902176   -3.1516944197
 H   -1.6731098011    0.1397107448   -2.0212482068
 H   -0.7187826117    1.6233527418   -1.8179485805
 H   -1.3474998651    1.1729743852   -3.4145601272
 H    0.1796223903   -0.8020681764   -3.4722931220
 H    0.9439983259    1.3266585961   -4.1091077343
 H    2.1316420360   -0.4843025198   -1.6771354288
 H    0.8161642415    0.0638873163   -0.6434779104
 H    1.2377249310   -1.7823772212    0.9487945211
 H    1.3705881005   -3.4585472175    0.3800471771
 H    2.6124145560   -2.2747756896   -0.0602180325
 H   -1.3820968412   -2.0960610148   -1.7626618183
 H   -0.9470621656   -3.2888145113   -0.5384868617
 H   -1.1145340164   -1.5826466614   -0.0828297576
 H    1.7846911998   -4.2896326283   -3.9417065584