19

 O   -0.0316255071    1.4654156704    0.0816874288
 C    0.0093776802    0.0505798064   -0.0300530861
 C    0.6553581203   -0.6210398428    1.2442707019
 O   -0.0254182533   -1.8524686160    1.5023445597
 C   -1.2799732747   -1.7437493855    0.8974575947
 C   -2.1797163373   -0.5917381322    1.2069349713
 C   -1.3520904154   -0.5841556321   -0.0687443257
 C   -1.9673831310   -1.5177369232   -1.1334671885
 C   -1.8411316153   -2.7259424535   -0.1345023445
 H    0.8714213993    1.7973708640    0.0413916023
 H    0.5660423449   -0.2450096640   -0.9319685311
 H    1.7203854859   -0.8454650107    1.1266585617
 H    0.5388104329    0.0799160979    2.0827044763
 H   -3.2583699620   -0.6963274750    1.1306638862
 H   -1.8495105919    0.0832243566    1.9872607059
 H   -2.9777222741   -1.2577128101   -1.4632240548
 H   -1.3347310672   -1.6353792127   -2.0161771906
 H   -1.0876825977   -3.4479239041   -0.4544098165
 H   -2.7544070665   -3.2610114032    0.1411156090