17

 O    0.2444420478    0.0395028701    0.1230429553
 C    0.1183743669    1.2399451596    0.0552281287
 N   -1.0097723318    1.9803871655    0.3997608339
 C   -0.8835490052    3.3567556104   -0.0509247543
 C    0.6548499611    3.5239432684   -0.0982976569
 C    1.2264558595    4.0693333753    1.2358205228
 C    2.6826687372    4.0444192228    1.2561008704
 C    3.8837021052    3.9957996147    1.2274869203
 N    1.0678000927    2.1593928397   -0.3802127133
 H   -1.8948608112    1.5004705004    0.3632429096
 H   -1.3157786466    3.5158304485   -1.0486365032
 H   -1.3516054853    4.0610491378    0.6439458491
 H    0.9542691164    4.1964345107   -0.9073282756
 H    0.8673820954    5.0959369859    1.3827553873
 H    0.8284446591    3.4686823410    2.0630404096
 H    4.9453335726    3.9658704009    1.2263956914
 H    2.0391711861    1.9015011583   -0.2904494950