17

 O    0.0621108383    1.3817962661   -0.0196186273
 C    0.0766799524   -0.0073594579    0.0344345442
 C   -0.4161884690   -0.7482133543    1.2502679972
 C   -1.2332736702   -0.7591779268   -0.0317816251
 N   -2.4175759516    0.0744926261   -0.0748243729
 C   -3.3075155255   -0.5796358464   -0.7109934336
 N   -2.9972221209   -1.8939657778   -1.1699474341
 C   -1.9586391921   -1.8468303822   -2.2400343812
 C   -1.5504610455   -2.0032965266   -0.8232268420
 H   -0.8663867951    1.6484068379    0.0266564191
 H    0.9253319190   -0.4216979646   -0.5025932408
 H    0.0799293597   -1.6718955692    1.5334263987
 H   -0.8116046733   -0.1593380058    2.0704614840
 H   -4.3035425855   -0.1940929133   -0.9039338074
 H   -1.9644660922   -2.7080221304   -2.9000866671
 H   -1.7849850743   -0.8884252610   -2.7215141221
 H   -1.2176625543   -2.9698503137   -0.4590063397