18

 C    0.0059778297    1.3905802800   -0.0201139052
 O    0.0137712872   -0.0178712588   -0.0165823413
 C    0.6764904163   -0.5592693181    1.1021967418
 C    0.6297788707   -2.0486328069    1.0127849456
 C    0.0630562059   -2.8145957552    0.0475883552
 O    0.2292716619   -4.1178382287    0.3201604624
 N    0.9338770541   -4.2394569738    1.5128087232
 C    1.1695016127   -3.0138124546    1.9203308708
 C    1.9189057058   -2.7729925487    3.1911627417
 H    1.0265616691    1.8037524300   -0.0434164748
 H   -0.5258529706    1.7104756541   -0.9188318294
 H   -0.5099827951    1.7975255597    0.8636430028
 H    1.7232914377   -0.2060157623    1.1403007835
 H    0.2020408405   -0.2122352459    2.0384163555
 H   -0.4716905811   -2.5743771259   -0.8564966112
 H    2.8341255482   -2.1996612951    3.0068755218
 H    1.3136920980   -2.2020892748    3.9039405346
 H    2.1912455589   -3.7250786649    3.6500501528