16

 N    0.0023790552    1.4672358044    0.0346999723
 C   -0.0407241072    0.0352436977   -0.0326508383
 C    0.2029760187   -0.7638012149   -1.3461273123
 O   -0.9601625774   -1.5779325534   -1.0940179809
 C   -1.3655978019   -0.7585831658    0.0226238700
 C   -1.3301671633   -1.5208449637    1.3398714448
 O    0.0413618093   -1.4892983298    1.7870856326
 C    0.7620724691   -0.5524048626    1.1319706443
 O    1.8770772274   -0.2430573559    1.4430032920
 H    0.9354623784    1.7632578361    0.3078843087
 H   -0.2178906133    1.8910877617   -0.8598699140
 H    0.0831791542   -0.1421795383   -2.2449014646
 H    1.1228134654   -1.3524218550   -1.4298413058
 H   -2.3051694858   -0.2294016917   -0.1604650678
 H   -1.9528261990   -1.0493451549    2.1073915802
 H   -1.6238076898   -2.5651120740    1.2144670388