12

 O   -0.2141149883    0.0098469425    0.0953213289
 C   -0.0667705509    1.1997788083   -0.0086950312
 C    1.2378507406    1.8849425038   -0.0090504749
 C    1.3973191493    3.3844337445    0.3585617226
 C    1.8112957030    2.9305679923   -0.9737287291
 O    3.1152977225    2.3170740945   -0.9142097805
 C    2.6280258818    1.2927211850   -0.0932467278
 O    3.2152002927    0.3413696135    0.2889767593
 H   -0.9337016736    1.8911278795   -0.1225859525
 H    0.4493153591    3.9117284674    0.4263277249
 H    2.1454320604    3.6648445016    1.0921352121
 H    1.4465113034    3.2440372371   -1.9414378319