25

 C   -0.2732766994    1.3706959012   -0.1337160167
 O   -0.1622752289   -0.0328847184   -0.1076015619
 C    0.7886353993   -0.5420860298   -1.0280917189
 C    0.7133815575   -2.0784407758   -0.9594175083
 C    1.2098604027   -2.5669436297    0.4116012815
 O   -0.6579111727   -2.4460890233   -1.1292060433
 C    1.4602363018   -2.7137944658   -2.1599783461
 C    2.9403211818   -2.3164417179   -2.2600853729
 C    1.3061268167   -4.2419078858   -2.1846181059
 H    0.6776696253    1.8566718055    0.1329414627
 H   -0.5800112433    1.7357158085   -1.1259939614
 H   -1.0324928875    1.6536380934    0.5994362555
 H    0.5439934298   -0.2020223154   -2.0472561837
 H    1.7929859592   -0.1728023994   -0.7731936069
 H    0.6756060298   -2.0362388356    1.2041658970
 H    1.0202564312   -3.6360357603    0.5261424993
 H    2.2804966254   -2.3838572464    0.5488048379
 H   -1.1631681474   -1.8272339492   -0.5871616870
 H    0.9439120683   -2.3227308405   -3.0467771202
 H    3.0830552192   -1.2349529203   -2.3458436118
 H    3.5130524203   -2.6638356203   -1.3933534900
 H    3.3887603028   -2.7740181462   -3.1479232585
 H    0.2591512520   -4.5286028298   -2.0693394646
 H    1.6722601498   -4.6424181308   -3.1356096244
 H    1.8846003062   -4.7192064077   -1.3862451615