19

 C   -0.0268912003    1.5221384411    0.0085440344
 C    0.0060554542    0.0101449097    0.0315713326
 C   -1.2250708328   -0.6725440604   -0.5465021367
 C   -1.2807770633   -2.1657778923   -0.2124846972
 O   -1.1031861568   -2.3796452283    1.1728054650
 C    0.2066120286   -2.0584981933    1.6085504189
 C    0.7262367038   -0.7114933807    1.1197902395
 N    1.3335446196   -0.5784281799   -0.2226823551
 H    0.9065317521    1.9315097894    0.4023052048
 H   -0.1506148597    1.8916072777   -1.0162243847
 H   -0.8601771121    1.9058115948    0.6077137889
 H   -2.1172179738   -0.1907854306   -0.1289425024
 H   -1.2627564305   -0.5268162423   -1.6344075428
 H   -2.2606503707   -2.5781820555   -0.4687977111
 H   -0.5282585915   -2.7319184477   -0.7906203089
 H    0.1628507027   -2.0611190851    2.7016195625
 H    0.9082375961   -2.8563096846    1.3051338193
 H    1.2442210818   -0.1269636713    1.8774885765
 H    1.2486216625   -1.4598116109   -0.7266080134