15

 C   -0.0170078960    1.5351851645    0.0393559824
 C    0.0250618614    0.0362886421    0.0157907483
 C   -0.8777057653   -0.8753586459    0.8020300544
 C    0.6147032588   -0.9482759659    1.0218402073
 C    1.3205460291   -1.6900842915   -0.1552835970
 O    0.3369366291   -2.1415682348   -1.0991124749
 C    0.7467889972   -0.7673156302   -1.1257059734
 H    0.9638355497    1.9695962159   -0.1886078584
 H   -0.7311930249    1.9268703435   -0.6956941325
 H   -0.3209191481    1.9030688696    1.0245286911
 H   -1.4247685888   -0.3853724757    1.6020000629
 H   -1.3974722646   -1.6949623854    0.3218707494
 H    1.0884683802   -0.7383464375    1.9719893755
 H    2.2674946404   -2.2152370527   -0.1291650329
 H    1.1207262017   -0.3698845660   -2.0624674822