17

 O    0.2190092936    1.3439607426   -0.0816361321
 C    0.0331916477   -0.0226651694   -0.0164291078
 C   -0.4558878112   -0.6957827023    1.2416364698
 O   -0.8041732696    0.1782319733    2.2776970937
 C   -2.1761069825    0.1889648640    2.6333585060
 C   -3.0601075429    0.5444312164    1.4549809989
 O   -2.5152680691    1.5086568350    0.5474026989
 C   -2.6102783015    0.1303012511    0.1189203460
 C   -1.3466859254   -0.6667723253    0.0030388626
 H   -0.5044499836    1.7529088580    0.4154748479
 H    0.7939863513   -0.5437794484   -0.5890219929
 H   -0.0234201137   -1.6372211042    1.5771272706
 H   -2.5014433013   -0.7819344917    3.0417163637
 H   -2.2680268705    0.9381596330    3.4259591436
 H   -4.1221529403    0.6590324777    1.6680770341
 H   -3.3475034285   -0.0247278647   -0.6659911845
 H   -1.4663910825   -1.5913673752   -0.5534976485