17

 C   -0.3564609994    1.5121223727   -0.2125587789
 C   -0.2584610908   -0.0025097657    0.0409765687
 C    0.6340717354   -0.2986597587    1.1707443253
 N    1.3460389118   -0.5020322483    2.0577921722
 N   -1.5714234388   -0.6297600410    0.2303513506
 C   -2.1829550472   -1.2110035524   -0.8738090367
 N   -1.6213492995   -1.2036068897   -2.0155887880
 C   -2.2282947109   -0.5572190038    1.4558985307
 N   -3.4199845471   -0.9669060782    1.6155843707
 H    0.6373692247    1.9315637963   -0.3884867556
 H   -0.9733866084    1.6800417050   -1.0976329120
 H   -0.8045450361    2.0263208976    0.6416583799
 H    0.1574380293   -0.4777122997   -0.8528636939
 H   -3.1507191522   -1.6404404733   -0.6152352606
 H   -2.1977002324   -1.6902485017   -2.6981460313
 H   -1.5933137817   -0.1276665221    2.2359655893
 H   -3.7068657468   -0.8539423369    2.5846406995