16

 C   -0.2711446390    1.4403003301    0.2491230835
 N    0.0185653253    0.0141604749    0.1573339217
 C    1.3507361843   -0.4252730163   -0.1936580996
 C    0.8119178729   -0.6463087125    1.1938898205
 C    1.4496731385    0.1185349936    2.3601428621
 C    0.4784249243    0.5284315178    3.3758337043
 N   -0.2913069139    0.8675305138    4.1672732110
 C    0.3364711118   -1.9681376016    1.5599028227
 N   -0.0063405918   -3.0292845341    1.8628686942
 H    0.5904416033    2.0632898567    0.5323325982
 H   -0.6187999628    1.7739080458   -0.7322235719
 H   -1.0742130041    1.5987024712    0.9726928803
 H    1.4203376532   -1.2571075376   -0.8881861417
 H    2.1415601138    0.3207470904   -0.2809112702
 H    2.2073710232   -0.5170454300    2.8305740646
 H    1.9673377609    1.0078230677    1.9921238905