15

 O   -0.0046434587    1.4289878796   -0.0932322197
 C    0.0534757490    0.0257189321   -0.0326158963
 C    1.0093649209   -0.5168113453   -1.0074668679
 N    1.7896018586   -0.9311436880   -1.7534130358
 C    0.0465548726   -0.6480750873    1.3637355970
 C   -1.4783772185   -0.3223141557    1.5538091756
 N   -1.8953788323   -1.7288610443    1.8504009373
 C   -0.7993841014   -1.8584942042    0.8370247033
 C   -1.3341657033   -0.6351415793    0.0303517522
 H    0.8876275734    1.7837529138   -0.0096819287
 H    0.8324974647   -0.6602212333    2.1198175383
 H   -1.9289502805    0.5540599039    2.0147672864
 H   -1.5598361552   -2.0124023044    2.7752200504
 H   -0.4438528075   -2.8102156374    0.4450959533
 H   -2.1203439520   -0.6333609704   -0.7212427054