23

 C    0.0740367179    1.5944081843   -0.0841354870
 C    0.0314594119    0.0604153027   -0.0413967254
 C   -1.4182517694   -0.4383560227    0.0279310145
 C    0.7607094523   -0.5841592365   -1.2353395884
 C    2.2663195446   -0.3009222413   -1.3008013485
 C    2.9395568045   -1.0572484784   -2.4402353547
 O    4.3581804829   -0.8406643733   -2.4290912215
 C    4.8807581085   -0.0242908183   -3.3603070990
 O    6.0423612058    0.2487446825   -3.4072968475
 H    1.0964086667    1.9817204283   -0.0506726366
 H   -0.3983826623    1.9727752005   -0.9990078491
 H   -0.4659436169    2.0219441914    0.7668453711
 H    0.5442478027   -0.2671296584    0.8747135472
 H   -1.9781092897   -0.1419410480   -0.8673503518
 H   -1.4627831723   -1.5301421634    0.1011969828
 H   -1.9390469510   -0.0218413528    0.8961085287
 H    0.6073203224   -1.6710869046   -1.1902314633
 H    0.2820847165   -0.2499538595   -2.1675490215
 H    2.4554635098    0.7702882999   -1.4341604418
 H    2.7472140745   -0.5901197013   -0.3586091733
 H    2.7958683828   -2.1370681857   -2.3361732336
 H    2.5246624171   -0.7558545026   -3.4116837715
 H    4.1205929706    0.3535908572   -4.0736256198