19

 C    0.0785641861    1.5080447456   -0.1285812635
 C   -0.0211186893    0.0169065661   -0.0639244907
 O    0.4838485861   -0.7283623930   -1.1788964671
 C   -0.2049256248   -1.8737777801   -0.5961809755
 C    0.6690408327   -2.1594651595    0.6364320293
 C    0.2995366102   -0.8096548222    1.2737993799
 O   -1.1304770282   -0.9800777954    1.5016409780
 C   -1.2685472693   -0.8795372386    0.0788127165
 C   -2.6472327176   -0.6882261782   -0.4691271874
 H    1.1263658155    1.8263985730   -0.1248733658
 H   -0.3918934924    1.8920393489   -1.0385241999
 H   -0.4183170353    1.9519600910    0.7392496229
 H   -0.4503583709   -2.6553177122   -1.3128560188
 H    0.3382373441   -2.9901338495    1.2628182531
 H    1.7173628447   -2.2725379035    0.3535214103
 H    0.8419578922   -0.4187871461    2.1326746761
 H   -3.1317736541    0.1801968302   -0.0132497068
 H   -2.5993160276   -0.5370767753   -1.5517014382
 H   -3.2678533920   -1.5687339412   -0.2722006924