20

 C    0.5005658775    1.2902329177    0.0396161321
 C   -0.0992861309   -0.1189983511    0.0006230095
 C    0.4136993258   -0.9554948547   -1.2218046564
 C    1.5087443893   -1.8547682351   -0.6816069677
 N    2.5280057238   -1.1318317732    0.1115505572
 C    1.4416552519   -1.8670472249    0.7970764034
 C    0.3015941900   -0.9759542710    1.2506679492
 C   -1.6171597027   -0.0485758947   -0.0671970092
 O   -2.2759540663    0.9573699785   -0.0872243573
 H    1.5884897818    1.2304389899    0.0892893871
 H    0.2106566382    1.8557649531   -0.8507505208
 H    0.1293217172    1.8415759462    0.9083969182
 H   -0.3871358369   -1.5879610694   -1.6281213937
 H    0.7523737647   -0.2992351322   -2.0287611173
 H    1.8123797299   -2.7268136308   -1.2522933390
 H    3.3780701274   -1.6893603067    0.1454292444
 H    1.6929704846   -2.7486903356    1.3783538209
 H    0.5653193148   -0.3331260981    2.0955233992
 H   -0.5322686543   -1.6143474076    1.5724799598
 H   -2.1081019856   -1.0526384902   -0.0987942296