15

 C   -0.0109227315    1.4232657262   -0.0458222376
 N    0.0319178273   -0.0096684774    0.1739014884
 C   -1.1778178257   -0.7081953891    0.0681311473
 C   -2.4545526197   -0.1799093033    0.0550582813
 N   -3.3401960439   -1.2404968267    0.0045540010
 C   -2.6523586871   -2.4190545807   -0.0286871558
 C   -1.3082209272   -2.1292841589    0.0126815075
 H    1.0041385488    1.8268122973   -0.0096590999
 H   -0.4719359702    1.7122483463   -1.0061114724
 H   -0.5871090439    1.9010715214    0.7550818999
 H    0.7726130097   -0.4569868841   -0.3478365923
 H   -2.8043412279    0.8375473417    0.0846287163
 H   -4.3394773314   -1.1515152801   -0.0144101029
 H   -3.1664644982   -3.3656266196   -0.0754302677
 H   -0.5006619390   -2.8457375832    0.0122139467