17

 C    0.3456987217    1.2721399160    0.3670189839
 N   -0.3898908002    0.2435110532   -0.3804785977
 C    0.3695201006   -0.6009272010   -1.1894083306
 C    0.6636733003   -1.9119296821   -1.1325114930
 C    0.3615190924   -2.9900368657   -0.1624072021
 O    1.3898674731   -2.2605478583   -2.2717833751
 C    1.5706628686   -1.1392070624   -3.0507707155
 O    2.1438657718   -1.1237155920   -4.1059769741
 N    0.9696576174   -0.1094327895   -2.3589032152
 H    1.0776617302    0.8589007970    1.0763744422
 H    0.8827813725    1.9180932802   -0.3326888662
 H   -0.3699269322    1.8918539451    0.9127148689
 H   -0.9932881658   -0.2931968411    0.2282964324
 H   -0.2845500708   -3.7626827477   -0.5965047660
 H    1.2780722134   -3.4847897267    0.1788993900
 H   -0.1452783485   -2.5779914181    0.7147287956
 H    0.7776451058    0.7804901030   -2.7851228474