21

 C    0.0379734542    1.5994052562   -0.0679856458
 C    1.5657359394    1.5269645255   -0.1230627861
 C    2.1209052611    0.9177730888    1.1373665975
 C    1.5471132449    1.1071698769    2.5419294757
 C    0.6468931296   -0.0374884961    3.0349831027
 C   -0.7251834444   -0.1214727455    2.3578943950
 O   -0.7367398631   -0.6391136303    1.0392291011
 C    0.0133749483    0.0313848511    0.0559129194
 C    1.5446024150    0.0036434149    0.0883143307
 H   -0.3808993874    2.1760123197    0.7610864045
 H   -0.4299877714    1.9431758393   -0.9921738580
 H    2.1867842733    2.0972286684   -0.8028543150
 H    3.2081058408    0.8895733128    1.1164387314
 H    2.3843764931    1.2160299589    3.2402229054
 H    0.9902021588    2.0514503651    2.6047186906
 H    1.1616383145   -0.9985057465    2.9163958124
 H    0.4651490512    0.0965092490    4.1096420298
 H   -1.3674015660   -0.8049406646    2.9229358205
 H   -1.2069373355    0.8697123098    2.3876808855
 H   -0.3380275508   -0.3955861809   -0.8871602878
 H    2.1477012745   -0.7607395125   -0.3885770894