15

 C   -0.1426950149    1.4625733725    0.0238186412
 C   -0.0183939767   -0.0274120613    0.0279418927
 N    0.3554441161   -0.6586463109   -1.0605129714
 O    0.3679021339   -2.0167714505   -0.7262533312
 C    0.0072320466   -2.1545477449    0.5597170443
 C   -0.0399951999   -3.5448215635    1.1168827803
 O   -0.8276312901   -3.6208181278    2.2877925782
 C   -0.2579439929   -0.9373489478    1.1012976075
 H    0.5226301284    1.9121294080    0.7680715764
 H    0.1151645282    1.8578994875   -0.9603416237
 H   -1.1643246063    1.7704812260    0.2693030627
 H   -0.3782513854   -4.2359321311    0.3302652760
 H    0.9663898579   -3.8662644661    1.4092775637
 H   -1.7286712969   -3.3754900858    2.0516578968
 H   -0.5606668479   -0.7191577444    2.1114959164