18

 C    0.0922833653    1.4218135189   -0.0179353253
 C    1.3355168872    0.6265610216    0.0159884137
 N   -0.0367338493   -0.0410067097    0.0878103108
 C    0.2014029686   -0.5563423103   -1.3069211551
 C    1.6424673772    0.0133485742   -1.3383426060
 C    2.2408254924    0.7789635865   -2.5714776107
 C    3.3655268097   -0.2631818854   -2.6103462439
 O    4.0127568787   -0.2309543417   -1.3319919369
 C    2.8012791064   -0.9854666615   -1.4593064250
 H   -0.1942424148    1.9386326839    0.8928944138
 H   -0.2176960915    1.9160516085   -0.9374037515
 H    2.0162886529    0.6377752034    0.8608299384
 H    0.1597427072   -1.6486072704   -1.3191516839
 H   -0.5042449455   -0.1638033101   -2.0477103684
 H    1.5774453944    0.7332762010   -3.4397501740
 H    2.5620475267    1.8102769517   -2.4052762290
 H    3.9484992954   -0.6195643419   -3.4510705466
 H    2.8305117491   -2.0324984887   -1.1771844601