17

 C    0.1357738479    1.5432911474   -0.0538154124
 N    1.3244643812    0.6653109771   -0.0107964730
 C   -0.0060094993    0.0732880836    0.0122841691
 C   -0.5226985738   -0.8480706883    1.1626844642
 N   -1.0665161278   -1.6936293327    0.0822588470
 C   -1.8343577549   -2.7202233666   -0.3821684055
 C   -1.8632416540   -2.5656018704   -1.7622228176
 C   -1.1174951841   -1.4012194791   -2.1306738718
 C   -0.6439798008   -0.8941392732   -0.9396817241
 H   -0.0118023523    2.1518017812    0.8345913364
 H   -0.1295917957    2.0312387156   -0.9882330165
 H    1.7366288691    0.5666065985   -0.9353338858
 H    0.2602863576   -1.3263555059    1.7566559957
 H   -1.2872246179   -0.4142687745    1.8136791766
 H   -2.2693270752   -3.4706113530    0.2572062314
 H   -2.3657469077   -3.2329609940   -2.4470595868
 H   -0.9709110723   -1.0210437556   -3.1290505270