21

 C   -0.0647314954   -1.2456298567    0.1944427291
 C   -0.0699483461   -0.0472208193    0.1014405706
 C   -0.0390631744    1.4057628010   -0.0109746839
 C    1.3964981884    1.9743360283   -0.0328637179
 C    1.4399692413    3.5006891056   -0.1009034162
 C    2.8571782345    4.0999367191   -0.0936346270
 C    2.6275877942    5.4953882371   -0.6848190965
 O    1.4808597770    5.3970436161   -1.5325025461
 C    0.8799327393    4.1151660569   -1.3939963792
 H   -0.0741541273   -2.3040696788    0.2761835014
 H   -0.5734694141    1.7094850357   -0.9201565773
 H   -0.5927218063    1.8487573964    0.8276789444
 H    1.9221835935    1.6296583898    0.8645091087
 H    1.9351045973    1.5514706056   -0.8898062210
 H    0.8810050360    3.9148590187    0.7498388587
 H    3.3090282203    4.1295439524    0.9011092915
 H    3.5130215730    3.5081186775   -0.7431837635
 H    2.4290298081    6.2353601444    0.1040802886
 H    3.4799764338    5.8541082588   -1.2733712518
 H    1.1338179584    3.4792121194   -2.2593706896
 H   -0.2077546215    4.2445134521   -1.3808557232