17

 O   -0.0177346991   -0.0034162917    0.0803663602
 C   -0.0455608165    1.1954143278    0.0105468186
 C   -1.2704440806    2.1129548560   -0.0620595376
 C   -0.6260309171    3.5063657362    0.0671615089
 O    0.6295254380    3.3397548180   -0.5852488921
 C    1.1604347346    2.1521807244    0.0112541174
 C    1.5556208886    2.4958395737    1.4584407151
 C    0.3112921418    3.0245605465    2.1945035414
 O   -0.4466230415    3.9347203428    1.3943143812
 H   -1.7421223620    2.0127346725   -1.0445319455
 H   -2.0107005184    1.8701996071    0.7028226296
 H   -1.1652758521    4.3072985798   -0.4381433369
 H    1.9939892089    1.7831976441   -0.5874673272
 H    1.9581544977    1.6212192150    1.9791646522
 H    2.3306584833    3.2669524083    1.4161519743
 H   -0.3236965602    2.1823030439    2.5090569545
 H    0.5873977145    3.5769971654    3.0954529061