23

 C    0.0477923555    1.6008685123   -0.1608228833
 C    0.0724614583    0.0893110068   -0.0217813656
 C   -1.2581781362   -0.5392461546   -0.4125209539
 C    1.2897762480   -0.7540377336   -0.3383003025
 C    2.6753635469   -0.1171905397   -0.4237495818
 C    2.9227159051    0.5837323158    0.9356629217
 C    1.8585062712    0.0364766680    1.9296781652
 O    1.2724415724    1.0447108624    2.7502456443
 C    0.7944036341   -0.6463036451    1.0925949200
 H    1.0096095570    2.0745670438    0.0267719346
 H   -0.2669474642    1.8770222395   -1.1747588861
 H   -0.6706722962    2.0369954617    0.5410139059
 H   -1.5131635938   -0.3020572442   -1.4523381187
 H   -1.2359861058   -1.6291911501   -0.3150399146
 H   -2.0696297137   -0.1639406136    0.2220508590
 H    1.1277449232   -1.6606111606   -0.9137469483
 H    3.4147258180   -0.9087914237   -0.5860219952
 H    2.7741489985    0.5772948046   -1.2657963163
 H    3.9395451438    0.4078668096    1.3003007639
 H    2.8007817093    1.6674030153    0.8624788830
 H    2.3191522808   -0.7306252525    2.5720159871
 H    1.9618424819    1.3988142883    3.3210770285
 H    0.2580379156   -1.4622258102    1.5659978832