16

 C    0.0361362993    1.5382310382   -0.1092939361
 C   -0.0476599119    0.0108598669    0.0292751283
 C   -1.4557503603   -0.4956347778    0.0139142970
 N   -2.4367103249   -0.0809720106    0.8006111111
 C   -3.5305217966   -0.8160210020    0.4457447226
 O   -4.7224264512   -0.6431167702    1.0598467347
 C   -3.2412953878   -1.6951436312   -0.5644133803
 N   -1.8957812261   -1.4670068000   -0.8256996393
 H    1.0733579402    1.8781615429   -0.0344639559
 H   -0.3653093101    1.8684361945   -1.0722280316
 H   -0.5471031346    2.0194769024    0.6792220734
 H    0.5171321567   -0.4751285534   -0.7753541954
 H    0.4315973709   -0.2920073613    0.9689572057
 H   -4.5820188280    0.0452988161    1.7210055253
 H   -3.8276286301   -2.4216638994   -1.0970244553
 H   -1.3429416157   -1.9428611651   -1.5182404642