20

 C    0.0087828779    1.4901899132   -0.0749440589
 O    0.0265679006    0.0864443347    0.0300696733
 C    0.6699145867   -0.5412942305   -1.0589027903
 C    0.5761849436   -2.0494836113   -0.8852503422
 N   -0.7806543471   -2.5409816916   -1.0271578559
 C   -1.7407368111   -2.3094694396    0.0834154723
 C   -2.1745952842   -3.7721608873   -0.0618596258
 O   -3.0687883446   -4.4440918116    0.3549024187
 C   -0.9755167804   -4.0088621706   -0.9942066737
 H    1.0273158179    1.9085605097   -0.1069687320
 H   -0.5276570700    1.8254955401   -0.9763265729
 H   -0.5044516273    1.8788436433    0.8078321734
 H    0.1948769129   -0.2501234145   -2.0095582184
 H    1.7302292012   -0.2390756552   -1.1038152857
 H    1.1896972569   -2.5172019640   -1.6640533257
 H    1.0210691830   -2.3218858523    0.0921418446
 H   -1.2671918255   -2.1171022231    1.0582297572
 H   -2.4922028061   -1.5355570138   -0.0961065734
 H   -1.1694688440   -4.4819744437   -1.9628979180
 H   -0.1758004905   -4.5666917520   -0.4778046067