21

 C   -0.0549197883    1.4294569926   -0.7354551475
 C   -0.0839967279    0.0660702118   -0.0463250736
 C   -1.4026802209   -0.6676984995   -0.3019494513
 O   -2.2454525949   -0.1704081502   -1.0231700992
 N   -1.5748380536   -1.9017482427    0.3275687534
 C   -0.5789393469   -2.4110937677    1.2781030401
 C   -2.7675028299   -2.6645739638    0.2377119391
 C   -3.7703883113   -2.3560179746   -0.8489836553
 N   -2.8993904672   -3.6099000605    1.0868270777
 H    0.8986140697    1.9287666205   -0.5410072675
 H   -0.1823321689    1.3254374293   -1.8149910318
 H   -0.8634445542    2.0686575180   -0.3733960288
 H    0.7476998306   -0.5551494511   -0.4019293949
 H    0.0689074326    0.1784878768    1.0332977721
 H   -0.8116879446   -2.1071449477    2.3041923068
 H   -0.5970819781   -3.4986819746    1.2487758562
 H    0.4129062612   -2.0563066795    1.0108611178
 H   -4.5096751376   -3.1612302700   -0.8686835794
 H   -4.2726121664   -1.4042704117   -0.6719998593
 H   -3.2970018692   -2.2716399827   -1.8285849746
 H   -3.7663404543   -4.1139501427    0.9122515201