17

 C    0.1269450539    1.4567923026    0.2695521378
 C    0.0220230425   -0.0319301573   -0.0081676569
 C    0.5676735149   -0.5689539685   -1.2800880373
 N    1.2346834203   -0.8663071589   -0.0012507515
 C   -1.1838717051   -0.6950446067    0.6154997707
 N   -1.3177202411   -0.9423618494    1.8724584253
 O   -0.2074128159   -0.5383766075    2.6013226759
 C   -2.2825210913   -1.0443647513   -0.2213712018
 C   -3.1747559523   -1.3100227774   -0.9850988360
 H    1.0112346210    1.8742537844   -0.2237759811
 H   -0.7523322435    1.9877080122   -0.1105411997
 H    0.2031198275    1.6446110427    1.3433479870
 H    0.0970299271   -1.4232309909   -1.7574873736
 H    1.0253717200    0.1402647132   -1.9654735125
 H    2.0538237606   -0.2761298838    0.1257191617
 H   -0.4447549714   -0.8008009867    3.4976068753
 H   -3.9734445873   -1.5528289266   -1.6416570532