17

 C   -0.5881773987    1.3888271291    0.5237308484
 O   -0.5672009235   -0.0208670010    0.5938130561
 C   -0.5993757668   -0.6390788305   -0.6692602429
 C   -0.5898550485   -2.1445860649   -0.4229241931
 C   -1.8680198333   -2.6643995946    0.2549147695
 O   -2.6240960059   -3.2013530142   -0.8355108686
 C   -1.8231389597   -3.3628322359   -1.9180727628
 O   -2.1451557962   -3.8908585415   -2.9326125783
 O   -0.5921949126   -2.8304885643   -1.6793014307
 H   -0.5662044107    1.7647073255    1.5488299797
 H    0.2850758936    1.7795950012   -0.0197530449
 H   -1.4985029005    1.7560419693    0.0262802606
 H   -1.5075357060   -0.3590836164   -1.2303984457
 H    0.2709717691   -0.3584644215   -1.2822752861
 H    0.3134766766   -2.4228504662    0.1239844000
 H   -1.6697888711   -3.4607891845    0.9785375998
 H   -2.4385536856   -1.8684716396    0.7352815991