18

 C   -0.5415967069    1.3487970587   -0.0192949860
 C   -0.0279094028   -0.0650616296    0.2120121879
 O    0.3071903704   -0.5907487162   -1.1039031728
 C    1.2123996637   -1.5773317029   -1.2297121596
 N    1.6526510547   -1.9899788164   -2.3442708602
 C    1.7407311128   -2.2280221378    0.0418731728
 O    2.8817022629   -2.9940390005   -0.2232537025
 C    1.9952858239   -1.1519368093    1.0667893590
 C    1.1449096305   -0.1357032318    1.1535565508
 H    0.2572252194    1.9876431832   -0.4064123390
 H   -1.3654015273    1.3439386729   -0.7366874383
 H   -0.9024171180    1.7717061714    0.9229700562
 H   -0.8497396485   -0.6892873459    0.5952851480
 H    1.2523117416   -1.4776140915   -3.1290369289
 H    0.9282818841   -2.8789624016    0.4232537287
 H    2.9271006656   -3.0445619181   -1.1935836565
 H    2.8681867009   -1.2656203402    1.6997940001
 H    1.2524561230    0.6598042453    1.8836642703