15

 C   -0.1349951918    1.4300733998    0.0118336867
 C   -0.0758513422   -0.0234031947    0.0029773823
 C   -0.0289682725   -1.2253694126   -0.0043081406
 C    0.0657262298   -2.6712572891   -0.0134136354
 O   -1.2764926736   -3.2238661535   -0.0031293957
 C   -1.3436951841   -4.5568569399   -0.0092645894
 N   -0.3312354249   -5.3210711062   -0.0233646744
 C   -2.7251623790   -5.0095757941    0.0019563576
 N   -3.7975440981   -5.4400337251    0.0101811544
 H    0.8720338915    1.8609453645    0.0063557202
 H   -0.6653438864    1.8108450348   -0.8673670436
 H   -0.6512979089    1.8005816224    0.9036890190
 H    0.5876890049   -3.0443568314   -0.9015213152
 H    0.6053022623   -3.0543295779    0.8597886179
 H   -0.6004702671   -6.3019177770   -0.0258472838