15

 O   -0.1980056172    0.0493717297   -0.2236224795
 C   -0.0397030952    1.1861023768    0.1333883239
 C    1.3004405180    1.9158292484    0.0305280499
 C    2.5277146213    1.1177482383   -0.4923681299
 C    2.5102189076    2.0457206037   -1.7041023759
 C    1.2099024576    2.0173714521   -2.3872155416
 N    1.3370498949    2.8706646611   -1.1751432560
 C    1.5379422228    2.6678550862    1.2564597810
 N    1.7063907733    3.2287082773    2.2527695282
 H   -0.8717513645    1.8104237892    0.5172787842
 H    3.4013593249    1.2353273257    0.1472019897
 H    2.3412701560    0.0593236260   -0.6818528624
 H    3.3819209355    2.5378529077   -2.1197990680
 H    1.0963014607    2.6276944186   -3.2769208918
 H    0.5955997345    1.1222030792   -2.3637917919