19

 N    0.0080208406   -1.1202322221    0.0092426179
 C    0.0031207593    0.0364719753   -0.0031462245
 C   -0.0094086141    1.4826652066   -0.0516729107
 C    0.5345211350    2.1137687048   -1.3342030698
 C    1.3469782951    2.1782604144   -0.0668754631
 C    1.5154346031    3.4886267060    0.7016201622
 C    0.3879979398    3.7169910427    1.7196758559
 C   -0.9739093787    3.4587428032    1.0819384852
 N   -1.0915317627    2.0465954564    0.7160926474
 H    0.8578307202    1.4561401934   -2.1326621298
 H    0.0442085024    3.0248825972   -1.6628187974
 H    2.1944539962    1.5031898971   -0.0256451603
 H    2.4828174986    3.4844167709    1.2119518686
 H    1.5437741013    4.3265706633   -0.0054700074
 H    0.5065845055    3.0369853072    2.5708277153
 H    0.4312273565    4.7403982147    2.1047643611
 H   -1.7779551425    3.6760439999    1.7922063202
 H   -1.1105054295    4.1453671325    0.2256929912
 H   -1.9761866659    1.8624901465    0.2563185181