19

 C   -0.3063876898    1.4507509736    0.0569449774
 C    0.0554867979   -0.0218474933   -0.0766670919
 C    1.3864924820   -0.3589336488   -0.7918536623
 O    1.9337435107   -0.9557674275    0.4111245167
 C    0.7366937186   -0.6922963369    1.1221356953
 C    0.7368022081   -0.3627989528    2.5597593804
 C    0.2028695694   -1.7313797917    2.1026735138
 C   -1.2477094873   -1.9897412690    2.1630202055
 O   -1.7566064673   -3.0770004742    2.2895979302
 H    0.5360887708    2.0304308696    0.4479668891
 H   -0.5858732203    1.8705086526   -0.9149155243
 H   -1.1556434985    1.5919262066    0.7337698838
 H   -0.7913964077   -0.5926082387   -0.4654651487
 H    1.3242787800   -1.0844668845   -1.6095376520
 H    1.9767911373    0.5068445242   -1.1132925698
 H    1.6872602557   -0.3672554200    3.0811185285
 H    0.0096231280    0.3545259586    2.9300025629
 H    0.8408768038   -2.5945873325    2.2585295329
 H   -1.8772747413   -1.0705950254    2.0749605426