19

 C    0.0870373472    1.2310119134   -0.2774796858
 O   -0.0444628287   -0.1676348414   -0.0981628872
 C   -1.3578144177   -0.5728399897    0.1910760183
 O   -2.2378101822   -0.3980939123   -0.9123308286
 C   -2.5391794217   -1.6614911548   -1.4931216404
 C   -2.0076164767   -2.6829496149   -0.5193228363
 C   -2.1879426114   -4.1572491710   -0.7103069040
 O   -1.4321378957   -4.9472983246    0.1858228225
 C   -1.3604487585   -2.0518018223    0.4558365681
 H    1.1474390910    1.4349383154   -0.4417075571
 H   -0.4886506063    1.5809623689   -1.1427298314
 H   -0.2483588461    1.7831155422    0.6141142574
 H   -1.7493649545    0.0480526987    1.0141368264
 H   -3.6267764428   -1.7315523157   -1.6343235167
 H   -2.0729111738   -1.7650195777   -2.4859676178
 H   -3.2373634466   -4.4311256185   -0.5396841329
 H   -1.9745385500   -4.4165742032   -1.7622491008
 H   -0.5044063803   -4.7232932882    0.0550604314
 H   -0.8548664551   -2.4990241643    1.2997640949