18

 C   -0.0578190026    1.5543289799    0.0845230949
 C    0.0403228217    0.0449729137    0.0906015639
 C   -1.1700026593   -0.6514287324   -0.4247366076
 O   -2.1657626719   -0.0985171739   -0.8232607353
 C    1.3019839368   -0.7543632594   -0.2283817447
 C    2.5586891799   -0.0370744372    0.2822399664
 C    1.9628372578   -0.0700656519    1.7266407494
 C    0.7230678045   -0.7862815457    1.1746841048
 H    0.8449673990    2.0342650959    0.4656001377
 H   -0.2358686166    1.9177006163   -0.9317148638
 H   -0.9035878711    1.8809959864    0.6964718473
 H   -1.0957837558   -1.7651613003   -0.4193480818
 H    1.2901224830   -1.5234749337   -0.9923620745
 H    3.4502107147   -0.6613870986    0.1940254726
 H    2.7771909199    0.9412890156   -0.1542553584
 H    2.5430273440   -0.7115963602    2.3931089088
 H    1.7944592958    0.8869040387    2.2279458186
 H    0.1885308400   -1.5842456932    1.6775457718