20

 C   -0.4256257469    1.4214783159    0.0974355018
 C    0.0943730324   -0.0083098847   -0.0104386251
 C    1.2180307289   -0.2366490486   -1.0293501380
 O    1.7647930069   -1.5072547750   -0.6981514816
 C    1.6346669179   -1.7154784098    0.7049250878
 C    0.7448655167   -0.5843330591    1.2608210294
 O    1.5489498737    0.4299487425    1.8744464823
 C    1.5918053617    0.4812196140    3.2187322184
 N    2.3599831911    1.2974688508    3.7980913012
 H    0.3748869161    2.1096558952    0.3774617780
 H   -0.8460600701    1.7495238550   -0.8583919144
 H   -1.2160489394    1.5007933875    0.8507293519
 H   -0.7287861280   -0.6853606602   -0.2718771639
 H    0.8674602674   -0.2802087130   -2.0643468841
 H    1.9776890768    0.5569931409   -0.9492180802
 H    1.1854787621   -2.7027151740    0.8691886456
 H    2.6153347538   -1.6918872593    1.1967129494
 H    0.0086408989   -0.9488304290    1.9856777434
 H    0.9052994881   -0.2273060158    3.7045552057
 H    2.2522450518    1.2182756067    4.8069996424