18

 C   -0.1610697216    1.6326467405   -0.0393120887
 C    0.0850558984    0.1487177883    0.1138966379
 O   -1.0700347930   -0.5988441869   -0.2626733541
 C    1.3374246170   -0.6747691802   -0.2220281992
 C    2.6653661080   -0.1895196064    0.4197855784
 N    2.4701646189    1.0989194193    1.1408591412
 C    2.0720972425   -0.1875920558    1.7693109541
 C    0.7189927777   -0.6752048997    1.1992957862
 O    0.0376086649   -1.6278430063    1.9167420858
 H    0.6944807552    2.2140273379    0.2918360263
 H   -0.3601415251    1.8632238900   -1.0949725432
 H   -1.0481372229    1.9160420171    0.5369659907
 H   -1.1987701121   -0.4951709081   -1.2114536096
 H    1.3004989314   -1.4258166160   -1.0019269074
 H    3.6496506393   -0.5027085905    0.0965014178
 H    3.3729183493    1.3511303491    1.5451081884
 H    2.4676260013   -0.5127324693    2.7224755160
 H   -0.7769424194   -1.7953244429    1.4221041492