18

 C    0.1361653860    1.5184396246   -0.3211968309
 C    0.0177723764    0.0350278926    0.0338516426
 N    0.4565604755   -0.7941864899   -1.1030022056
 C    1.3986346302   -1.5230569494   -0.6792513275
 O    1.7765290551   -1.4562593550    0.6191499212
 C    0.9174278931   -0.4782516999    1.2313166608
 C    1.7703181361    0.6027591791    1.8999570577
 C    1.1525240239    1.2644025288    3.1162902753
 O    2.8575492517    0.8997325252    1.4706456342
 H    1.1755092191    1.7922456988   -0.5176209129
 H   -0.4484075790    1.7163189027   -1.2227432211
 H   -0.2487233697    2.1557286407    0.4816204208
 H   -1.0316514814   -0.1950641532    0.2472317025
 H    1.9628550863   -2.2355094845   -1.2701808859
 H    0.3103963846   -0.9900065185    1.9856010035
 H    0.0987016594    1.5109570183    2.9479220008
 H    1.1832576096    0.5647166785    3.9607113142
 H    1.7130740529    2.1627915009    3.3763181302