16

 C    0.1754363722    1.4839436649    0.0121353375
 C   -0.0423181313    0.0176820447   -0.0211346722
 C   -1.1102422048   -0.8121924172    0.0319977954
 C   -2.5614685031   -0.4905149061    0.1484317800
 N   -0.6745125446   -2.1440911135   -0.0342164313
 C    0.6122348725   -2.0431035552   -0.1312831082
 N    1.5299214743   -3.0523830745   -0.3008254507
 O    1.0948670172   -0.7833223105   -0.1303732378
 H    0.7985483707    1.7858451353    0.8628384682
 H    0.6691046245    1.8445426602   -0.8984074638
 H   -0.7843570975    1.9982833227    0.1000579672
 H   -3.1183354690   -0.8852028036   -0.7085985394
 H   -2.9913702484   -0.9467035211    1.0470306490
 H   -2.7304810548    0.5881396086    0.1982235092
 H    1.1665428397   -3.9543493913   -0.0301149437
 H    2.4428522823   -2.8577700735    0.0842180306