20

 C   -0.1930198468    1.4929508923   -0.0021716096
 C    0.0376020467   -0.0206451771    0.0048493267
 C    0.9772964068   -0.5071382639   -1.0812198722
 C    1.6835762010   -1.7454392686   -0.6766420342
 N    2.4140816083   -0.4357791737   -0.6530018011
 C    2.3094953726   -0.4655383558    0.8570545463
 C    0.8380167390   -0.5240072324    1.1935307228
 C    1.6065598020   -1.7978440741    0.8643973784
 C    1.7432428214   -3.0077083461    1.7354828495
 H    0.7585429853    2.0303664459    0.0578064820
 H   -0.7039176160    1.8103786624   -0.9171342535
 H   -0.8112155517    1.8010843137    0.8472780744
 H   -0.9235970255   -0.5453878117   -0.0724517283
 H    0.8083606823   -0.2714623789   -2.1267375005
 H    1.9844434045   -2.5535407209   -1.3346706263
 H    3.0988381633   -0.0444450028    1.4657713182
 H    0.5206120288   -0.3544415635    2.2158174608
 H    0.8816699704   -3.6781793660    1.6295055330
 H    2.6435146267   -3.5808528506    1.4858875743
 H    1.8130609310   -2.7242946282    2.7906932092