17

 O    0.0526197999    1.3434796273    0.3528690905
 C    0.0730152316    0.0021652615   -0.0837459046
 C   -1.3146289086   -0.5849468622   -0.1019640293
 N   -1.9922651475   -1.1003022068    1.1171181160
 C   -1.7240899812   -2.0063969616   -0.0129894349
 C   -2.9538125509   -2.2034736439   -0.8935321235
 N   -3.2269265877   -0.8534173525   -1.3739159779
 C   -2.3263784555    0.0960015102   -0.9983392734
 O   -2.3094584746    1.2679233314   -1.3353835905
 H   -0.6175703004    1.7860454214   -0.1913951881
 H    0.5157673640   -0.0923621576   -1.0894712719
 H    0.7130699801   -0.5603401428    0.6072635825
 H   -1.2807339722   -1.2380513925    1.8342015577
 H   -1.0108255482   -2.8155118104    0.0957020653
 H   -2.7386752607   -2.8856473329   -1.7256325740
 H   -3.7966280004   -2.6047323697   -0.3196155044
 H   -4.0523655279   -0.6069433089   -1.8961358794