15

 N   -0.0318223526    1.4859823093    0.1363644383
 C    0.0294366491    0.0735837638   -0.0213621997
 C    1.2254579606   -0.6398894277    0.6902162411
 O    0.9884652966   -2.0427596456    0.6812267859
 C    1.5296967263   -1.4558576651   -0.5017195752
 C    0.3496720813   -0.8102225586   -1.2827452667
 O   -0.9212855900   -1.4942978614   -1.1278944996
 C   -1.2725377383   -0.7227653606   -0.0269025658
 N   -2.3317155151   -0.6860585908    0.6375130118
 H    0.8442784017    1.9367796345   -0.1052368102
 H   -0.7733572046    1.8973826986   -0.4192489340
 H    1.8510805937   -0.2277472332    1.4746490053
 H    2.4614105169   -1.8580922816   -0.8818583024
 H    0.5222838619   -0.4341733833   -2.2901863076
 H   -3.0099181777   -1.3725781383    0.3020056886