16

 N    0.5605273070   -1.0616319089   -0.0912099563
 C    0.3061418105    0.0661660618   -0.0814946215
 C   -0.0174854644    1.4876768094   -0.0583396766
 C   -0.2466904396    2.2364553027    1.3144811370
 C    0.9795392757    2.9247787552    2.0423326915
 C    2.4569305583    2.5863635281    1.7629228055
 C    2.3220259821    2.1206031837    0.3181072376
 C    1.1297453178    2.5141879422   -0.1741842134
 C    0.4123277777    3.4782891637    0.7882250528
 H   -0.8901453115    1.6720526453   -0.6953135157
 H   -1.1895941238    2.1756925361    1.8510209426
 H    0.6911362460    3.3424520440    3.0054223128
 H    3.0919475065    3.4598179839    1.9660524425
 H    2.8566510313    1.7542120624    2.3537978184
 H    2.8077430956    1.2057173111   -0.0065765698
 H   -0.0034505592    4.4524222294    0.5689459527