17

 C   -0.0371526082    1.5157177177    0.0101574497
 C    1.3002743333    0.8121116762   -0.0017286065
 C    0.0301480355    0.0087332224    0.0030959024
 C   -0.3706980968   -0.7367299269    1.2494382532
 O   -1.7816402300   -1.0184618061    1.2452045684
 C   -2.3144244721   -1.3046788013    0.0314415557
 N   -1.7910543449   -1.2465045839   -1.1179331349
 C   -0.4166562187   -0.7573661536   -1.2272971839
 H   -0.3445926278    2.0129848720    0.9242778025
 H   -0.3606834829    2.0131497623   -0.8979326223
 H    1.8816056925    0.8305733297   -0.9180127174
 H    1.9003068649    0.8354897343    0.9026720448
 H    0.1661109976   -1.6925188948    1.3243764526
 H   -0.1816570495   -0.1618852288    2.1595966239
 H   -3.3488603369   -1.6213659204    0.1543122011
 H   -0.3497975297   -0.1274808384   -2.1219438832
 H    0.2439838336   -1.6175413904   -1.4093087459