15

 O    0.0158409612    1.4287157427    0.1112119026
 C   -0.0011262852    0.0297197020   -0.0448568691
 C   -1.4212872332   -0.4592389334   -0.0253326013
 C   -2.4918515300    0.3398163275    0.1172387994
 C   -3.8269463342   -0.2244969116    0.1240074048
 N   -4.8780568385    0.4748643693    0.2547223478
 O   -3.9251759150   -1.6091638877   -0.0227239762
 N   -2.8222302738   -2.4407375303   -0.1704532029
 C   -1.6667482133   -1.8789092161   -0.1682182333
 H    0.9284866812    1.7293586878    0.0898179821
 H    0.4659680594   -0.2839222373   -0.9949406412
 H    0.5578655382   -0.4806341281    0.7591090885
 H   -2.4076800545    1.4117231926    0.2304385334
 H   -5.7105963440   -0.1161539362    0.2327259031
 H   -0.8417421984   -2.5770114911   -0.2869916275