19

 O   -0.0804078338    1.4227916185   -0.0488730490
 C    0.0074772285    0.0055806134   -0.0591712648
 C   -1.4077427036   -0.5492847707    0.0333471643
 C   -2.3199203537   -0.1590721557   -1.1540867682
 C   -3.3316037776   -1.3221021317   -1.3337847351
 O   -3.7744339742   -1.5080128188   -2.6649641446
 C   -2.6090592833   -2.5248901970   -0.7515564420
 O   -1.2690620498   -2.6509453968   -1.2662520211
 C   -1.4624319838   -2.0691128536    0.0355436576
 H    0.8019892864    1.7814263707   -0.1800124051
 H    0.4778498085   -0.3638027062   -0.9836320602
 H    0.6083287919   -0.3621675603    0.7891468302
 H   -1.8482859027   -0.1975096720    0.9760423341
 H   -2.8132789570    0.8019980723   -1.0076194203
 H   -1.7212227500   -0.0790447393   -2.0667716401
 H   -4.2419515234   -1.1410408684   -0.7497556368
 H   -2.9994678474   -1.7578808653   -3.1822151168
 H   -3.1302069066   -3.4617045484   -0.5728962531
 H   -1.0508322983   -2.6447106407    0.8615743412