16

 O    0.0820383533    1.4251466581    0.0834840230
 C    0.0109738206    0.0643449718   -0.0007628084
 C    0.3133940244   -0.7901827838    1.2909607194
 C    0.6587216090   -2.1538343995    0.6348386594
 C   -0.2850773578   -1.9587922346   -0.5773895745
 C   -1.2866848571   -0.8877204164    0.0947127235
 N   -1.1493769079   -0.8737876683    1.5523027414
 C    0.3650173897   -0.7372067536   -1.2320889485
 O    0.7022583628   -0.4098138274   -2.3374201349
 H    0.0972390259    1.7695738747   -0.8190681695
 H    0.9489500080   -0.3990338890    2.0847412864
 H    1.7066939455   -2.2649853191    0.3420533359
 H    0.3823074121   -2.9912217704    1.2829604746
 H   -0.6273350203   -2.8121267546   -1.1544982289
 H   -2.2452825968   -0.6928787134   -0.3803167767
 H   -1.4349627413   -1.7360104546    2.0183984975