17

 C    0.3544731866   -0.2126318812    1.2575837215
 N   -0.2774307630   -0.2403590075   -0.0707445364
 C    0.5332304303   -0.6659735948   -1.1281676955
 C    0.7367734962   -1.8793110836   -1.7564057101
 O    0.1600835282   -3.0595947086   -1.4380664794
 N    1.5940352791   -1.7259027739   -2.7824701987
 N    1.9646471204   -0.4634815187   -2.8352377963
 N    1.3215915485    0.1828928568   -1.8545958211
 C    1.5072184173    1.6041035223   -1.6597532951
 H    0.7510966760   -1.1875993492    1.5742303303
 H    1.1784604097    0.5064766114    1.2556432252
 H   -0.3829180068    0.1255647812    1.9904494355
 H   -1.1211197714   -0.8006006087   -0.0444351969
 H    0.4656544221   -3.7012692285   -2.0914111050
 H    1.8484711155    2.0273924453   -2.6043405647
 H    0.5550567431    2.0485301265   -1.3630575361
 H    2.2534468983    1.8055042713   -0.8842678172