18

 C   -0.2854714707    1.6114423238    0.2143921735
 C   -0.0909621828    0.1132184035    0.1607202724
 C   -1.3233792992   -0.6646337555   -0.2821704841
 O   -1.7247032453   -0.3096798126   -1.5895086104
 O    1.0264448673   -0.2393937535   -0.7757001469
 C    1.7940609228   -0.7076927814    0.2596411542
 N    2.9907160085   -1.0789739086    0.3177638611
 C    0.7276744799   -0.5256124032    1.3195378230
 O    1.0543914046    0.3101157916    2.3971753882
 H    0.6552954508    2.1182573790    0.4343955279
 H   -0.6838736717    1.9664845756   -0.7385807755
 H   -0.9976509743    1.8628511917    1.0061407720
 H   -1.1179302966   -1.7436435937   -0.2028266111
 H   -2.1624949118   -0.4338879014    0.3831297564
 H   -0.9759380482   -0.4948354076   -2.1687525025
 H    3.4574864181   -1.0164630677   -0.5884593898
 H    0.2963182376   -1.4752557093    1.6663390384
 H    1.9937445311    0.1869593093    2.5773910433