15

 C    0.2081437610    1.4228363038   -0.0119621408
 O    0.1727182711    0.0371768132    0.2991357044
 C   -1.0965806316   -0.5478099214    0.0846690332
 C   -1.3137321522   -0.7648056224   -1.4353319540
 O   -2.2823069941   -0.3929216106   -2.0342194285
 C   -1.1605678639   -1.8393300214    0.7497275510
 C   -1.2507730731   -2.9381666800    1.2425691241
 C   -1.3125477388   -4.2390172090    1.8639178296
 O   -2.2908267932   -4.9483990409    1.8598161704
 H    1.2240729686    1.7609475304    0.1983194302
 H   -0.0228904556    1.6197459292   -1.0678351021
 H   -0.4983947235    1.9888680452    0.6114585954
 H   -1.9123152262    0.0990807375    0.4430940791
 H   -0.4532038479   -1.2723905380   -1.9207767471
 H   -0.3692720006   -4.5464541256    2.3579114653