19

 C    0.0407866986    1.4064495505    0.0780278348
 O   -0.1017233920    0.0157082977   -0.1138422442
 C    0.6995333844   -0.5357283929   -1.1470142915
 C    2.1744977992   -0.6428976427   -0.7656831965
 C    0.0592846283   -1.9140699385   -1.4308725539
 C   -1.4462202813   -1.7269663669   -1.6848431259
 O   -2.3070786051   -2.3528967894   -1.1347728660
 C    0.6438547406   -2.5634824411   -2.5967071403
 C    1.0857194636   -3.0758407607   -3.5907708580
 H    1.0304901975    1.6771732148    0.4708149387
 H   -0.1263129317    1.9626770409   -0.8571313877
 H   -0.7161212270    1.7052770673    0.8066940399
 H    0.5998699101    0.0814962344   -2.0562526050
 H    2.6153868303    0.3452715033   -0.6094104660
 H    2.2846297800   -1.2207019360    0.1572605332
 H    2.7353810299   -1.1399814151   -1.5612929528
 H    0.1581540091   -2.5471148435   -0.5419447084
 H   -1.6726410203   -0.9637591870   -2.4623273560
 H    1.4857624556   -3.5453181751   -4.4554719245