16

 C   -0.0896179193   -1.2039755399    0.0237644822
 C   -0.0246870603   -0.0058730377    0.0835308582
 C    0.0648810837    1.4468901428    0.1364232843
 C    1.4901913922    1.9807793930   -0.0847434243
 C    1.5606045494    3.5267261078   -0.1017420060
 O    2.7217597784    3.8236039189    0.6543172767
 C    2.7766560669    2.8060075377    1.6203897226
 O    2.3601233832    1.6150151109    0.9860272737
 H   -0.1477465205   -2.2631839755   -0.0193944805
 H   -0.5908512579    1.8843077280   -0.6294079644
 H   -0.2987177672    1.8124984167    1.1050930903
 H    1.8968142697    1.5515790990   -1.0072740985
 H    1.6791544526    3.9478998173   -1.1019047081
 H    0.6630470855    3.9634623735    0.3659196749
 H    3.8080987246    2.6947677331    1.9665046367
 H    2.1129698591    3.0407733543    2.4734427522