16

 O   -0.0194613382    1.2297240634    1.1555615271
 C    0.0441074426    0.1314248527    0.3072821734
 C   -0.5518946096   -1.2021771422    0.6512110569
 C   -1.1692300249   -0.3602328731   -0.4565527896
 N   -2.4232166904    0.2805844214   -0.1917686296
 C   -2.7387483886    1.6062648995   -0.3575771750
 N   -3.9955596063    1.8261732411   -0.0755620169
 N   -4.5528233828    0.6116011241    0.2852286315
 C   -3.6073327322   -0.2858219884    0.2047052323
 H   -0.8390335236    1.1992102114    1.6610251383
 H    0.9819583473    0.1447931185   -0.2364870655
 H   -0.0283503789   -2.1098212485    0.3735909953
 H   -1.1134312925   -1.2711200869    1.5775871526
 H   -1.0383571716   -0.6844032597   -1.4844314321
 H   -2.0136377781    2.3419992806   -0.6672346055
 H   -3.7082221423   -1.3389855039    0.4158155170