15

 N    0.0666646434    1.2516488032   -0.2521148359
 C    0.0133757596   -0.0559951735    0.1427977643
 O    0.9852648834   -0.6629277507    0.5622540214
 C   -1.3032591555   -0.7203336588   -0.0095619933
 N   -1.6139341405   -1.8989598749    0.8344093904
 C   -1.5056495741   -2.0790447021   -0.6075004765
 C   -2.8304621332   -1.5701793578   -1.2807878820
 O   -3.7075216578   -1.0743763684   -0.2695061046
 C   -2.6374429944   -0.2427083704   -0.7017966910
 H    0.9182045386    1.7514417301   -0.0493090749
 H   -0.7740517150    1.7930261196   -0.3613010842
 H   -0.7069366325   -2.1660582150    1.2266827717
 H   -0.7541421806   -2.7060652896   -1.0686411421
 H   -3.2561412297   -1.8922567157   -2.2225798117
 H   -2.8736655719    0.7457296839   -1.0793269614