15

 O    0.1310793926    1.4710654622    0.2331607101
 C   -0.0239492485    0.0899605002    0.0938321027
 C    0.1590363389   -0.7314437872    1.3747127050
 C   -0.8366814215   -0.1589493096    2.4014294044
 C   -1.8831117208   -0.7402421323    1.4678938903
 N   -0.9375095855   -1.7333409594    0.8715719996
 C   -1.4182050542   -0.5438933025    0.0531525359
 C   -2.2738003003   -0.6726674418   -1.0822075473
 N   -2.9480226467   -0.7263542297   -2.0211466305
 H    0.1077673775    1.8819755942   -0.6369459319
 H    0.5810576586   -0.3249497233   -0.7211295803
 H    1.1364475920   -1.1098579173    1.6611165805
 H   -0.8066540328   -0.7220005506    3.3367364843
 H   -0.8199001554    0.9152347974    2.5936332606
 H   -2.9146967939   -1.0023093202    1.6724457866