19

 C   -0.1407567704    1.4959863900   -0.1236801676
 N   -0.0900934652    0.0628025795    0.0932697826
 C   -1.3087836649   -0.6644738907    0.5012848566
 C   -0.4194653253   -1.5862545963    1.3699402560
 C    0.6748343268   -0.5045772449    1.2010591031
 C    2.1897678987   -0.7751984822    1.0981314495
 O    2.4184198890    0.0028631715    2.3173875074
 C    1.0799105293    0.3193349562    2.4229751818
 N    0.4690559136    1.0426560893    3.2467589115
 H    0.8618322151    1.8707596675   -0.3572771381
 H   -0.7801548407    1.7022361097   -0.9882048046
 H   -0.5252244587    2.0551798587    0.7434207765
 H   -1.9954241333   -0.0592836158    1.1106202030
 H   -1.8665452186   -1.1156424880   -0.3262200684
 H   -0.7502485942   -1.7750461564    2.3905061693
 H   -0.1566184042   -2.5256966631    0.8799092566
 H    2.5150963879   -1.8109673603    1.2245417679
 H    2.6828100288   -0.3157949517    0.2375774937
 H    1.1040963765    1.4452229770    3.9390163631