16

 O   -0.1359527920   -0.0567383332    0.0723263398
 C    0.0010336264    1.1272690911    0.0455152403
 O   -1.0920205500    1.9754783577   -0.0645351429
 C   -0.7502354816    3.3817386463    0.0154259926
 C    0.6735226341    3.3199083563    0.5048331790
 C    2.1099616439    3.9111038391    0.5289978013
 C    2.1501949088    2.4608922189    1.1444665804
 N    0.8791421936    2.7428288111    1.9071067670
 C    1.2414902361    2.0032312382   -0.0293532597
 H   -0.8450815942    3.8369998317   -0.9766235029
 H   -1.4497527286    3.8562079314    0.7078270389
 H    2.6085508867    4.0869807814   -0.4291687172
 H    2.2916171961    4.7250078634    1.2361946422
 H    2.9976961707    1.9436731033    1.5941619288
 H    1.0357778920    3.5112938035    2.5661196027
 H    1.6804345180    2.0076717898   -1.0293190302