27

 C    0.1447074603    1.6176879204    0.0219014315
 C    0.0064730132    0.0921913831    0.0126599967
 C    0.6151303312   -0.5507291214   -1.2397627688
 C    0.5999590911   -2.0912006719   -1.2639269496
 C   -0.8293396765   -2.6513622126   -1.3135788895
 C    1.4563026725   -2.5991266303   -2.4399440428
 C    1.6989878612   -4.1086394557   -2.4764760467
 C    2.5877669851   -4.5158727821   -3.6529906746
 O    2.3043843879   -4.4584949996   -1.2315238684
 H    1.1971358965    1.9207660434   -0.0155051252
 H   -0.3568803200    2.0658682981   -0.8433361604
 H   -0.2954882990    2.0545854966    0.9239469807
 H    0.4940851379   -0.3251046937    0.9038529857
 H   -1.0546076116   -0.1710293488    0.0952236687
 H    0.0959073128   -0.1690023078   -2.1318734091
 H    1.6559378224   -0.2104182056   -1.3305304956
 H    1.0747199625   -2.4495319671   -0.3420809550
 H   -1.3389224338   -2.3450889892   -2.2360777251
 H   -0.8354836337   -3.7444376169   -1.2749713202
 H   -1.4296967377   -2.2982622093   -0.4705117049
 H    0.9918402895   -2.3015335280   -3.3899853028
 H    2.4373559610   -2.1076165895   -2.4022929420
 H    0.7322866374   -4.6284761732   -2.5773309380
 H    2.7583665333   -5.5990569692   -3.6574836327
 H    2.1236653404   -4.2506232160   -4.6087238657
 H    3.5607076955   -4.0183547796   -3.5872578655
 H    2.4687732702   -5.4064587244   -1.2374131907