22

 C   -0.6031629740    1.2873045446    0.1601390795
 C    0.0501289391   -0.0839080693    0.0131262855
 C    1.1694173870   -0.1557650221   -1.0305878525
 O    1.8574608684   -1.3702645565   -0.7656500511
 C    1.7242033394   -1.6890810294    0.6181669940
 C    0.7793235716   -0.6480450150    1.2554115563
 N    1.5580107503    0.3919899546    1.9266042377
 C    0.9411722336    1.0463718497    3.0744276733
 C    2.0495365116    0.0716435554    3.2623144060
 H    0.1319592493    2.0441276300    0.4453215706
 H   -1.0598460425    1.5971494309   -0.7857979321
 H   -1.3936904028    1.2775651464    0.9175787852
 H   -0.7133706810   -0.8211250080   -0.2674218668
 H    0.8016183394   -0.1911385932   -2.0610606326
 H    1.8421388804    0.7098640229   -0.9273175858
 H    1.3157757019   -2.7042692682    0.7036550301
 H    2.7059239691   -1.6716177957    1.1076031073
 H    0.0756160153   -1.1309210864    1.9549831925
 H    1.1187709310    2.1139205529    3.1673128441
 H   -0.0562513246    0.7244307716    3.3706760365
 H    1.7888424881   -0.8978863715    3.6851523885
 H    3.0546832094    0.4120617263    3.4934808740