18

 C    0.2927598619    1.3656305995    0.1035110553
 O    0.1904865850   -0.0510106578    0.0735529455
 C    0.5817641116   -0.6178952231   -1.1281661726
 O    1.9808834482   -0.4271804750   -1.3612970335
 C    2.6740812392   -1.5672734276   -1.0171570882
 O    3.8698787821   -1.6370439927   -1.0175155066
 N    1.7553581770   -2.5354644958   -0.6980699282
 C    0.4030733817   -2.1555330653   -1.0720866345
 C   -0.6643765920   -2.6519704201   -0.1052500068
 H    1.3329422656    1.6918160180    0.0010671103
 H   -0.3054219623    1.8207868929   -0.6995527669
 H   -0.0989962606    1.6886560631    1.0694208864
 H    0.0572533376   -0.1485907131   -1.9710080841
 H    2.0653874252   -3.4927009243   -0.6762992072
 H    0.1671213236   -2.5045415537   -2.0888173516
 H   -0.4614707615   -2.2981701183    0.9058961856
 H   -1.6520743321   -2.2940773706   -0.4101805316
 H   -0.6905630201   -3.7462041762   -0.1037430715