12

 O   -0.0192374475    0.5246226808   -1.0580614540
 C   -0.0180447588    1.3170962614   -0.1561814456
 N   -1.1982341182    1.7576368437    0.4688580042
 C   -1.5287699101    2.9918866505    0.3476503906
 C   -0.7344372558    4.0676266347   -0.2232266066
 C    0.6210820307    4.0861121234   -0.2412624694
 C    1.4593422609    3.0326306374    0.3078859762
 N    1.1658939120    1.7898792443    0.4374107008
 H   -2.5036343945    3.2804612102    0.7479974006
 H   -1.2739820950    4.9618900316   -0.5236300585
 H    1.1278658249    4.9946457486   -0.5555799774
 H    2.4362601213    3.3478144833    0.6823193589