18

 C   -0.1829558140    1.5425422119   -0.0084992632
 C    0.0151968323    0.0330526697    0.0356263805
 N    0.8564532029   -0.4526604166   -1.1301306062
 C    1.9815828675   -1.2161453741   -0.5355385139
 C    2.8711664251   -0.2053366507    0.1841224822
 O    2.0672893317    0.2167157910    1.3228050192
 C    0.8230806726   -0.4869490639    1.2427932024
 C    1.2743269544   -1.8448322524    0.6762591374
 O    1.0674171561   -2.9754276890    1.0116184495
 H    0.7739725080    2.0571086026    0.1009714985
 H   -0.6283491508    1.8354725583   -0.9636622141
 H   -0.8476513892    1.8696579252    0.7984931904
 H   -0.9625549179   -0.4677342250    0.0319954493
 H    0.3047905660   -1.0651221868   -1.7215534175
 H    2.4750656046   -1.8799632596   -1.2415168766
 H    3.8036282627   -0.6518583599    0.5488724947
 H    3.0944770431    0.6621364060   -0.4453483961
 H    0.3282934448   -0.4767188668    2.2110608134