16

 C   -0.0669653693    1.4792711597   -0.0062963929
 C   -0.0037039279   -0.0135358986    0.0354038020
 N   -1.2039105805   -0.8517618895   -0.1735634393
 C   -0.4932282087   -1.9717499253    0.5731325050
 C    0.6507940326   -1.0206209487    0.9905920959
 C    1.1946466398   -0.8424644517   -0.3945461959
 O    1.0022418986   -1.9943620658   -1.1970858044
 C    0.0830121625   -2.8039456578   -0.5739581642
 O   -0.1934747467   -3.8985553903   -0.9575208420
 H    0.9219254772    1.9178074563    0.1571730613
 H   -0.4322893114    1.8150419467   -0.9829174218
 H   -0.7400826308    1.8724442280    0.7640398767
 H   -1.9402536218   -0.5049745649    0.4378396064
 H   -1.0853762805   -2.5271494479    1.2937975133
 H    1.1991080645   -0.9581813232    1.9224821567
 H    2.1420792423   -0.3560959072   -0.5839743266