14

 O    0.7674605252    0.8714594627    0.7079794340
 C    0.1937354312   -0.2349154279    0.1006099863
 C   -1.3636455283   -0.3784599749    0.0610484594
 N   -2.0396799393    0.9251036459   -0.0320784017
 C   -2.4456475677    1.0336306909   -1.2332538222
 O   -2.1966131768    0.0450665145   -2.1262120458
 C   -1.3205601775   -0.8539947605   -1.4224619339
 C    0.1733402770   -0.3731118251   -1.4552236367
 O    0.9138163122   -0.0712532079   -2.3377649693
 H    0.1886307912    1.6248810859    0.5298021502
 H    0.6531355570   -1.1343501023    0.5323073785
 H   -1.8120415271   -0.9978735238    0.8385783089
 H   -3.0090396547    1.8686522380   -1.6338714409
 H   -1.5404117223   -1.8814157155   -1.7078874468