18

 C    0.3544123570    0.5621374033   -0.9110615409
 C   -0.1254074254    0.2199126541    0.4817420165
 O    0.3162521036    0.7453156873    1.4749058069
 C   -1.2508997815   -0.8171442521    0.6001934794
 C   -0.8561851805   -2.2079732086    0.2046280479
 N    0.2295666593   -2.5731301584   -0.3433779196
 C    0.1453578259   -4.0305363451   -0.5179871825
 C   -1.2390263467   -4.4148755926    0.0662795908
 O   -1.7945158015   -3.1497139141    0.4953326000
 H    1.1042501700    1.3521168408   -0.8577748468
 H    0.7759039213   -0.3360260142   -1.3718338766
 H   -0.4859616548    0.8882594130   -1.5349871909
 H   -1.5920798431   -0.8312805560    1.6388263192
 H   -2.1056795846   -0.5153257716   -0.0197510735
 H    0.2393911914   -4.2862700743   -1.5785583412
 H    0.9731810296   -4.5166833794    0.0080456613
 H   -1.9191405182   -4.8554082996   -0.6676139908
 H   -1.1802222721   -5.0740471924    0.9364581909