23

 C   -1.5879074074    1.8685054906   -0.2987977580
 C   -1.3233638679    0.3617568400   -0.1534505270
 C   -0.1491406726   -0.1808602541   -1.0097025152
 C   -0.2689818206   -0.0133250067   -2.5257039268
 C    0.2620092855    1.2879317390   -3.1050796644
 C   -0.0521063692   -1.2484704760   -3.3742930240
 C   -1.4386408111   -0.6736016350   -3.2211526956
 C   -1.0122126728    0.0462068479    1.2973825445
 O   -1.5617238314   -0.7943671970    1.9612185138
 H   -0.6863070712    2.4564248770   -0.0928407548
 H   -1.9263251559    2.1086585029   -1.3087775380
 H   -2.3681375927    2.1954645976    0.3964639286
 H   -2.2307703688   -0.1965903175   -0.4056639223
 H    0.7874526711    0.2865678155   -0.6743700999
 H   -0.0541580746   -1.2481283162   -0.7781484773
 H    1.3268579831    1.4101862472   -2.8730790609
 H    0.1592319414    1.2977164500   -4.1948768429
 H   -0.2617633820    2.1667377341   -2.7187512056
 H    0.4508386997   -1.1273705793   -4.3281232775
 H    0.1671811914   -2.1860133637   -2.8743326332
 H   -2.1503266049   -1.2283166200   -2.6186044250
 H   -1.8831742141   -0.1664197151   -4.0711311075
 H   -0.1888243348    0.6669116289    1.7292066891