18

 C    0.0067609461    1.5454398853   -0.0552180561
 C   -0.0229279536    0.0467047683   -0.0035542714
 C    0.5023067315   -1.0232820894   -0.9687630693
 C    1.1127926944   -0.8589770005    0.4030926147
 N    0.6815647837   -1.9226194837    1.3294310599
 C   -0.2463238631   -2.8123420615    0.6151973455
 C   -0.7653708316   -1.7748361663    1.5582069865
 C   -1.2139778011   -0.8733804990    0.3782351993
 C   -0.6710294842   -1.9617125912   -0.6130892766
 H    0.9782662963    1.9090466373   -0.4060725300
 H   -0.7583560288    1.9407362178   -0.7329303882
 H   -0.1704696332    1.9778269259    0.9369378348
 H    1.0451777294   -0.9332165859   -1.9025524157
 H    2.1172385978   -0.4765723402    0.5312091647
 H   -0.1384368750   -3.8875852933    0.7048567565
 H   -1.1614883352   -1.8414735623    2.5655030155
 H   -2.2351993404   -0.5058895282    0.3124741845
 H   -1.3022898530   -2.3842446333   -1.3901212446