17

 C    0.2416819075    1.4177691718    0.1251102227
 C    0.0063269674   -0.0564193925    0.0449256314
 C    0.0573263523   -0.8222627482   -1.0517275923
 C   -0.1961566439   -2.2616539722   -0.7466539744
 O    1.0507827435   -3.0661834000   -0.6110949508
 C    0.9340992834   -3.0859122277    0.7530471368
 O    1.6808977067   -3.5729808477    1.5408413177
 C   -0.3902642685   -2.3124160402    0.7841214954
 C   -0.3342539751   -0.8587611913    1.2893125392
 H    1.0894411160    1.6412336738    0.7846257944
 H    0.4496606801    1.8491367731   -0.8570005232
 H   -0.6282326716    1.9327194201    0.5514393274
 H    0.2802891813   -0.4648008438   -2.0502525892
 H   -0.8851589272   -2.7918457210   -1.4053796024
 H   -1.2213309339   -2.8998495839    1.1738238164
 H    0.4100526898   -0.7209554972    2.0826967704
 H   -1.2956085181   -0.5403969331    1.7111062008