18

 C    0.8624121292    1.4741609364   -0.4084716632
 C    0.2513262320    0.2072914539    0.1952557682
 C   -0.1349627044   -0.8654640760   -0.8721114292
 N    0.9509351468   -1.8595088219   -0.8712185021
 C    1.6330268680   -1.5970707150    0.1804911348
 N    2.7406497260   -2.3703410947    0.5340237087
 C    3.6734456854   -2.0871637357    1.4924667783
 O    3.6755563532   -1.1139776134    2.2166315785
 N    1.2217031259   -0.5638186443    0.9887268701
 H    1.6962444508    1.2230072465   -1.0725039643
 H    0.1120616335    2.0180231891   -0.9919402496
 H    1.2342853869    2.1476990171    0.3710262819
 H   -0.6068781435    0.4756430095    0.8191571426
 H   -1.0826424349   -1.3563241174   -0.6146255526
 H   -0.2571508143   -0.4253530230   -1.8674428227
 H    2.8813168735   -3.1754640412   -0.0586954286
 H    4.4530082127   -2.8691082988    1.5384891876
 H    1.9134954631   -0.1187127410    1.5773607416