16

 C   -0.1271896029    1.3923764522   -0.0151983946
 C    0.1583223048   -0.0924065801    0.0957630281
 C    0.7737024589   -0.7493654736   -1.1585913433
 O    1.7831690976   -1.6256465795   -0.6567144132
 C    1.7432931513   -1.5531586804    0.7589096108
 O    1.1719908861   -0.3116575527    1.0829875212
 C    0.9803175049   -2.6819323745    1.3283031381
 C    0.3707491508   -3.6022890920    1.8028253998
 H    0.7822044910    1.9372195097   -0.2852492408
 H   -0.8870789251    1.5758107562   -0.7813535418
 H   -0.4990993165    1.7845140790    0.9349387208
 H   -0.7509815297   -0.6360593020    0.3900919434
 H    0.0331363623   -1.3126787963   -1.7366809930
 H    1.2486239225   -0.0087844224   -1.8133301166
 H    2.7707835708   -1.5630954271    1.1374953379
 H   -0.1646681969   -4.4178981065    2.2231972532