19

 O   -0.0892971778   -0.0265730859    0.1375612888
 C   -0.0017821579    1.1824403231    0.0829331726
 N    1.1483365150    1.8820507711   -0.1242624072
 C    2.4304884529    1.2046157005   -0.2237867035
 C    3.2966388077    1.5946085710    0.9819395698
 N    3.3554838186    3.0288919793    1.2792575845
 C    3.7064155558    3.9606072918    0.2156825802
 C    2.3079716182    3.8981946106    0.7324404069
 C    1.1922769143    3.3326384490   -0.1572889632
 H   -0.8748231210    1.8558947593    0.1953715246
 H    2.2371051436    0.1308445574   -0.2304429779
 H    2.9125618708    1.4725055569   -1.1740028601
 H    2.8851835502    1.1035943726    1.8709627082
 H    4.3216580861    1.2321970567    0.8498622080
 H    4.3716940016    4.7698634442    0.5053033958
 H    3.8764382254    3.5779881482   -0.7902341158
 H    1.9794171379    4.6695704389    1.4252008599
 H    1.3274625567    3.6809008353   -1.1921319082
 H    0.2244824217    3.7109144401    0.1834847468