21

 C    0.0249225136    1.5613221524    0.0202645467
 C    0.0960143094    0.0504977622   -0.0591023183
 C    0.6508521648   -0.7494857654   -1.2080762430
 C    1.3240123228   -0.7916742292    0.1659902809
 C    2.5939903620   -0.1194898124   -0.4066998526
 C    3.8034273526   -0.9086499794   -0.2845598572
 C    4.8047929816   -1.5642568601   -0.1627049911
 C    1.9002885928   -0.1076641967   -1.8345077977
 C    2.5638099684   -0.9594532168   -2.9070904192
 H    0.8989604519    2.0504111518   -0.4171977006
 H   -0.8568191713    1.9345859307   -0.5119580999
 H   -0.0504903461    1.8928339470    1.0616953738
 H   -0.7831038287   -0.4321941885    0.3658631113
 H    0.0673608088   -1.5204420286   -1.6996030059
 H    1.3529589977   -1.5938530450    0.8932715509
 H    2.7859872621    0.8813292181   -0.0020656117
 H    5.6916606882   -2.1379781457   -0.0557364746
 H    1.7465334959    0.9064227319   -2.2210903753
 H    2.7265027355   -1.9838127005   -2.5598196023
 H    1.9296529124   -0.9982392940   -3.7997228637
 H    3.5352458258   -0.5479045117   -3.1967204307