20

 C    0.0479751860    1.6123010272   -0.1404621124
 C   -0.0286840645    0.0918795827    0.0177543697
 C    0.9401326364   -0.7157187037   -0.8913685296
 O    1.7009851228   -1.1429379335    0.2836938212
 C    0.8652218300   -0.4495245000    1.1272661299
 N    0.8863139426   -0.3259707115    2.3764699443
 C   -1.4652425353   -0.3938282872    0.0279723097
 C   -1.8717769738   -1.7111783642    0.6402203019
 C   -2.2756309782   -0.4148732473    1.2993092860
 H    1.0844709161    1.9613631047   -0.1757791557
 H   -0.4518094957    1.9272687885   -1.0630239994
 H   -0.4475406757    2.1023894136    0.7016825388
 H    0.5070316467   -1.5765449876   -1.4055025564
 H    1.5688023802   -0.1330457772   -1.5695529613
 H    1.6646423032   -0.8421166675    2.7907717348
 H   -2.0044033243   -0.1078529278   -0.8729014164
 H   -2.6294109986   -2.2947827202    0.1291871953
 H   -1.1120848157   -2.3038280422    1.1381031872
 H   -1.7612185413   -0.1536591006    2.2171391719
 H   -3.3141981410   -0.1076698461    1.2482794407