16

 O    0.0566251983    1.4205451564    0.0152752237
 C    0.0277736552    0.0039720659   -0.0130820613
 C   -1.4431149308   -0.5346525506   -0.0668300902
 C   -1.6635231634   -0.6769119515   -1.5435575979
 C   -2.5725987268   -0.8050515611   -2.5380475215
 O   -1.9382325243   -0.8848154226   -3.7291656066
 N   -0.5502819107   -0.8073839646   -3.5307128692
 C   -0.4221056731   -0.6888697358   -2.2381221308
 C    0.7343001208   -0.5547362804   -1.2911291300
 H   -0.3796527494    1.7451178560   -0.7815020334
 H    0.5385418912   -0.3068098715    0.9009612723
 H   -1.5208793290   -1.5029342623    0.4430905063
 H   -2.1135989438    0.1615338639    0.4428130556
 H   -3.6494009453   -0.8499319758   -2.5887559969
 H    1.5267523801    0.1183315925   -1.6244934570
 H    1.1851134810   -1.5348844486   -1.0951774430