18

 O    0.0385793854    1.5326968770    0.0572259253
 C    0.0484186799    0.1245731170   -0.0046433086
 C   -1.2904305482   -0.6507397626   -0.0118686198
 C   -1.9406587223   -0.3306650581   -1.3587422859
 C   -1.5040219466    0.8314210393   -2.1731164168
 N   -0.7742898678   -0.4494873869   -2.3025340751
 C    0.3020504404   -0.7021526464   -1.3083697650
 C   -0.4121339284   -1.8613966134   -0.5050961153
 O    0.2952131566   -2.4953631554    0.5309271668
 H    0.9177317223    1.8247129036    0.3141477259
 H    0.6796776644   -0.2835959929    0.7870824897
 H   -1.9234115690   -0.7231484640    0.8711453704
 H   -2.8426470740   -0.8756529725   -1.6240091352
 H   -2.0907858904    1.0484769580   -3.0623448651
 H   -1.0309432719    1.6817845480   -1.7073822324
 H    1.2885746621   -0.8127956474   -1.7597223357
 H   -0.9311772716   -2.5776047420   -1.1501558346
 H    0.8801669992   -3.1491568916    0.1354127415