15

 C   -0.0854419143    1.5328681861    0.0116110065
 C   -0.0095006575    0.0184469332    0.0038059674
 O   -1.3414723805   -0.4945386990    0.0116277845
 C   -1.4434410792   -1.8367254014    0.0061044786
 C   -0.5046771957   -2.8258802040   -0.0058816228
 O   -1.1207015047   -4.0289407330   -0.0067832362
 N   -2.4912611672   -3.8428976669    0.0048401910
 C   -2.6777329902   -2.5472588256    0.0124123554
 H    0.9223407656    1.9579608617    0.0057889110
 H   -0.6208108247    1.8963676098   -0.8695871828
 H   -0.6070082605    1.8879347670    0.9044475422
 H    0.5146843334   -0.3492458107   -0.8905024460
 H    0.5283756968   -0.3577337476    0.8863763164
 H    0.5714769994   -2.8430244563   -0.0143769907
 H   -3.6789683408   -2.1422634433    0.0221539655