19

 O    0.1950103422    1.4267135210    0.3068875274
 C    0.0824399365    0.0505229115    0.0151002273
 C   -1.3629191435   -0.4780614898    0.0485257633
 C   -2.1792365990   -0.0696205810   -1.2030088819
 C   -2.2785544809    1.3675183603   -1.4410362971
 C   -2.3705448332    2.5489420262   -1.6514582717
 C   -1.3842897856   -2.0225399498    0.1612768123
 C   -0.8328759296   -2.5250458641    1.4132528882
 C   -0.3825696693   -2.9250169697    2.4534503873
 H   -0.3291323385    1.9122754761   -0.3410824986
 H    0.5348494553   -0.2002878397   -0.9615370917
 H    0.6645085621   -0.4683317050    0.7825311725
 H   -1.8441852064   -0.0556415970    0.9371425780
 H   -1.7315896466   -0.5447879432   -2.0874551387
 H   -3.1941482866   -0.4792142896   -1.1198145042
 H   -2.4645938501    3.5908921056   -1.8357088017
 H   -2.4171093431   -2.3784565772    0.0553529000
 H   -0.8290679237   -2.4550622493   -0.6832525536
 H    0.0149150898   -3.2831214452    3.3706536730