19

 C   -0.0870356506    1.5329182574   -0.0372852111
 C   -0.0146937990    0.0082106004   -0.0132498967
 O   -1.2844465489   -0.5797948505   -0.1559247229
 C    1.1344540860   -0.5684724136   -0.9010660768
 O    1.5336843835    0.2689462708   -1.9590820474
 C    2.0382366430   -0.6882055683    0.3657100228
 C    0.7646850975   -0.5382038497    1.2014005015
 C    0.5358694489   -0.3703876137    2.6344353523
 O    0.2661916167   -1.6147645733    1.9731133291
 H    0.8874978466    1.9910995195    0.1488603816
 H   -0.4222122721    1.8812899934   -1.0202415456
 H   -0.7912661422    1.8794196869    0.7246001760
 H   -1.7524842453   -0.1100760058   -0.8546197834
 H    0.8316417437   -1.5629611655   -1.2536963960
 H    2.2218135902   -0.1785787210   -2.4609079140
 H    2.5892669989   -1.6199580466    0.5056537723
 H    2.7169002900    0.1644503992    0.4599663446
 H    1.3804211409   -0.3780339840    3.3228859217
 H   -0.3449257179    0.1674564446    2.9833918021