18

 O    0.0666167015    1.2432564876   -0.4109816372
 C    0.0775488463   -0.0787174368    0.0672238811
 C   -0.0101941369   -0.3151048371    1.5909826043
 O   -1.1853786915   -1.1322458941    1.4189995040
 C   -1.2977223616   -0.7823959276    0.0272134536
 C   -2.5306395128    0.0093292484   -0.4657946646
 C   -2.5070157319   -0.8563190672   -1.7561557802
 C   -1.6087954347   -1.8806775444   -1.0064825278
 H    0.9697305894    1.5738558715   -0.4246218280
 H    0.8638960888   -0.6746633536   -0.4144871476
 H    0.8086493843   -0.8644240191    2.0696248964
 H   -0.2194751983    0.6049817098    2.1521231556
 H   -3.3910077742   -0.2213774833    0.1686598764
 H   -2.4231675247    1.0901846436   -0.5636813959
 H   -3.4645854324   -1.2178905595   -2.1350795665
 H   -1.9732952363   -0.3591025591   -2.5697988664
 H   -0.7651973138   -2.3310322467   -1.5376699066
 H   -2.1985356012   -2.6750260624   -0.5396076108