19

 C    0.1783852856    1.5140733422    0.1717772793
 C    0.0341968176   -0.0119838383    0.0425353504
 C    0.5775376788   -0.7018526679    1.3142456996
 C   -1.4520607638   -0.3855187727   -0.1571416899
 C    0.8217051230   -0.4910676676   -1.1465702248
 C    1.5967682035    0.1278450995   -2.0819971747
 N    2.0632727094   -0.8443991427   -2.9341381622
 N    1.6411607518   -1.9758427145   -2.5954001349
 O    0.8196345494   -1.7964959741   -1.4242904033
 H    1.2228839346    1.8064802314    0.3180107284
 H   -0.2026223614    2.0287666372   -0.7158054277
 H   -0.3926130912    1.8679673070    1.0351741108
 H    0.0035234349   -0.3764336164    2.1873971698
 H    0.4990858844   -1.7890122305    1.2356034051
 H    1.6283986281   -0.4471384401    1.4825012358
 H   -1.8635181086    0.0972754520   -1.0488334563
 H   -1.5744212388   -1.4658156063   -0.2677748362
 H   -2.0367314493   -0.0586260781    0.7083670956
 H    1.8509192420    1.1649684300   -2.2098966649