19

 C   -0.1257532637    1.6285567953    0.0327248051
 C    0.1210685654    0.1317760506   -0.0500710380
 C    0.6926404346   -0.7177556307   -1.1803992743
 C    2.0377334833   -0.2108253767   -1.8016790083
 C    2.5365091629   -0.5228557018   -3.1725078386
 O    2.4064420403    1.0449390662   -1.1965296587
 C    2.6693355720   -0.1729664605   -0.4852613346
 C    1.3551431776   -0.6961512529    0.1916066748
 O    1.4105766088   -1.7520399678    1.0859141227
 H    0.7017308023    2.2110437816   -0.3601634267
 H   -1.0328842755    1.8845371374   -0.5269597145
 H   -0.2978640821    1.9191629627    1.0760019068
 H   -0.7148448131   -0.4323098727    0.3699325042
 H    0.1242773806   -1.5248198865   -1.6260602068
 H    1.9424353540   -0.0005715209   -3.9314196508
 H    3.5792766281   -0.2117334492   -3.2768698466
 H    2.4672820352   -1.5969981787   -3.3729799588
 H    3.6832703313   -0.3740384940   -0.1561291682
 H    1.4548438381   -1.3883119216    1.9776827812