21

 C   -0.0986041683    1.5585876430   -0.1417701011
 C   -0.0640811849    0.0357005447   -0.0211607079
 C   -1.4368493682   -0.5737554883   -0.2869771651
 C    1.1301578192   -0.6017208518   -0.7806414465
 O    1.8414409098   -0.8546599506    0.4481406101
 C    0.6784476545   -0.5210807158    1.2366355176
 C    1.0173202101    0.3742227960    2.4262228773
 C    1.9482580177   -0.3311271615    3.3923455766
 O    1.7055443131   -0.5177173544    4.5576152898
 H    0.8910680720    2.0022664201    0.0014953888
 H   -0.4473585264    1.8483835802   -1.1391522034
 H   -0.7811519119    2.0048434524    0.5894167758
 H   -1.7946391542   -0.3122499419   -1.2891076973
 H   -1.4113418749   -1.6656628256   -0.2139051715
 H   -2.1768296880   -0.2056946674    0.4327871390
 H    0.8870487134   -1.5331734523   -1.3097048782
 H    1.6949152650    0.0552997291   -1.4522647124
 H    0.1931689557   -1.4375940789    1.6070270951
 H    1.5259324947    1.2768215374    2.0664316876
 H    0.1098417428    0.6635498749    2.9650236082
 H    2.8997900386   -0.6807745895    2.9373406676