17

 C    0.0384596569    1.3087211956   -0.0261311143
 O   -0.0102112211   -0.1002854748   -0.0543685447
 C   -1.3229710652   -0.6078706009    0.0308803793
 C   -1.2416508996   -2.0997337859    0.0304127076
 N   -2.2574815985   -2.9466380094    0.0199297018
 C   -1.6295378659   -4.1605988183    0.0366692417
 N   -2.3410984360   -5.3435510156    0.0949464056
 N   -0.3030492984   -4.1164130392    0.0484175969
 N   -0.0811114164   -2.7675347102    0.0520451693
 H    1.0888410629    1.5988134882   -0.0972910770
 H   -0.5126584994    1.7493660182   -0.8706483113
 H   -0.3815216698    1.7097723741    0.9087721964
 H   -1.8236780647   -0.2615068440    0.9501956213
 H   -1.9412759029   -0.2692681084   -0.8161276187
 H   -3.2566150799   -5.2709162654   -0.3239344973
 H   -1.8207838683   -6.1423689051   -0.2375739595
 H    0.8496732563   -2.3872777189    0.0510246129