16

 C    0.0491226063    1.5251441151    0.1133226292
 C    0.0466365454    0.0289857735    0.0336876106
 C   -0.0005755037   -0.7793896858   -1.1084917668
 N    0.0171871591   -2.0892447005   -0.6986263458
 C    0.0738247190   -2.1576958838    0.6575153327
 C    0.0930620846   -0.8550743530    1.1355596395
 O    0.1481238638   -0.5399259606    2.4604569324
 C   -0.0594721282   -0.4848354580   -2.5186733716
 O   -0.0950836153   -1.3439077061   -3.3849969076
 H    0.9541116218    1.9043943998    0.6055992675
 H    0.0074532764    1.9832980349   -0.8769501355
 H   -0.8120421681    1.9033868609    0.6794498956
 H   -0.0096773183   -2.8509314796   -1.3567558985
 H    0.0965915951   -3.0927009269    1.1922814368
 H    0.1513702927    0.4177444240    2.5502316815
 H   -0.0709284205    0.5933381460   -2.7796394598