16

 C    0.0065746693    1.5261821265    0.0102478381
 C   -0.0184826351    0.0267367142    0.0407588671
 C   -1.3542693149   -0.7903543203    0.1288245194
 O   -1.1171418463   -2.1538509633   -0.2238444026
 C   -0.7614830081   -1.7152084497    1.0892328470
 C    0.5989953098   -0.9593411519    1.0284462778
 C    1.1492278718   -0.8436899493   -0.3822765251
 C    1.1861817189   -1.8600763526   -1.4054087289
 N    1.3406171242   -2.6211283963   -2.2625950358
 H    1.0103961295    1.9109831584    0.2142042669
 H   -0.3073063654    1.9064348200   -0.9686356534
 H   -0.6701490512    1.9443427443    0.7640147098
 H   -2.3564463706   -0.3968370818    0.0101907169
 H   -1.1713048986   -2.2512569022    1.9353627898
 H    1.2227339579   -0.7588818006    1.8900238822
 H    2.0722126388   -0.2662081754   -0.3848628693