18

 O   -0.3727510024    0.1513252676   -0.0944956550
 C   -0.0969908300    1.3166191099    0.0206054189
 C    1.3120310021    1.8826622921    0.0505017237
 C    1.5387409802    2.6834035271   -1.2596855462
 C    2.7343832679    3.6257362728   -1.1871417629
 N    2.4201966904    5.0407142431   -0.8987956996
 C    3.1032773884    4.2098862091    0.1249926758
 C    2.3114651899    3.8042250331    1.3123500815
 C    1.5062212717    2.7428083877    1.2835222182
 H   -0.8938699813    2.0940819797    0.0991263963
 H    1.9911478722    1.0212086202    0.0877013358
 H    1.6536427710    1.9815180496   -2.0910586933
 H    0.6477188582    3.2878234495   -1.4638285175
 H    3.5398903703    3.4275367668   -1.8891992427
 H    3.1048243092    5.6433282282   -1.3510515667
 H    4.1531352932    4.4266503802    0.3116333747
 H    2.4255065111    4.3836468676    2.2246052315
 H    0.9669256879    2.4478274257    2.1806008277