23

 C   -0.1324126927    1.6206555127    0.0707503283
 C   -0.0031344854    0.0978892244   -0.0297944953
 C    0.7542755906   -0.5051046290    1.1598347537
 C    0.8063005483   -2.0503552547    1.1691588877
 C    1.6209189522   -2.6290642816   -0.0124193130
 O    1.6735831268   -4.0388660599    0.0067030040
 C    1.3649843403   -2.5562881944    2.4251009841
 C    1.8641858637   -2.9871271155    3.4348645579
 C    2.4427008662   -3.4906370780    4.6736663990
 H    0.8521293362    2.1003498212    0.1026732963
 H   -0.6751403751    2.0317940280   -0.7859790141
 H   -0.6708759097    1.9127996606    0.9791056330
 H   -1.0032148650   -0.3522165752   -0.0866243167
 H    0.4999515100   -0.1582446985   -0.9696890333
 H    1.7800611514   -0.1148625316    1.1877577804
 H    0.2797607951   -0.1747989343    2.0912712032
 H   -0.2191142900   -2.4343137396    1.0700229485
 H    1.1472242175   -2.3551384447   -0.9590534613
 H    2.6290653186   -2.1824460951    0.0027140085
 H    1.9841872995   -4.2903670276    0.8855478092
 H    2.0439491842   -4.4787635019    4.9284161962
 H    3.5319116261   -3.5814644773    4.5989061218
 H    2.2243438415   -2.8200377280    5.5120502220