18

 O    0.1338879813    1.3753299888    0.2430995084
 C    0.0136479484   -0.0134385327    0.0791518802
 C   -1.4206833639   -0.5221401371   -0.0289670956
 C   -2.3761012144    0.2523581083   -0.9839196688
 C   -2.5077464873   -1.0241900864   -1.8662881046
 C   -1.3461628303   -1.6683300749   -1.0789271479
 O   -0.0789461140   -1.5108533205   -1.7586454144
 C    0.6260035556   -0.4806954847   -1.2337092944
 N    1.6451477416    0.0723416703   -1.7334482132
 H    0.9104408182    1.6288223513   -0.2783480061
 H    0.5280239761   -0.5482290073    0.8961529662
 H   -1.8621797583   -0.7929052577    0.9294719777
 H   -3.2979440440    0.6207129498   -0.5322053830
 H   -1.8771327106    1.0898059070   -1.4750352702
 H   -3.4488962452   -1.5574282494   -1.7086000042
 H   -2.3366364932   -0.9198606179   -2.9396394376
 H   -1.4316191409   -2.7130773353   -0.7755220920
 H    1.9043003309   -0.3322857216   -2.6328823606