16

 O   -0.0073370312   -0.0814604617    0.3572058482
 C    0.0621168923    1.0982039534    0.1154904671
 O    1.2058382119    1.8001025742    0.0423295883
 C    2.4110487306    1.0407649805    0.2924804862
 C    3.5731771779    1.9847181665    0.2141122012
 C    4.8767771102    1.4725010028   -0.2796737764
 N    4.0960710629    2.4197592982   -1.0878321109
 C   -1.0815069586    1.9476934840   -0.1371420859
 C   -2.0653721897    2.6064736759   -0.3398870691
 H    2.3328913303    0.5706702024    1.2781976277
 H    2.4897891025    0.2411185043   -0.4527194030
 H    3.5698629049    2.7704570741    0.9659433836
 H    5.8014450576    1.8677596573    0.1298250245
 H    4.9301047349    0.4321589555   -0.5919780261
 H    3.6141735463    1.9304062365   -1.8387416504
 H   -2.9354390828    3.1901156760   -0.5192832452