18

 C    0.1942134835    1.7558362095    0.3797350460
 C    0.0645805021    0.2505534546    0.4148447455
 C    1.0973680671   -0.7320030523   -0.1745863436
 C    2.4658521496   -0.2741206300    0.1968406573
 N    3.5548896522   -0.1237840321   -0.4034784361
 O    2.1608150843   -0.1111902572    1.5547270601
 C    0.8302426723   -0.6554753936    1.3164122096
 C    0.3322852781   -1.6519943201    2.3264044098
 O   -0.9553335710   -2.1413046152    2.0002586450
 H    1.1999311277    2.0729982472    0.6627650936
 H   -0.0189799628    2.1406475276   -0.6221286421
 H   -0.5128535859    2.2196829462    1.0759358422
 H   -0.9368596834   -0.1315470743    0.2231876465
 H    0.8449755194   -1.4793868160   -0.9121961686
 H    4.2918417744    0.1732664648    0.2384624562
 H    1.0025943305   -2.5173771959    2.3481702890
 H    0.3619833159   -1.1931454624    3.3266232615
 H   -1.5962064240   -1.4549772906    2.2105571781