22

 C   -0.0294671076    1.6232736128   -0.0743566803
 C    0.0221371516    0.0944382674   -0.0015677515
 C   -1.3726004128   -0.5412660618    0.0753957432
 C   -1.3920684565   -2.0758697502    0.0669627571
 C   -0.8007773086   -2.6807793346    1.3390666962
 O   -0.8783023947   -4.1143804161    1.3315280189
 C   -1.9915062939   -4.6423130859    0.7671660319
 N   -2.9244050630   -4.0689865687    0.1367483241
 C   -2.8159777936   -2.6305390562   -0.0892293504
 H    0.9746250048    2.0544467795   -0.1319208502
 H   -0.5877479851    1.9575238720   -0.9558013708
 H   -0.5230843837    2.0455059161    0.8080200018
 H    0.5479029629   -0.2973136865   -0.8822177186
 H    0.6214691347   -0.2037083366    0.8676293301
 H   -1.8908682838   -0.1787863876    0.9750628694
 H   -1.9694426452   -0.1857232466   -0.7755911714
 H   -0.7921321387   -2.4350301413   -0.7807624181
 H    0.2589683946   -2.4486223770    1.4620973360
 H   -1.3389780320   -2.3079077850    2.2222153636
 H   -2.0029822976   -5.7200678488    0.9212987373
 H   -3.4992480429   -2.1153395903    0.6016918221
 H   -3.1929204488   -2.4190007947   -1.0967896303