16

 N    0.1609305181    1.4184994801   -0.1338521563
 C   -0.0361202405    0.0408846351   -0.0437332888
 C   -1.1563377653   -0.7544499669   -0.0875216976
 C   -2.6509587017   -0.8350345321   -0.0487414606
 C   -2.8356889804   -2.3781569645   -0.2628743424
 O   -1.5690150740   -3.0375955495   -0.0031036594
 C   -0.6350367345   -2.0605146987   -0.0364090503
 N    0.6688752512   -2.1572238812    0.0251413769
 N    1.0309650203   -0.8140393663    0.0554989805
 H    0.8626280706    1.7652966583    0.5089876107
 H   -0.6979083301    1.9362879423   -0.0075270818
 H   -3.0741083537   -0.5145974415    0.9121049321
 H   -3.1697311880   -0.2770047554   -0.8347934159
 H   -3.5784966994   -2.8206033716    0.4039618901
 H   -3.1199483426   -2.5912613114   -1.2995586570
 H    1.9796779300   -0.5874989966   -0.1911082401