21

 O    0.2031002870    1.3246437494   -0.3724946583
 C    0.0371203245   -0.0154653866    0.0542343649
 C    0.3690438229   -0.2613183948    1.5375337180
 O   -0.3248991587   -1.4467825258    1.8756459179
 C   -1.5793083556   -1.4372769928    1.1803051338
 C   -2.7567765754   -0.9127053972    2.0349830678
 C   -3.5662597084   -0.0231996905    1.0783054115
 C   -2.4774138068    0.6708446838    0.2419921960
 C   -1.4397082453   -0.4440799927   -0.0165866465
 H    1.1438578569    1.5255403701   -0.3719587351
 H    0.6419862757   -0.6963978770   -0.5621139813
 H    1.4331825957   -0.4232278599    1.7370286016
 H    0.0335120964    0.6068423616    2.1297650590
 H   -1.7551509143   -2.4670855871    0.8557036264
 H   -3.3400225410   -1.7189295716    2.4875609784
 H   -2.3436131288   -0.3109923087    2.8528793087
 H   -4.2006622907   -0.6431595639    0.4318900972
 H   -4.2244832818    0.6799200114    1.5971109729
 H   -2.8529034938    1.1129232316   -0.6838455354
 H   -2.0234958643    1.4835803250    0.8180414016
 H   -1.6555453139   -0.9411967244   -0.9651952591