18

 C   -0.6941056803    0.6108769920   -0.5654299105
 C   -0.3585635431   -0.6951139540    0.1697612596
 C    0.8212262260   -0.6241864555    1.1311657184
 C    0.6172718806    0.1262637703    2.4499595379
 C    0.4363005395    1.5730314772    2.3168543581
 N    0.2933281297    2.7166644075    2.2326287175
 C    1.7646353961   -1.7748933554    1.1653777420
 N    2.1801475234   -0.4830283129    0.5909974989
 H    0.1744321358    0.9940265800   -1.1111230657
 H   -1.4936485296    0.4361191520   -1.2915958490
 H   -1.0244476908    1.3969023415    0.1161554713
 H   -1.2420702771   -1.0461597884    0.7189773667
 H   -0.1367725917   -1.4734648836   -0.5707259375
 H   -0.2497139752   -0.2841334250    2.9814499215
 H    1.4926395998   -0.0359037713    3.0862029242
 H    2.2700338979   -2.0481655732    2.0882180528
 H    1.5676112136   -2.6093604918    0.4976884300
 H    2.1605393156   -0.5252452194   -0.4250344362