16

 C   -0.0218201782    1.5325635510    0.0115882515
 C   -0.0142057962   -0.0038971036    0.0349753022
 N    0.7036941288   -0.5875632319   -1.0801616814
 C    1.8659641366   -1.2500088599   -0.6759421460
 O    2.7125287888   -1.6875895740   -1.4273815966
 C    1.8128490613   -1.2834913088    0.7967062962
 C    0.7440536473   -0.5813730812    1.2211706016
 N    0.2556396897   -0.4027096790    2.4889738378
 H    1.0010684467    1.9196829219    0.0189581619
 H   -0.5274963275    1.8977942465   -0.8876863125
 H   -0.5591034150    1.9443526713    0.8731518785
 H   -1.0540079135   -0.3631637520    0.0647073344
 H    0.6729548982   -0.1771521372   -1.9997144274
 H    2.5468316586   -1.8026965227    1.3950385273
 H    0.8796470947   -0.6150039723    3.2519742019
 H   -0.3210631703    0.4075116120    2.6543035506