19

 C   -0.0680622572    1.4984261225    0.0251805938
 C    0.0955149244    0.0071543497   -0.0273762460
 O   -0.4801252821   -0.7645535125    1.0467494261
 C    0.9442150751   -0.8010225041    0.8653063061
 C    1.4267083042   -2.0505004286    0.1545471427
 C    0.4790046729   -2.1711273049   -1.0665025353
 C    0.0002501003   -0.7465504183   -1.3347322834
 C   -0.8677628640   -0.3652187661   -2.4501409393
 O    0.5321502493   -0.0594036193   -2.4789874087
 H    0.5779558139    1.9741566631   -0.7171072075
 H   -1.1034691223    1.7834540817   -0.1913602979
 H    0.1828737563    1.8769335444    1.0186328880
 H    1.5258646472   -0.3532940463    1.6678544547
 H    2.4662732625   -1.9031453677   -0.1602547188
 H    1.3973418196   -2.9350935776    0.7974384694
 H    0.9676999126   -2.5857947352   -1.9504013224
 H   -0.3766721522   -2.8038774935   -0.8185448508
 H   -1.1923971671   -1.1276169529   -3.1575379090
 H   -1.5322451634    0.4930826356   -2.3623287715