18

 O    0.0562785346    1.3646906040    0.0361607871
 C   -0.0141497175   -0.0443250836    0.0283092505
 C    0.4190278853   -0.6163535677    1.4126254089
 N   -0.8019962476   -1.3304438704    1.8846241122
 C   -1.1959678906   -2.0315273178    0.6009736933
 C   -1.4631699060   -0.6052142311    0.0333455427
 C   -1.8581120037   -0.3131218524    1.5139941855
 C   -2.2842457183   -0.3005339558   -1.1078715125
 C   -2.9592496171   -0.0164576427   -2.0634199263
 H   -0.3391499269    1.6823872027   -0.7838862617
 H    0.5612651183   -0.4608091266   -0.8097849455
 H    1.2560465729   -1.3147218228    1.3464525382
 H    0.6794448581    0.1939081168    2.0968237077
 H   -0.4125274226   -2.6403550340    0.1398503508
 H   -2.1049311165   -2.6187438942    0.7429944628
 H   -2.8520163622   -0.6796910047    1.7752572423
 H   -1.6938634752    0.6970912874    1.8928376951
 H   -3.5660528650    0.2198448329   -2.9024123011