14

 C   -0.0287106363    1.5618832816   -0.0439235312
 C    0.0104729198    0.0119962704   -0.0347460826
 C    0.7779845490   -0.5374428217    1.2179535327
 C    2.1419193112   -0.0258201200    1.3049330509
 N    3.2151686863    0.3943726962    1.3769066475
 C   -1.3643468009   -0.5175903025    0.0268381670
 N   -2.4447007791   -0.9142050614    0.1174188921
 C    0.6556652480   -0.4802172205   -1.2658994432
 N    1.1780827634   -0.8520245100   -2.2257153715
 H    0.9898653105    1.9527080992   -0.0805872933
 H   -0.5814344132    1.9201646831   -0.9135010151
 H   -0.5226015378    1.9199423552    0.8623983179
 H    0.2233549105   -0.2426635069    2.1142177122
 H    0.7976751586   -1.6303271725    1.1862276066