21

 C   -0.1192956143    1.3774714120    0.1063955040
 N   -0.0713402261   -0.0547797936   -0.1876681703
 C    0.7543504259   -0.4750806925   -1.3275743358
 C    0.1589608493    0.0853312029   -2.6314988207
 C    2.1518871430    0.0367104675   -1.1934080969
 N    3.2197946430    0.4521106788   -1.0344087754
 C    0.8366454748   -2.0051421120   -1.2872026206
 C   -0.1996099804   -2.9000893189   -1.9112450127
 C    1.1995457286   -2.8570215218   -2.4740099679
 H    0.8702347112    1.8527541245    0.1950311442
 H   -0.6858325161    1.9057795177   -0.6657103575
 H   -0.6525858489    1.5144547377    1.0505996521
 H    0.2437125773   -0.5532471321    0.6377916395
 H    0.2234454685    1.1748749324   -2.6472622260
 H    0.6995036591   -0.2847362935   -3.5047011126
 H   -0.8930731167   -0.1989220635   -2.6999026869
 H    1.2429254459   -2.3518538934   -0.3397287221
 H   -0.5121838869   -3.7745149551   -1.3517891538
 H   -0.9904298633   -2.4453021470   -2.4953208820
 H    1.3411803027   -2.3786390271   -3.4362061334
 H    1.8600433736   -3.6992586129   -2.3025729350