14

 O    0.0006069378    0.0101661615    0.0686846135
 C   -0.0112151188    1.2037578277    0.0723509670
 C   -1.1353916288    2.2656362076    0.0992252186
 C   -0.0462378576    3.3724682641   -0.0004767412
 C    0.5526212729    3.8746745959    1.3405387741
 O    0.5356265233    2.7783007271    2.2622812943
 C    1.6066375934    2.8484426887    1.3123989605
 C    1.0910475210    2.2869159319   -0.0405379247
 H   -1.7793238576    2.1972843734   -0.7831535027
 H   -1.7534694795    2.2552193685    0.9991853973
 H   -0.1334643314    4.1140358200   -0.7915522534
 H    0.5355996755    4.8729929900    1.7626004893
 H    2.6163054251    2.8312728876    1.7049312737
 H    1.8223471547    2.2141474660   -0.8451383763