18

 C   -0.0285446137    1.4820649471    0.0137749689
 C   -0.1590006403    0.0062638708    0.3486307622
 O    0.4243819753   -0.5172255806    1.2803984074
 N   -0.9856611149   -0.7071383513   -0.4825142798
 C   -1.0152913845   -2.1541610768   -0.4399804538
 C   -1.9353890061   -2.6841063121    0.6784690631
 O   -3.2731922507   -2.2698304673    0.4910633749
 C   -1.4868096895   -2.6700253073   -1.7852583218
 O   -1.7361249883   -1.9597677645   -2.7264132290
 H    0.1346873796    2.0408725192    0.9360267471
 H    0.8471565773    1.6281123825   -0.6277596253
 H   -0.9045658290    1.8759036541   -0.5080999047
 H   -1.2790771769   -0.3099434363   -1.3658178036
 H   -0.0057461112   -2.5523848739   -0.2521339701
 H   -1.9402976749   -3.7794965622    0.6621450192
 H   -1.5228907944   -2.3570676003    1.6404367560
 H   -3.2707729608   -1.3058262341    0.4975093105
 H   -1.5939961571   -3.7727930070   -1.8437602912