16

 N   -0.0406204258    1.3308468203   -0.1786045884
 C   -0.0726519076   -0.0163884587   -0.0359947865
 N   -1.1189333435   -0.7566970295    0.0611197528
 C   -0.6835652978   -2.1287101909    0.0464463291
 C   -0.0062651093   -2.6385899853   -1.2075775351
 C    0.8322218403   -2.1390844233   -0.0537427140
 N    1.1617469210   -0.7317857271   -0.0648707269
 C    2.4204347567   -0.2125157639    0.0111588250
 O    2.6942555017    0.9716110066    0.0786923193
 H    0.8400461116    1.7862790924    0.0198264515
 H   -0.9045687982    1.8098868116    0.0141810839
 H   -1.2374844376   -2.8191724123    0.6715968045
 H    0.0012829234   -3.7113042048   -1.3694951504
 H   -0.0696273803   -2.0333577978   -2.1058639890
 H    1.5006717684   -2.7851524298    0.5006506670
 H    3.1929240369   -1.0020542475    0.0078589372