19

 C    0.0607233090    1.6062224009   -0.0313106758
 C    0.0935631867    0.0757369684    0.0032630362
 C    0.7406940455   -0.5397309471   -1.2392826272
 C    0.4496345623   -2.0560518880   -1.4326977699
 O   -0.4395995362   -1.7503775839   -2.5525056828
 C   -0.1435950488   -0.4104488075   -2.5140624012
 O   -0.5118177741    0.4381646277   -3.2613052964
 O    2.0593215391   -0.0863663328   -1.2968624230
 C    2.7592323642   -0.3079273746   -2.5115092957
 H    1.0732641713    2.0114512677   -0.0884866248
 H   -0.4982509865    1.9669649309   -0.8994374388
 H   -0.4171995974    1.9981905775    0.8709513783
 H    0.6621004568   -0.2754419090    0.8730416144
 H   -0.9215329161   -0.3263211169    0.1008379203
 H    1.2944442344   -2.6633565295   -1.7618303896
 H   -0.0931968306   -2.5530969981   -0.6267893436
 H    2.8990157016   -1.3771562190   -2.7219967290
 H    2.2477455696    0.1595605515   -3.3616272665
 H    3.7415870590    0.1515457619   -2.3878304150