17

 O   -0.0390899503    1.3686249974   -0.2662582573
 C    0.0637452836    0.0206915139    0.1456569329
 C   -1.2970076040   -0.6498101967    0.0997591695
 O   -1.8731602058   -0.5925463559   -1.2450502010
 C   -2.1569801894   -1.9833636497   -1.2020712374
 C   -0.8877051741   -2.7973687297   -1.1032604333
 C   -1.4372354761   -2.1727872237    0.1435239212
 C   -3.4480244013   -2.5161741509   -1.6567365034
 O   -4.3275403636   -1.8653428875   -2.1613600083
 H   -0.4578321034    1.3597351570   -1.1355098439
 H    0.7841683464   -0.5391120439   -0.4691581484
 H    0.4374256175    0.0264096873    1.1757076144
 H   -1.9851439414   -0.1555970379    0.7946664790
 H   -1.0156994174   -3.8736794587   -1.1626461753
 H   -0.0040690170   -2.4088897809   -1.5981232952
 H   -1.7566057591   -2.7505152630    0.9999961994
 H   -3.5417739447   -3.6142566771   -1.4881539328