17

 C   -0.0853504965    1.3830640331   -0.0434462150
 N   -0.0336113656   -0.0570202399    0.0265608389
 N   -0.0073177430   -0.8029923728   -1.1133403884
 C    0.0337695717   -2.0648902873   -0.6973710433
 C    0.0557352084   -3.1861397148   -1.6882751482
 C    0.0574530657   -2.1440634986    0.7158250342
 C    0.0190427562   -0.8293609956    1.1420477976
 N   -0.0542742251   -0.2566468068    2.4179684181
 H    0.9129523080    1.8362091912    0.0115979829
 H   -0.5393713204    1.6570347085   -0.9959865098
 H   -0.6957164940    1.7664047452    0.7788416349
 H    0.9532777839   -3.8049172353   -1.5764373468
 H   -0.8095247963   -3.8473738930   -1.5656087815
 H    0.0398668216   -2.7832608720   -2.7033105544
 H    0.1021273166   -3.0258109446    1.3354591688
 H   -0.0197292585   -0.9644726373    3.1395696066
 H    0.6748289273    0.4255701500    2.5947475854