17

 N    0.0210978704    1.3801121948   -0.1038395583
 C   -0.0249916515   -0.0158382014   -0.0335175261
 C   -1.1140624622   -0.8647463727   -0.1069612746
 N   -2.4716000757   -0.4535534805   -0.1706326517
 C   -0.5545534219   -2.1668479521   -0.0316883228
 C   -1.2949380618   -3.4682059396    0.0072407291
 O   -2.3955194284   -3.4985016141   -0.9052464494
 N    0.7739938651   -2.1335635604    0.0579479080
 N    1.0740121793   -0.8100276719    0.0529286318
 H    0.7315095857    1.7823727660    0.4975659325
 H   -0.8801034333    1.7631679473    0.1632769933
 H   -2.6594776887    0.0473334636   -1.0352396248
 H   -3.0671777371   -1.2753833566   -0.1860187005
 H   -0.5879614192   -4.2895301911   -0.1709301256
 H   -1.7478071789   -3.6346426917    0.9917504533
 H   -2.0383404250   -3.3260682140   -1.7831027649
 H    2.0385505332   -0.5276960756    0.0385100207