17

 C    0.1745369333    0.9497850904   -0.4322310636
 O   -0.1569371926    0.0427435587    0.6055140948
 C   -1.3554331281   -0.6211864089    0.3865437807
 C   -1.5619175297   -1.6491007486   -0.7034733246
 N   -0.2743980729   -2.3149799114   -0.9815016163
 C   -0.2445942075   -2.8372442811    0.4317871326
 C   -1.5169267392   -2.0525517605    0.7792403033
 O   -2.4959865655   -2.5188362250    1.6363365119
 H    1.1231852341    1.4158856488   -0.1556526128
 H    0.2911641591    0.4259202855   -1.3883808216
 H   -0.5875569212    1.7363043615   -0.5411108645
 H   -2.2555516746   -0.0253422104    0.5660625047
 H   -2.3609194189   -1.5898725874   -1.4334896230
 H   -0.4210791971   -3.0884396520   -1.6225025926
 H   -0.4263108385   -3.9140979059    0.4868925883
 H    0.6674841992   -2.5794802806    0.9772170632
 H   -2.4378112699   -2.0256446632    2.4623465097