24

 C   -0.1565084853    1.5160039832   -0.1835220927
 C    0.0312176217    0.0010812266   -0.0653440315
 C    0.6806928090   -0.6169327940   -1.3074851054
 C    0.8701566392   -2.1226814267   -1.1896194289
 O    1.4670839558   -2.6005650688   -2.3775745299
 C    1.6964663332   -3.9924284665   -2.3675990401
 C    2.3902526914   -4.3839309488   -3.6432324059
 C    2.1268649848   -5.7184030139   -4.2364787537
 N    1.6310728010   -4.5001590940   -4.8958977192
 H    0.8038586114    2.0231514604   -0.3273787588
 H   -0.7941560633    1.7699182832   -1.0374455265
 H   -0.6219194346    1.9318649070    0.7154559755
 H    0.6444776922   -0.2232199723    0.8175845744
 H   -0.9421670821   -0.4749204201    0.1132333365
 H    0.0692805816   -0.4104466472   -2.1945108770
 H    1.6587773632   -0.1552846503   -1.4903760025
 H    1.5052743463   -2.3645654037   -0.3190711585
 H   -0.1015938281   -2.6207395013   -1.0226233156
 H    2.3161057467   -4.2739793280   -1.4977869086
 H    0.7420845163   -4.5430470205   -2.2750463245
 H    3.3734863919   -3.9371714415   -3.7732185071
 H    2.9152771695   -6.2415630086   -4.7696588147
 H    1.4170229202   -6.3691998658   -3.7309544165
 H    0.6387891180   -4.3769376083   -4.7064426887