20

 C   -0.1321330295    1.4972906531    0.1481539053
 C    0.0925434978    0.0244986240    0.0062040266
 N   -0.8103627380   -0.9745261540    0.6210711946
 C    0.6405926327   -0.9932115791    0.9553421264
 C    1.3725398255   -1.7162861796   -0.1954352068
 O    0.9983260240   -3.0132860454   -0.5746353721
 C   -0.1278440543   -2.9454236191   -1.4594114435
 C   -0.0984580006   -1.5526433876   -2.1401978912
 C    0.7523940271   -0.6909247701   -1.1967709569
 H    0.7654506416    2.0616574118   -0.1271637662
 H   -0.9496957240    1.8386979442   -0.4983679688
 H   -0.3908859560    1.7598446531    1.1801611417
 H   -1.2805469543   -0.5162793214    1.4017517331
 H    0.9629023877   -0.8870774005    1.9851049322
 H    2.4592499308   -1.6797220165   -0.0782288011
 H   -0.0245800869   -3.7683545443   -2.1748283541
 H   -1.0546907384   -3.0749499579   -0.8944095977
 H    0.3785079411   -1.6128552517   -3.1227694286
 H   -1.1093515628   -1.1610211775   -2.2771325095
 H    1.4801140765   -0.0617656617   -1.7117758132