15

 O   -0.0801164461    1.4850657122    0.2064037223
 C   -0.0084339456    0.0882770902    0.1060860850
 C    0.2300196935   -0.7718991690    1.3952988511
 C   -0.8836324879   -1.7521256180    0.8578424176
 C   -1.9144803781   -0.7584218589    1.4500304621
 C   -0.8510322560   -0.2490904316    2.3701590696
 O   -0.8257927811    0.1910915253    3.4827902549
 C   -1.3460544790   -0.6254025782    0.0089618175
 O   -2.1695162380   -0.7039625097   -1.0850953773
 H    0.8094336175    1.8429520460    0.2898241973
 H    0.6526909465   -0.2412163852   -0.7078033786
 H    1.2293706749   -1.0392714135    1.7272510575
 H   -0.9423366361   -2.8256158789    0.7827593495
 H   -2.9738223511   -0.9150576597    1.6001872004
 H   -2.6218988834    0.1422260390   -1.1830095091