17

 C   -0.0402737115    1.5458986386    0.0012161601
 C    0.1345261992    0.0436099338   -0.1167283618
 C    0.7506471832   -0.7083688901   -1.2423629075
 O    0.1537369588   -1.6929829166   -1.9883446260
 C    1.9605293455    0.0167947818   -1.8176644436
 C    2.6200535513   -0.0860147807   -0.4110756881
 O    3.7431926723    0.0980191295   -0.0319036447
 C    1.4229695396   -0.7480522162    0.1950843554
 O    1.4383767265   -1.7475592369    1.1405788661
 H    0.8097141074    2.0925842512   -0.4143711970
 H   -0.9405976230    1.8758416699   -0.5283113387
 H   -0.1431262827    1.8434848774    1.0501870713
 H   -0.6947462078   -0.5229567402    0.3147341342
 H   -0.5876355208   -2.0596415285   -1.4938331056
 H    2.5113711424   -0.6139280876   -2.5217405978
 H    1.8100204294    1.0078866215   -2.2530371656
 H    1.3493456601   -1.3550047770    2.0165716493