15

 O    0.4126693755    1.3009295811    0.0358281287
 C    0.1613517746   -0.0197902803   -0.0667728326
 C    0.3031151235   -0.9499021771   -1.0756393585
 C   -0.1673151200   -2.1569509001   -0.4952183911
 C   -0.2106082056   -3.5163017254   -1.1266402777
 C    1.1846431656   -4.1106071918   -1.2451904178
 O    1.6711511683   -4.5205580041   -2.2662857724
 N   -0.5574754062   -1.9880248477    0.7634526377
 N   -0.3461051851   -0.6669474291    1.0042015243
 H    0.7735610371    1.6145880915   -0.7992362807
 H    0.6797468881   -0.7885226344   -2.0726309598
 H   -0.8013160961   -4.1736634067   -0.4771114848
 H   -0.6636959265   -3.4974155570   -2.1216246714
 H    1.7453224172   -4.1330360839   -0.2834122263
 H   -0.5813774701   -0.2698364550    1.8977880225