13

 C    0.0288358674   -1.2167322277   -0.0040876109
 C    0.0027429857   -0.0131812011    0.0029837744
 C   -0.0177226446    1.3971549706    0.0110330049
 C   -1.1237755397    2.2302298479    0.0295745762
 N   -0.6489870084    3.4947761793    0.0305896417
 N    0.6907762990    3.5719707564    0.0141347838
 C    1.0974033977    2.2987515191    0.0019392339
 C    2.4700887569    1.9542962533   -0.0172784772
 C    3.6286606150    1.6316363058   -0.0336202680
 H    0.0570830490   -2.2779127849   -0.0104469049
 H   -2.1777927597    2.0058465069    0.0416177902
 H   -1.1801896957    4.3494942407    0.0420291212
 H    4.6527225774    1.3515286138   -0.0478384052