11

 N   -0.1248571749   -1.1603241554   -0.0038621464
 C   -0.0568178752   -0.0064886106    0.0122353975
 C    0.0010990974    1.4286591219    0.0298875592
 C    0.4911795408    2.1515542910    1.2627194484
 C    1.3519515031    2.1553403329    0.0210797741
 C    2.5811976442    1.4126571622   -0.0048805075
 N    3.5812704191    0.8334054286   -0.0281449504
 H   -0.7789318523    1.9100080009   -0.5498186999
 H   -0.0045419699    3.0764486133    1.5306204583
 H    0.8244232943    1.5421023612    2.0930871068
 H    1.3742684333    3.0682759241   -0.5639470801