18

 C   -0.0927759203    1.5314078703    0.1532006598
 C   -0.0411738729    0.0103010157   -0.0036472602
 C    0.7726037385   -0.4734065723   -1.2259596082
 O    2.1214716134   -0.0216664594   -1.1777007703
 C    0.8564528621   -2.0091764924   -1.2560133220
 C    1.5658397532   -2.5714095914   -2.4791854638
 O    1.3435979375   -3.6686066031   -2.9186986840
 C    0.1299460905    0.0227091005   -2.4708286901
 N   -0.3646026401    0.4415344220   -3.4279557455
 H    0.9059737241    1.9534901529    0.3076591775
 H   -0.5415850807    2.0112877402   -0.7222233099
 H   -0.6929601794    1.8016475263    1.0258212838
 H    0.4213027100   -0.4447713619    0.8790021344
 H   -1.0561929061   -0.3938065072   -0.0847401249
 H    2.1355293158    0.9353666957   -1.2894574230
 H    1.4358714923   -2.3083353229   -0.3728567206
 H   -0.1334396874   -2.4648607959   -1.1793723054
 H    2.3296102198   -1.9042854472   -2.9291376976