19

 C    0.0943208966    1.5014201045    0.0774359927
 C   -0.0265482634   -0.0097802530    0.1259544244
 O    0.8084957469   -0.4829328003    1.1900628211
 C    0.8482706160   -1.8144679051    1.3616737671
 N    1.5464409770   -2.3274932904    2.2750081458
 C    1.5714790926   -3.7745586558    2.3953002915
 C    3.0336185397   -4.2299671768    2.4480670325
 O    3.7298473007   -3.5873009664    3.4930419262
 H    1.1296872824    1.7986625646   -0.1089542663
 H   -0.5334497686    1.9015619115   -0.7239036959
 H   -0.2255501836    1.9431583801    1.0248370020
 H   -1.0655774049   -0.3141536274    0.3103754410
 H    0.2948980069   -0.4592280257   -0.8232149290
 H    0.2312074586   -2.3894091937    0.6535300227
 H    1.0907280851   -4.0511585654    3.3423674580
 H    1.0393517541   -4.2897238835    1.5775757753
 H    3.0846541866   -5.3085309045    2.6338731789
 H    3.5034268177   -4.0358204623    1.4686895680
 H    3.4682431298   -2.6583227002    3.4388213141