18

 C   -0.2287255678    1.4256758334    0.2528469295
 C   -0.1093984654   -0.0587988115    0.1291024256
 C   -0.3673431837   -0.8272715915   -0.9349372049
 C   -0.1746918510   -2.3041018446   -0.6661001024
 C    0.2026237625   -2.3527771072    0.8155842100
 C    0.2805930388   -0.9187794746    1.2985492074
 N   -0.7347475815   -1.8323435610    1.7886958272
 C   -2.1028094274   -1.6874762900    1.7000258454
 O   -2.7058422138   -0.6596266014    1.8952571541
 H    0.7037610545    1.8732367877    0.6184118664
 H   -0.4761305199    1.8892394334   -0.7055165277
 H   -1.0134457985    1.6779992634    0.9753240748
 H   -0.7332844002   -0.4579392198   -1.8868615540
 H   -1.0750354194   -2.8920126739   -0.8878571121
 H    0.6295390031   -2.7349673598   -1.2761217872
 H    0.8745891725   -3.1258491608    1.1751872499
 H    1.0022815610   -0.5703149101    2.0322231839
 H   -2.6044696337   -2.6564603317    1.5056777241