22

 C   -0.1013482578    1.5371984762   -0.0968636187
 C    0.0417361350    0.0167984696   -0.1334566196
 N    0.7135577496   -0.5000602385    1.0456789956
 C    2.1870315494   -0.2744731232    1.1762942938
 C    2.6249277121    0.7431412271    2.2146745592
 C    2.3696416033   -1.7771134560    1.5018862897
 O    2.1089812094   -2.1325802298    2.8742573478
 C    0.7304194737   -2.4819348836    2.5748372883
 C    0.8825669387   -1.9679279045    1.1347359980
 H    0.8762191876    2.0295599226   -0.1106996794
 H   -0.6607544901    1.8903481019   -0.9687240726
 H   -0.6266094227    1.8515138458    0.8095439491
 H   -0.9538475886   -0.4425989777   -0.1730970584
 H    0.5611536316   -0.2776179202   -1.0685667634
 H    2.6430365382   -0.0571664420    0.1949382876
 H    2.2594139416    0.4473923191    3.2005360304
 H    3.7182837910    0.8048703969    2.2534911262
 H    2.2371813813    1.7387217354    1.9805785415
 H    3.2300833113   -2.3065552149    1.0874656943
 H    0.5728538981   -3.5643149805    2.6703804030
 H    0.0139152573   -1.9358311562    3.1965671531
 H    0.4976510402   -2.5578083273    0.3001032245