17

 O    0.3198598477    0.2576922123   -1.3196761689
 C    0.1354828464    0.8026585733   -0.2582836889
 C    0.9904714161    1.8933961222    0.2905565378
 C    2.4362668623    1.9697755434   -0.1773280490
 C    1.4410132488    2.9577049850   -0.6936195259
 O    0.6180065564    2.3468600172    1.5576469329
 C    1.0513188202    1.5390406171    2.6513606919
 C    2.3827840371    1.8883283710    3.1504038088
 C    3.4624293210    2.1791907198    3.5910621794
 H   -0.7249741477    0.5401787255    0.3979961198
 H    3.1574171200    2.3043871913    0.5564558915
 H    2.7538714816    1.1729763459   -0.8403272089
 H    1.0853219639    2.8523533124   -1.7117853295
 H    1.4670809811    3.9645914375   -0.2942091889
 H    0.3147080724    1.6966680401    3.4465109452
 H    1.0217389968    0.4729707949    2.3865637247
 H    4.4188091060    2.4324574710    3.9779532782