21

 C    0.0540957854    1.5160752235   -0.0375887630
 C   -0.0254645503   -0.0171669660   -0.0091079171
 C   -1.5041461464   -0.4597676647    0.0968527585
 N    0.6503092846   -0.5301069207   -1.2146250948
 C    0.9813091523   -1.9458606476   -1.1653835716
 C    2.0480020420   -2.1291945518   -0.0946129408
 N    1.5810814277   -1.5285422819    1.1448836051
 C    0.6872453236   -0.5063706955    1.2694789343
 O    0.4213133688   -0.0200978971    2.3557202235
 H    1.0921449447    1.8415251843   -0.1425836754
 H   -0.5132382619    1.9048869374   -0.8905951243
 H   -0.3585707219    1.9318775056    0.8827807873
 H   -2.0768350422   -0.0456284126   -0.7405330689
 H   -1.6054851000   -1.5491987601    0.0761166101
 H   -1.9411193795   -0.0994374907    1.0310108715
 H    0.0824872947   -0.3197613440   -2.0286728146
 H    0.1242032939   -2.6049600768   -0.9396584271
 H    1.3831163879   -2.2511842932   -2.1361173848
 H    2.2413645294   -3.1940349333    0.0758146681
 H    2.9843209280   -1.6616841111   -0.4291480888
 H    2.0401505492   -1.7723501336    2.0109315029