15

 C   -0.0338081646    1.5498311435   -0.0017885002
 C   -0.0117254607    0.0541204799    0.0269090771
 C   -0.0254642986   -0.7842880593   -1.0608843061
 N    0.0037984560   -2.0928623420   -0.6199352616
 C    0.0363967669   -2.1321502872    0.7335837568
 C    0.0276477838   -0.8188662114    1.1615138464
 N    0.0551618622   -0.4514228796    2.5436902702
 O    0.0873158759   -1.3573027715    3.3753870046
 O    0.0449895438    0.7471478862    2.8191254201
 H    0.8484641331    1.9708829785    0.4882565165
 H   -0.0655484164    1.9094163522   -1.0341576021
 H   -0.9011701307    1.9458942689    0.5335243170
 H   -0.0537896863   -0.5547974183   -2.1139177302
 H    0.0012763176   -2.9023596367   -1.2166185134
 H    0.0629504280   -3.0457120632    1.3010231448