16

 C   -0.4019254331    1.4474055796    0.0928598619
 N   -0.1918898319    0.0277028632   -0.0416007780
 N   -0.4872889099   -0.6384738145   -1.2102440678
 C   -0.1713551398   -1.8761618109   -0.9749285867
 C   -0.3246255775   -3.0067450808   -1.9394805322
 O    0.8327008582   -3.8298386901   -1.9819699742
 N    0.3228553802   -2.0373239025    0.2954801671
 C    0.3363809162   -0.7946591843    0.9374386154
 O    0.7133403261   -0.5145007814    2.0560649382
 H    0.1874082063    1.9999856768   -0.6451512666
 H   -1.4590996633    1.6980995797   -0.0356479622
 H   -0.0796523086    1.7210336555    1.0988842746
 H   -1.1372100613   -3.6696728510   -1.6207928821
 H   -0.5963720252   -2.5890832709   -2.9166973748
 H    1.5539307102   -3.3067475688   -2.3487141740
 H    0.6993891632   -2.8816890996    0.6907189114