21

 C    0.0582555622    1.7157306721    0.0120183194
 C    0.0358669390    0.1798767151    0.0101756790
 C    0.7120710289   -0.3871639013   -1.2543605085
 C   -0.0356871654   -0.0270346647   -2.5189804063
 O    0.4555365885    0.4650298254   -3.5015353525
 C    0.6871855841   -0.3918140274    1.2761425878
 C   -0.1249638535   -0.1817001618    2.5521905455
 C    0.5929524542   -0.4797196812    3.8560472931
 O   -1.2773520538    0.1862330070    2.5268008985
 H    1.0885046652    2.0915028488    0.0255914314
 H   -0.4253493435    2.1229244914   -0.8816072878
 H   -0.4671060805    2.1096314182    0.8847403072
 H   -1.0126575314   -0.1432593243    0.0167109710
 H    1.7483132830   -0.0466579773   -1.3519691754
 H    0.7225257439   -1.4860944979   -1.1974714028
 H   -1.1257572696   -0.2659459163   -2.4827674341
 H    0.8299817578   -1.4787728364    1.1805836815
 H    1.6967627624    0.0163719359    1.4214318689
 H    1.1018715483   -1.4485724182    3.8138333497
 H    1.3669954531    0.2774744790    4.0292465668
 H   -0.1163072429   -0.4636260160    4.6843120180