19

 C   -0.0858862210    1.4743269700    0.0020409185
 C    0.0337221907   -0.0201263714   -0.0078073523
 C    0.9487743765   -0.8651287235   -0.8924725426
 C    0.0848875968   -2.0918040370   -0.4570534458
 C    0.4033051240   -2.2248368109    1.0678185043
 C   -0.2979096439   -0.8811600996    1.2262621964
 C   -1.0651152030   -1.0545737172   -0.0641776860
 C   -0.0507801442   -3.2451036284   -1.2960097807
 C   -0.1677533573   -4.2141661033   -2.0002298701
 H    0.8217243309    1.9443623266    0.3989627022
 H   -0.2499575943    1.8668243494   -1.0079015495
 H   -0.9257948752    1.8000760077    0.6251899179
 H    0.8010373421   -0.6346631180   -1.9510280096
 H    2.0209830415   -0.9134356378   -0.6677516177
 H   -0.1722399636   -3.0362571456    1.5198407311
 H    1.4600231668   -2.3182419537    1.3427450297
 H   -0.6497899136   -0.4191988458    2.1399099256
 H   -2.1164566478   -1.0032401320   -0.3082238646
 H   -0.2688207156   -5.0690845996   -2.6214543167