25

 C   -0.9297361802    1.7440170612   -1.0338085157
 C   -0.4965308013    0.3432777062   -0.5785969185
 C    0.1544099311    0.4038441944    0.8098687243
 C   -1.6991721715   -0.6208029865   -0.6362586875
 C   -1.4066934192   -2.0859785817   -0.3375177110
 C   -0.3752636737   -2.7479288239   -1.2336881029
 C   -1.4959119274   -2.5756153880    1.1024188441
 C   -2.5620486516   -2.9489534795    0.1020924549
 O   -3.8281669248   -2.3575185021    0.1816736607
 H   -0.0824353086    2.4379353382   -1.0428962314
 H   -1.3580665220    1.7227786272   -2.0415645254
 H   -1.6898161898    2.1571684738   -0.3595798619
 H    0.2624651312   -0.0114248788   -1.2895626565
 H   -0.5668389358    0.7407495512    1.5647306948
 H    0.5340080692   -0.5714470129    1.1259769319
 H    0.9922691512    1.1093961984    0.8168689571
 H   -2.4797467930   -0.2667981173    0.0453999011
 H   -2.1365281143   -0.5615203950   -1.6429997876
 H    0.6237594502   -2.3247186776   -1.0831873497
 H   -0.3069443722   -3.8220334927   -1.0335989861
 H   -0.6351873126   -2.6214166336   -2.2914649220
 H   -0.8047947637   -3.3399535016    1.4441914788
 H   -1.7761278239   -1.8484955279    1.8573300129
 H   -2.5712124745   -3.9767517354   -0.2635041917
 H   -4.2635079527   -2.6961227362    0.9706138770