23

 C   -0.1294276501    1.4960399157    0.0100704124
 C    0.0111105152   -0.0098849732    0.0462058608
 C    1.3650520509   -0.6589038800   -0.1618764274
 C    0.7064185828   -0.7022909187    1.1863254965
 C    1.2773410947   -0.0971888563    2.4884933678
 C    0.8043665079   -1.3558102304    3.2297461218
 C   -0.6757429676   -1.5538101081    3.0315668067
 C    0.2660967983   -1.9607620913    1.9266356609
 C    0.3561180222   -3.3602070415    1.3903127182
 H    0.7389882930    1.9848592654    0.4638961355
 H   -0.2137090681    1.8628240182   -1.0192649768
 H   -1.0189184865    1.8307180942    0.5560594623
 H   -0.8322956601   -0.5501200190   -0.3801043791
 H    1.4154169904   -1.5730614625   -0.7456126189
 H    2.2259836946   -0.0072528880   -0.2861679780
 H    2.3661280932    0.0005675133    2.4598358938
 H    0.8476386463    0.8510986687    2.8316121422
 H    1.3425687978   -1.8482137798    4.0312229015
 H   -1.1120305795   -2.3749946482    3.5929699425
 H   -1.3349534820   -0.6962464121    2.9131363317
 H   -0.3905785852   -3.5409504425    0.6065958584
 H    1.3436551179   -3.5625341014    0.9607009779
 H    0.1787628138   -4.0948536625    2.1826389293