20

 O    0.0380115358    1.4322823294    0.0300754572
 C    0.0581091865    0.0136593878    0.0128692225
 C    1.0981191947   -0.5016435491   -0.9874819391
 C    0.8100641204   -0.5021389788   -2.4453898135
 N    1.7867978717    0.4426778715   -1.8846408589
 C   -0.0604474982   -0.7306579090    1.3875952212
 C   -1.4911596840   -0.1269116388    1.5145614325
 C   -1.3714029480   -0.6066865403    0.0355639017
 C   -0.7190575306   -1.9024849507    0.5991214713
 H    0.8770936704    1.7363139816    0.3944946189
 H    1.7610554594   -1.2728453656   -0.6037250139
 H    1.2241499031   -1.2749513932   -3.0873630216
 H   -0.1556450482   -0.1161695694   -2.7632069446
 H    1.3297217976    1.3474983263   -1.7849695702
 H    0.7065889516   -0.8036990349    2.1619593200
 H   -2.1870163712   -0.6911452683    2.1399846145
 H   -1.5647538187    0.9457385951    1.6795114745
 H   -2.1228049478   -0.5317808985   -0.7519600644
 H   -0.0936609587   -2.4918772523   -0.0722800747
 H   -1.3811278160   -2.5444181728    1.1838202365