14

 O   -0.2006037451    1.4447263670    0.0199705794
 C   -0.0800233248    0.0637556731   -0.0212688073
 C   -1.3422805491   -0.7552935970    0.0466819183
 N   -2.5450795219   -0.0997244867   -0.3839453038
 C   -2.3213623813    0.3709542132   -1.6618496210
 N   -1.2460728640   -0.0263335417   -2.2505082883
 C   -0.4926335647   -0.7313698437   -1.2508047719
 C   -3.3016773704    1.2122124721   -2.2862273806
 N   -4.1068021891    1.8972336153   -2.7532184049
 H    0.2606215086    1.8155868062   -0.7410685921
 H    0.7693793899   -0.3563342371    0.5153473062
 H   -1.4553579781   -1.5941222616    0.7227141314
 H   -3.1212866493    0.4170803894    0.2629455143
 H    0.1299149193   -1.5483649085   -1.5939155498