22

 C    0.6399355232    1.2732384945    0.2058884909
 C    0.0458848254   -0.1120379711   -0.0605082362
 C    0.7364525223   -0.8484008545   -1.2127997811
 C    0.1069349240   -2.2048908103   -1.5345558590
 O   -1.2562559882   -2.0928054508   -1.9351910467
 C    0.8870598328   -2.9781520148   -2.6008884180
 O    2.1906898335   -3.2303468916   -2.1283256630
 C    2.9814114629   -3.9469446897   -3.0456322791
 H    1.7050661989    1.2078942407    0.4550866749
 H    0.5482591305    1.9205157437   -0.6739062985
 H    0.1333010383    1.7717118032    1.0382880974
 H    0.1186161028   -0.7239845243    0.8481916765
 H   -1.0236130982   -0.0263567864   -0.2827216117
 H    0.7080694798   -0.2263007097   -2.1224126121
 H    1.7966590133   -1.0078677634   -0.9867854359
 H    0.0845657895   -2.8171314241   -0.6248177751
 H   -1.2916689175   -1.4793618595   -2.6779318841
 H    0.3563143206   -3.9178631396   -2.8219244611
 H    0.9200126104   -2.3910589100   -3.5385419480
 H    2.5452290545   -4.9311031830   -3.2787997611
 H    3.1090419222   -3.3971296552   -3.9918419260
 H    3.9627008290   -4.0948626640   -2.5881787431