19

 O   -0.0107685703    1.4047595453   -0.0569914906
 C   -0.0332819597    0.0157624140   -0.0256292302
 C   -0.4882099032   -0.7107946445    1.2423417595
 C   -0.8842329651    0.0982826594    2.3517574302
 C   -1.1966330342    0.8497878770    3.2410144993
 C   -1.3380049481   -0.7138236231   -0.0275729632
 C   -2.6939784730   -0.0443905095   -0.2532836133
 C   -2.9612901830   -1.0904211198   -1.3789501456
 C   -1.7243728520   -1.9114782023   -0.9013709743
 H   -0.1534739536    1.7292147735    0.8425134615
 H    0.8037338801   -0.4284121786   -0.5613891548
 H    0.0282645922   -1.6354065089    1.4857854221
 H   -1.4923427011    1.4752216670    4.0466822189
 H   -3.3708604677   -0.1416284723    0.6003017862
 H   -2.6505708762    1.0053944654   -0.5518098895
 H   -3.9236542267   -1.6046829370   -1.3455307229
 H   -2.8247416878   -0.6723929647   -2.3786830060
 H   -1.0019499244   -2.2118381786   -1.6660617972
 H   -2.0005473661   -2.7948985223   -0.3171930900