20

 C    0.2567817814    1.4028002996    0.1728657060
 C    0.1105981203   -0.0458883055    0.1674495918
 C   -0.0076578145   -1.2467551585    0.1527143188
 C   -0.1125303495   -2.6821623245    0.1144910634
 C   -0.7966251277   -3.4145348512    1.2430198486
 C   -1.3095266013   -2.6448703297    2.4454946016
 O   -0.2506355407   -2.3371658301    3.3394053571
 N   -1.4001723794   -3.3749437531   -0.0812295954
 C   -2.6058031300   -2.5959998025   -0.3378638185
 H    1.2920649447    1.6937625348    0.3821389887
 H   -0.0191129132    1.8346550082   -0.7954987442
 H   -0.3778865694    1.8653128849    0.9366058758
 H    0.7195460931   -3.1772566031   -0.3826030441
 H   -0.3844575102   -4.3891889569    1.5028527538
 H   -1.8441339889   -1.7395782122    2.1346930835
 H   -2.0110866933   -3.2663878865    3.0118577754
 H    0.3372150014   -1.7334436187    2.8708453317
 H   -2.5984932473   -1.5771853344    0.0702656860
 H   -2.7391046251   -2.5203857095   -1.4215880982
 H   -3.4657228404   -3.1353793311    0.0710833681