18

 C   -0.1570747263    1.5539803189   -0.0483014120
 C   -0.0462721890    0.0589916420   -0.0169888128
 C   -0.0089626692   -0.7581778558   -1.0856939927
 C    0.1403609390   -2.2150200499   -0.7425266735
 C   -0.0120838279   -2.2433584282    0.7925818342
 O    0.9907401016   -3.0334711872    1.3961945025
 C    0.0556453975   -0.7694097213    1.1936828833
 N    0.2097024080   -0.5121782014    2.4351931973
 O    0.3018858136    0.8583504901    2.7222004100
 H    0.7197920625    2.0248170385    0.4045340278
 H   -0.2554530691    1.9089503563   -1.0781100155
 H   -1.0224827546    1.8994303511    0.5251831460
 H   -0.0595732162   -0.4077161358   -2.1118223837
 H   -0.5929942372   -2.8472195756   -1.2543253533
 H    1.1334604238   -2.5953935288   -1.0123200825
 H   -1.0109277669   -2.6268928501    1.0570413679
 H    1.0780679750   -2.7085930867    2.3011146885
 H    0.4009442756    0.8592126238    3.6799678684