18

 O   -0.1734601494    1.2642512041    0.9601100192
 C    0.0126990818    0.1530248210    0.0972498096
 C    0.8732386184   -0.9386176573    0.7665516882
 C   -0.1374964519   -1.6354811576    1.7005127125
 O    0.0547930773   -2.0767478965    2.8086221549
 N   -1.3396763409   -1.5996803252    1.0241456405
 C   -2.6311008019   -1.1474777628    1.5929875275
 C   -2.6600482386    0.0080280550    0.5465390440
 C   -1.3444610585   -0.5790913026   -0.0418343761
 H    0.6918343569    1.5845433494    1.2333517562
 H    0.4083586085    0.4761074322   -0.8747208537
 H    1.2553896210   -1.6490081267    0.0241739322
 H    1.7217806428   -0.5495971115    1.3333079465
 H   -3.4262759975   -1.8903010887    1.4871488258
 H   -2.5468887001   -0.8571308349    2.6435043239
 H   -3.5118354745    0.0036582111   -0.1345561083
 H   -2.5326423282    0.9996160499    0.9771106224
 H   -1.4452714753   -1.0070113589   -1.0456053554