13

 C   -0.0827376031    1.5785939496   -0.0796014140
 C    0.0705665772    0.0595130019   -0.0423579319
 N    0.7441250627   -0.4673111528   -1.2211983590
 N    0.1593657637   -0.5322441719   -2.4321245953
 N    0.9632670550   -1.0034586225   -3.2671428004
 O    2.1842509057   -1.2820357688   -2.6088660357
 C    2.0451019964   -0.9339894916   -1.2905444120
 O    2.8719602321   -1.0281739744   -0.4294071624
 H    0.8936614860    2.0685253367   -0.1253596876
 H   -0.6712715687    1.8890990819   -0.9470465216
 H   -0.5964969129    1.9182890268    0.8239874153
 H    0.6895715334   -0.2583115910    0.8004053083
 H   -0.9008041576   -0.4359585639    0.0383309963