15

 C   -0.0178915212    1.5625758257    0.0243885815
 C   -0.0141971191    0.0337098090    0.0799411391
 C   -1.4122068601   -0.5689615941   -0.0754047673
 C   -1.3871776885   -2.0943346363   -0.1630469253
 N   -2.5503677307   -2.7089439266    0.2104590045
 O   -0.4168127195   -2.7221278928   -0.5398705115
 H    0.9938245424    1.9634976954    0.1390385852
 H   -0.4123169294    1.9252711650   -0.9317790232
 H   -0.6369223950    1.9931435992    0.8199440140
 H    0.6258703864   -0.3800702046   -0.7045671256
 H    0.4185998934   -0.3047251703    1.0287081332
 H   -2.0703809225   -0.2492796465    0.7424483331
 H   -1.8758752317   -0.1983622675   -1.0010067672
 H   -3.3810915940   -2.1896158287    0.4332724954
 H   -2.6270163404   -3.7029408568    0.0685046442