20

 O    0.1601867551    0.5066473354   -1.5200711635
 C   -0.0495354345    0.3280659493   -0.1203503571
 C   -1.3982568624   -0.3464830801    0.0350225557
 C   -1.5007881092   -1.8262696959   -0.3585560568
 N   -0.6321228600   -2.5765033893    0.5819000787
 C   -2.0102700746   -2.1972545293    0.9880181069
 C   -1.9386001882   -0.7414695399    1.4702221656
 C   -1.1054067028   -0.4643365531    2.7075728262
 O   -1.0591017092    0.9474394088    2.8969466699
 H    1.0468269791    0.8569212380   -1.6436638663
 H    0.7334207065   -0.3058608790    0.3174968223
 H   -0.0548101855    1.2876886735    0.4153178091
 H   -2.1484463823    0.2478484402   -0.4934966032
 H   -1.7435775411   -2.2369211627   -1.3301990304
 H   -0.6636517711   -3.5555516440    0.2998595338
 H   -2.7272256791   -2.9549324536    1.2809594109
 H   -2.9377797033   -0.3209613425    1.6141066596
 H   -1.5737006757   -0.9624125364    3.5732473047
 H   -0.1015454680   -0.8893954334    2.5846105840
 H   -0.4595677038    1.1315646738    3.6258108298