20

 C   -0.0898139874    1.2538818988    0.0435700352
 O    0.1987581079   -0.1313858034    0.0494206700
 C    0.7116782192   -0.6257701041   -1.1863213004
 C    1.3520702841   -1.9759612476   -0.8395534669
 O    2.3265057112   -1.8259630675    0.1686878723
 C   -0.3738510047   -0.7462083778   -2.2347017122
 C   -1.6435254907   -1.4840871833   -1.9129395148
 N   -0.1100168106   -0.1927299278   -3.3573006464
 O   -1.1343054442   -0.3895137693   -4.2923660908
 H    0.8089389059    1.8490232112   -0.1733724518
 H   -0.8599238950    1.5087633276   -0.6967590935
 H   -0.4562681090    1.5085610705    1.0406931801
 H    1.4916850544    0.0465694208   -1.5684802519
 H    0.5655848177   -2.6865338162   -0.5388863733
 H    1.8507303744   -2.3775418551   -1.7266950180
 H    1.9029128572   -1.2955984312    0.8550282316
 H   -2.5036949920   -0.9598408366   -2.3360368091
 H   -1.6334867261   -2.4862117451   -2.3572033910
 H   -1.7637360966   -1.5796753003   -0.8327914443
 H   -0.8094222158    0.0998589363   -5.0557881948