17

 O   -0.0012627199   -0.0262931699   -0.2793389803
 C   -0.0140268868    1.1594431858   -0.0072663626
 N   -1.1917891362    1.8671656156    0.2045857051
 C   -1.2021630249    3.3422460631    0.1513104010
 C   -0.0368918599    3.8113434656    1.0397458942
 C    1.1174181317    3.3741103754    0.1212562393
 N    1.1489454416    1.8993211166    0.1742602022
 C    0.6012123315    3.8407843025   -1.2392247986
 C   -0.7343851676    3.8224423780   -1.2219179396
 H   -1.9974590680    1.3690398116   -0.1431691371
 H   -2.1871289111    3.6941322714    0.4614537596
 H   -0.0502843176    4.8963598727    1.1564734694
 H   -0.0175517067    3.3240130031    2.0157585551
 H    2.1000512107    3.7530270683    0.4059051610
 H    1.9587143643    1.4233872652   -0.1944239954
 H    1.2375638518    4.0265406254   -2.0963522582
 H   -1.3975888529    3.9903502896   -2.0622059151