18

 C    0.1960038515    1.2162692594    0.2449368186
 O   -0.2149276989   -0.0701812132   -0.1719956016
 C    0.5069956707   -0.5638274790   -1.2650723470
 C    1.9282401795   -1.1463742732   -0.9490455467
 N    1.4162315875   -2.5308265366   -1.2136820763
 C    0.0701049470   -2.0064656979   -1.6467448589
 C   -0.6252734139   -2.8758640634   -0.5795444986
 C    0.8098406046   -3.1827309202   -0.0955940040
 O    1.3056671756   -3.6648765428    0.8785772352
 H    1.2417773015    1.2244297882    0.5841019419
 H    0.0868660347    1.9534242608   -0.5648819032
 H   -0.4466180828    1.5043794006    1.0793250183
 H    0.4909518886    0.1537417263   -2.0984835785
 H    2.7099929015   -0.8589022280   -1.6564195750
 H    2.2866251786   -1.0073750411    0.0743972558
 H   -0.2067299487   -2.1615196410   -2.6902729297
 H   -1.2211475969   -2.3446324968    0.1632669958
 H   -1.1890484199   -3.7259145922   -0.9704000062