20

 C   -0.1029338157    1.1972570998   -0.1960307450
 C    1.2332679092    0.4785789782    0.0659530146
 C    1.2836079466   -0.1821011285    1.3668099847
 C    1.3019229377   -0.7069614768    2.4516327352
 C    1.3205556599   -1.3811593907    3.7439436085
 C    1.3186055621   -2.9260885793    3.6452834916
 C    2.5646868868   -3.4759574977    2.9566454154
 O    1.1360430415   -3.4921978860    4.9370838809
 H   -0.2847563565    1.9661131792    0.5598110287
 H   -0.0933804280    1.6757980669   -1.1799915799
 H   -0.9366014967    0.4905222885   -0.1640651756
 H    1.4111183499   -0.2607399776   -0.7258379023
 H    2.0571758623    1.2001983000   -0.0088593321
 H    2.2052856679   -1.0687815452    4.3186366076
 H    0.4473643469   -1.0883793175    4.3387414173
 H    0.4292043132   -3.2264029560    3.0804260141
 H    2.5173875988   -4.5666998653    2.9002868276
 H    2.6634335299   -3.0707990028    1.9461341429
 H    3.4678842536   -3.1995251026    3.5168833594
 H    1.9539709506   -3.3656145365    5.4308322066