15

 N   -0.1981635983    1.2873596525    0.0110660143
 C   -0.0970310241    0.0324229160    0.0058654779
 O   -1.2174597090   -0.7245918611    0.0114703057
 C   -1.0320027316   -2.1377257297    0.0050700780
 C   -2.3911627061   -2.7569746900    0.0129784081
 N   -2.6657769511   -4.0480617625    0.0104276223
 C   -4.0289774352   -4.0595938644    0.0205294282
 N   -4.6048432983   -2.8688568508    0.0290508143
 N   -3.5318835347   -2.0428566592    0.0240066878
 H    0.7245979179    1.7163744422    0.0057627110
 H    0.8293376211   -0.5570898946   -0.0030787957
 H   -0.4794143211   -2.4573090096   -0.8879948245
 H   -0.4662095483   -2.4636175796    0.8875241474
 H   -4.6093265941   -4.9698565320    0.0216085700
 H   -3.6374084071   -1.0409758371    0.0283561126