19

 C    0.1198931461    1.6061884555    0.0810422766
 C    0.1262397060    0.1152270817    0.0154656044
 C    1.2733220373   -0.7838889009   -0.3310502970
 C    0.5120565138   -1.0002895223    0.9728951471
 C    1.1424320110   -1.0282884559    2.3326843009
 C   -0.8761267273   -1.5716677697    0.6358707619
 O   -1.1117896783   -0.5352146477   -0.3417505916
 C   -0.9268966743   -2.9783437800    0.0824254450
 O   -1.0717996019   -3.9517535284    0.7774936071
 H    1.0819895900    1.9789517857    0.4437669744
 H   -0.0514604618    2.0310547948   -0.9145701672
 H   -0.6708709476    1.9676478631    0.7455004236
 H    1.2012321427   -1.4684690647   -1.1705123747
 H    2.2601226242   -0.3543430919   -0.1837159574
 H    1.9928996301   -0.3408861524    2.3840231727
 H    0.4276633386   -0.7399741793    3.1112255152
 H    1.5137880958   -2.0305041412    2.5752976188
 H   -1.5701920893   -1.4885721997    1.4813027980
 H   -0.7915003852   -3.0509049268   -1.0190734879