18

 O   -0.7128174242    0.7655276963   -0.6245106225
 C    0.1114461534    0.9156174309    0.2423495285
 C    1.2385269897    1.9134035797    0.2156202069
 C    1.3311989672    3.0825611572   -0.7994515524
 C    0.0248705031    3.8324243010   -0.4700025137
 N    0.3308247785    4.1812776153    0.9570337215
 C    1.5297939507    5.0811253513    0.7243752913
 C    2.2676124954    3.8337663200    0.2547554876
 C    1.3678677603    3.0492442382    1.2480711149
 H    0.0996777246    0.2764951428    1.1571528474
 H    2.1774097642    1.3433113837    0.2657106172
 H    1.6207824106    2.9208424230   -1.8355291471
 H   -0.1319345678    4.7427196752   -1.0526292402
 H   -0.8616514783    3.2052948442   -0.5510262719
 H    1.3486431246    5.9219709878    0.0480872210
 H    1.9117035897    5.4522282385    1.6798443391
 H    3.3478266789    3.7099730517    0.1693880796
 H    1.5621629595    2.9078073632    2.3094722129