15

 N   -0.0172063256    1.2486859279    0.0091608798
 C   -0.0332653101   -0.0043231304    0.0348405485
 O    1.0208896349   -0.9136105733    0.0714261700
 C    0.0907224403   -2.0486621316    0.0007905985
 C   -0.3547270891   -2.6602763038    1.3420025822
 C   -0.4716657536   -1.6074729442    2.4085453238
 C   -1.5479499663   -1.6875188904    1.3702374580
 C   -1.1016277796   -1.0816471396    0.0081753244
 H    0.9392395624    1.6085760648    0.0242938516
 H    0.3351586814   -2.7221996240   -0.8185967888
 H   -0.3171582345   -3.7172034116    1.5731616843
 H   -0.7540631201   -1.9907824455    3.3835283909
 H    0.2208875684   -0.7731340675    2.4419883268
 H   -2.5818465648   -1.8837314148    1.6212530752
 H   -1.8504446234   -1.0467589761   -0.7791579051