19

 C    0.0324516972    1.5388946883    0.0202837722
 C   -0.0247439475    0.0302141967    0.0030074192
 C    0.4407379231   -0.7269879339   -1.2773826715
 C   -0.6816143954   -1.7715212785   -1.0776241945
 O   -0.3565117231   -2.7148118403   -0.0340111923
 C   -0.7326838175   -1.7935301445    1.0120805182
 C    0.3780313148   -0.7540085252    1.2883862229
 C   -1.3596683505   -0.8128081180   -0.0384894768
 O   -2.5973102861   -0.2144427599   -0.0624106575
 H    1.0716111712    1.8884889320    0.0492308986
 H   -0.4386073494    1.9655215309   -0.8717090964
 H   -0.4816182251    1.9469046527    0.8971060437
 H    0.2457371452   -0.1235548536   -2.1709828010
 H    1.4648026261   -1.1082416169   -1.3100773991
 H   -1.1382338055   -2.2539528583   -1.9446096246
 H   -1.2308765306   -2.2938537274    1.8453836092
 H    1.3994703710   -1.1363962846    1.3630401077
 H    0.1392938211   -0.1694253199    2.1838997833
 H   -3.2759885489   -0.8993612797   -0.0854333515