26

 C   -0.0015445079    1.6376084185   -0.0030132791
 C   -0.0574185554    0.1071128069    0.0233442224
 C    0.8267442372   -0.4999115936    1.1209060252
 C    0.7933901769   -2.0417408940    1.2087473501
 C    1.5374727034   -2.6552606060    0.0105996659
 C    1.3447896833   -2.5492863989    2.5704317264
 C    0.4290325111   -2.1630073957    3.7442162443
 C    1.5696427167   -4.0700891733    2.5988673038
 H    1.0179823060    1.9931567240   -0.1900837831
 H   -0.6458422548    2.0485770411   -0.7867419884
 H   -0.3274535971    2.0629362205    0.9529549508
 H   -1.0949427327   -0.2177346693    0.1789256321
 H    0.2360680158   -0.2782558139   -0.9602759402
 H    1.8675691847   -0.1784574981    0.9683485269
 H    0.5176655070   -0.0629459868    2.0767713279
 H   -0.2594784826   -2.3602835288    1.1496452262
 H    1.3929630207   -3.7362499294   -0.0554617348
 H    1.1907607846   -2.2258051891   -0.9334681395
 H    2.6155866668   -2.4646737313    0.0822602173
 H    2.3213537555   -2.0658545676    2.7270477170
 H   -0.5540131088   -2.6383300098    3.6389830182
 H    0.8564752270   -2.5005210177    4.6941811362
 H    0.2687584039   -1.0850116978    3.8247557898
 H    2.3307854925   -4.3937462845    1.8850892671
 H    1.8953351650   -4.3893230565    3.5944403888
 H    0.6420539916   -4.6091917690    2.3690036587