15

 N    0.0108310437    1.3107161120    0.1429744310
 C   -0.0338004801   -0.0471751814    0.0170212849
 N   -1.1000376739   -0.7354879396   -0.1544577824
 C   -0.7646202190   -2.1621489554   -0.0815235521
 C    0.7511717111   -2.2559918982    0.0277977127
 O    1.4282863768   -1.6480247954   -1.0713353725
 C    1.2392812986   -0.8628133647    0.1326405834
 C    2.4033520937   -0.3880866434    0.8133653688
 C    3.3584988858    0.0703769499    1.3819777661
 H    0.8775028844    1.7728233017   -0.0798788657
 H   -0.8316014392    1.8042786421   -0.1100859487
 H   -1.2464119720   -2.6218268765    0.7911532439
 H   -1.1326476022   -2.6870461592   -0.9710456262
 H    1.2639199910   -3.0918154396    0.4956498747
 H    4.2085226110    0.4547788078    1.8900101123