14

 N   -0.0279354320    1.4109107714    0.1498418113
 C    0.0415331308    0.0177156707    0.0395641671
 N   -1.0489668250   -0.7398690189    0.0255258649
 N   -0.6315667080   -2.0427172061   -0.0060001272
 C    0.7274518409   -2.1227194806   -0.0153800502
 C    1.1944655614   -0.8112247102    0.0143459262
 N    2.5573418337   -0.8953836075   -0.0006122631
 N    2.9734273456   -2.1828290039   -0.0212884506
 C    1.8801584490   -2.9433366121   -0.0366663134
 H    0.5116327409    1.8871945946   -0.5639037351
 H   -0.9929444880    1.7167131383    0.0970007386
 H   -1.3203558919   -2.7698393294    0.0413540232
 H    3.2458201831   -0.1685635872    0.0753740441
 H    1.9760420994   -4.0173662290   -0.0623266656