21

 C    0.0024651648    1.5959132418    0.0376940518
 C    1.5312728538    1.7808200094   -0.0319805744
 C    1.7932101174    1.0099938054   -1.3470464320
 C    1.3340497418   -0.3110412579   -0.7092499283
 O    2.3393536746   -0.4431950783    0.3023903731
 C    2.1610879269    0.7929743149    1.0333355577
 C    1.1899937881    0.4221352332    2.1639756553
 C    0.0555820222   -0.4063555554    1.4922396944
 C   -0.0290333116    0.0409430551    0.0168093493
 H   -0.4710875553    2.0070325971    0.9325327794
 H   -0.4827179625    2.0516599273   -0.8302486602
 H    1.9007912816    2.8047552949    0.0352891455
 H    1.1823655285    1.3789588942   -2.1749818644
 H    2.8388208723    0.9487391604   -1.6538783946
 H    1.3267765456   -1.2159631748   -1.3173647875
 H    3.1368668575    1.1286869373    1.3924164858
 H    1.7138506140   -0.1751687269    2.9154099193
 H    0.8074144587    1.3136166031    2.6723395796
 H    0.2789276514   -1.4741642708    1.5592767104
 H   -0.9040423603   -0.2400764915    1.9920593365
 H   -0.8944552594   -0.3847686787   -0.4950535368