18

 O   -0.1194262673    1.3171983806    0.0959493311
 N    0.0138282619   -0.0851120134   -0.0049477052
 C   -1.1202664301   -0.6487076128   -0.0549742152
 C   -2.5525251278   -0.2339676532    0.0272678857
 C   -3.3442681185   -0.8911943592   -1.0907291479
 C   -2.9422169101   -1.7328397606    0.0769978176
 C   -1.4680995306   -2.1086092779   -0.0421206294
 C   -0.8248705392   -3.2438664258   -0.7911550832
 C   -0.7280980578   -3.1763647053    0.7135404507
 H    0.7992799499    1.6017482891    0.1401220258
 H   -2.9396659262    0.6045528834    0.5889567314
 H   -4.3879529249   -0.5936758120   -1.1257854143
 H   -2.8883092729   -1.0487822833   -2.0639259490
 H   -3.6518585428   -2.2049625333    0.7441229783
 H   -1.4757434561   -3.9932972733   -1.2296415661
 H    0.0642431438   -3.0161922605   -1.3690138731
 H    0.2216799535   -2.8987191004    1.1569586360
 H   -1.3159596347   -3.8792365523    1.2951132668