23

 C   -0.1399062622    1.4536361038    0.0021302898
 C    0.0074563068   -0.0604006842    0.0833113368
 C    1.0900212314   -0.6564626024   -0.8815022668
 C    1.8882279015   -1.1488863237    0.3295885769
 C    0.8311953782   -0.5645306603    1.2814638602
 C    1.0488622341   -2.0401992681    1.1973573691
 C    0.1166590088   -3.1895141248    0.7733581770
 C    0.9638986631   -4.1417219300    1.6691520463
 C    1.6618476774   -2.9064522091    2.3101791428
 H    0.8335641930    1.9480602622    0.0988670705
 H   -0.5775400821    1.7563429548   -0.9556477370
 H   -0.7865618822    1.8330313268    0.8014928241
 H   -0.9802591752   -0.5304345283   -0.0019085636
 H    0.7587830438   -1.4235559994   -1.5902096852
 H    1.6045827040    0.1300806645   -1.4402726974
 H    2.9695350586   -1.1407497511    0.4179537567
 H    0.9680212338   -0.0236074910    2.2129831325
 H   -0.9079176661   -3.0636931086    1.1384665690
 H    0.0752199128   -3.4299030759   -0.2924946873
 H    0.4115347951   -4.7965213545    2.3464213560
 H    1.6562059666   -4.7534930155    1.0856582776
 H    2.7535448734   -2.9330506980    2.3734543378
 H    1.2660102055   -2.6653127572    3.3022653741