17

 C    0.0947869784   -1.2770724909    0.2993477383
 C   -0.0056253343   -0.0849655684    0.1588957776
 C   -0.0817100552    1.3321225161   -0.0145031508
 C   -1.2869927414    1.9395936908   -0.0032755109
 C   -1.4834017575    3.4193395559   -0.1677837370
 O   -0.6485575414    4.1933773612    0.6853815960
 C    0.6233327298    4.4862741135    0.1645696075
 C    1.4893337552    3.3200631651   -0.2112556213
 C    1.2049707392    2.0116662972   -0.2445718845
 H    0.1688203218   -2.3284085402    0.4278326174
 H   -2.1732197742    1.3315554845    0.1474325207
 H   -1.3262290978    3.7123059433   -1.2195824593
 H   -2.5124885759    3.6855225930    0.0919566877
 H    0.5517546814    5.1692786032   -0.7030608533
 H    1.1298063756    5.0564492264    0.9550739588
 H    2.5071833357    3.6137801466   -0.4650004084
 H    2.0173705806    1.3356317829   -0.4960844385