22

 C    2.4700092586    1.7939425500    0.3844102371
 C    1.2385924896    1.5307158422   -0.4882749395
 C    1.3929283324    0.4135563874   -1.4903232306
 C    2.2612568536   -0.8069243708   -1.3258705925
 C    2.5132140577    0.1277320488   -2.4854036402
 C    1.4568837345   -0.0390572492   -3.6098313906
 N    0.5277672207   -1.1412705792   -3.2329645101
 C    0.3540190335    0.2228435892   -2.6653627227
 C   -0.9325873074    0.9750055928   -2.8083609683
 H    2.6939205328    0.9432957721    1.0349453452
 H    3.3566811586    1.9925481150   -0.2272520151
 H    2.3062666759    2.6657128875    1.0249457568
 H    0.3781015405    1.3157735980    0.1615664028
 H    0.9841080852    2.4563258097   -1.0227606328
 H    3.0006934992   -0.7361764969   -0.5347095078
 H    1.8660320305   -1.7992989898   -1.4989887247
 H    3.4490030651    0.6555489818   -2.6203708478
 H    1.5789011560    0.2558760980   -4.6449104115
 H   -0.1477361603   -1.2285487507   -3.9926820408
 H   -1.7005366603    0.5898125005   -2.1263603745
 H   -0.8032100353    2.0406814194   -2.5939030117
 H   -1.3189939010    0.8874619740   -3.8300237707