20

 C   -0.0460489359    1.5322876842   -0.0127166371
 C    0.1046834648    0.0137334534    0.0074101769
 C    0.9442653127   -0.5503358267   -1.1698629262
 N    1.4952691918   -1.7664264921   -0.6019853064
 C    2.1438211621   -2.8706921571   -1.0860218165
 C    2.5073708680   -3.6352089347    0.0044581377
 C    2.0717376888   -2.9597206843    1.1834044846
 C    1.4515265024   -1.8027188290    0.7689621392
 C    0.7978162970   -0.5555016870    1.2816321039
 H    0.9306716844    2.0250109218    0.0520925856
 H   -0.5344586324    1.8750388273   -0.9312688801
 H   -0.6506587669    1.8773028010    0.8319931197
 H   -0.8891845493   -0.4445441270   -0.0573034739
 H    0.3404245224   -0.7572694294   -2.0587587279
 H    1.7445516339    0.1457882618   -1.4590159695
 H    2.2785240445   -3.0299155464   -2.1438242555
 H    3.0177152323   -4.5858700441   -0.0385294428
 H    2.1969497745   -3.2936137475    2.2019976081
 H    1.5384505724    0.1606611966    1.6661887838
 H    0.0814164824   -0.7341293907    2.0890661163