15

 O   -0.1291379937    1.4669432325   -0.0303781372
 C   -0.0246818001    0.0671656165    0.0008726277
 C   -1.3977072151   -0.7003764949    0.0041641558
 O   -2.4120942410    0.1029519396   -0.5339221537
 C   -0.8074089023   -1.6489624657   -1.0634371636
 C   -0.6573962954   -3.1154820740   -1.0207795872
 O   -1.4990680858   -2.4642482456   -1.9687113558
 C    0.2731295257   -0.6240164836   -1.3517050385
 O    0.9386489393   -0.2853012257   -2.2866695078
 H    0.2819669854    1.7692748816   -0.8507738516
 H    0.6430372634   -0.2676889437    0.8038407146
 H   -1.6950129818   -1.1632321660    0.9516020522
 H   -2.1333086151    1.0186457869   -0.3820990440
 H    0.2411881918   -3.5755754246   -1.4277538474
 H   -1.1703866055   -3.6687002432   -0.2355738135