19

 N    0.0793499200    1.2411521388   -0.2080143607
 C   -0.0570772815    0.0401077232    0.4284511076
 O    0.7610751369   -0.3656122645    1.2309093272
 C   -1.3343943615   -0.7311334554    0.0971248878
 C   -1.0775192124   -2.2378792730    0.0017634999
 C   -2.3689987604   -3.0565894447   -0.0828983488
 C   -2.0891823884   -4.5197599976   -0.4248933381
 N   -2.8815000675   -5.4292409631    0.2164126966
 O   -1.2492457459   -4.8509217896   -1.2389956996
 H    0.9244798471    1.7657803550   -0.0497281711
 H   -0.5289584574    1.5233786097   -0.9557113998
 H   -2.0434898368   -0.5226932076    0.9101031057
 H   -1.7980096946   -0.3541970609   -0.8226236003
 H   -0.4692940916   -2.4664336565   -0.8782242992
 H   -0.4901433266   -2.5406098662    0.8734839556
 H   -2.9488352469   -2.9698033658    0.8440391839
 H   -3.0082250593   -2.6659039527   -0.8866076671
 H   -3.4897288551   -5.1707656584    0.9727097435
 H   -2.7061777979   -6.4072501805    0.0512162870