23

 C    0.0502101996    1.6068270315    0.0381035462
 C    0.0563559319    0.0899288413    0.0257253056
 C   -1.1734689541   -0.5793936173   -0.5472297638
 C   -2.5761395455   -0.0558563579   -0.3561217415
 C   -1.9445185946   -0.0419970933   -1.7282649244
 C    1.3077651058   -0.7160417705   -0.2528213337
 C    2.5747147796   -0.0714246036    0.3231276909
 C    1.9208571018   -0.0855604671    1.7431106888
 C    0.6645174097   -0.7300497752    1.1442441204
 H    0.9671382529    2.0183085504    0.4635217965
 H   -0.0426729566    2.0131753018   -0.9748314817
 H   -0.7818944013    1.9970783961    0.6340033104
 H   -1.0947781781   -1.6639618409   -0.5220160175
 H   -3.3652777693   -0.7721025333   -0.1545737056
 H   -2.7110774808    0.8973969131    0.1420913527
 H   -1.6611693809    0.9204349177   -2.1388233917
 H   -2.2990581517   -0.7487158193   -2.4707055816
 H    1.3031346638   -1.4904565547   -1.0121123736
 H    3.4401287738   -0.7356535624    0.2678385215
 H    2.8647177911    0.9002420085   -0.0896698809
 H    2.4466064927   -0.7569395177    2.4257731113
 H    1.7882250701    0.8770214473    2.2475797027
 H    0.0905065699   -1.5168768846    1.6213890489