13

 O   -0.0644963781    0.0620886387    0.0606366487
 C   -0.1019713675    1.2462187392    0.0576080730
 C   -1.1514612426    2.3415943856   -0.0919600117
 C   -0.9459493404    3.1236735276    1.2394227814
 C    0.4632181472    3.4298288659    0.7030207317
 C    1.4090645541    4.3631932927    1.2298351731
 N    2.1343662362    5.1446546906    1.6759755663
 C    0.0613732862    3.1528872510   -0.6910502397
 N    1.0200855231    2.2057062961   -0.0063071708
 H   -2.1355209356    2.1656353081   -0.5145191874
 H   -1.5425015787    4.0366918600    1.2772541734
 H   -1.0377326440    2.5653205202    2.1747416033
 H    0.2824138502    3.6118449743   -1.6427993912