17

 O   -0.3530523409    0.1361431104   -0.0264630742
 C   -0.0505421938    1.2683756233    0.2602851761
 C    1.2924030339    1.8796563327    0.0232077810
 C    1.7401041875    3.0555840357    0.9355871435
 C    2.0022339696    3.9653253611   -0.2977399436
 C    1.5194151310    2.8292117947   -1.2489411881
 C    2.6546868952    1.8817682361   -1.6642636513
 O    3.4368252482    1.9018071324   -2.5685247228
 C    2.4122038535    0.9348852558   -0.4805368103
 H   -0.7983083885    1.9611874283    0.7119383288
 H    0.9314351078    3.4246762269    1.5732512096
 H    2.6002136082    2.8351798598    1.5721449389
 H    1.3620028000    4.8484561072   -0.3337356695
 H    3.0339828254    4.2866820889   -0.4569485260
 H    0.7533545215    3.0629917985   -1.9891151413
 H    3.2607624213    0.7446590848    0.1819858673
 H    1.9946383699   -0.0232234566   -0.8098814981