18

 C    0.2670250979    0.6439318250   -1.4097641447
 C    0.0077801134   -0.0411178517   -0.0830853762
 C    1.1448413025   -0.6076496516    0.6857636080
 N    0.4541332278    0.6103275276    1.1566963095
 C   -1.3654188883   -0.6765884175    0.0480660201
 C   -1.9640217872   -0.9189808093    1.3937210055
 N   -2.4961156719    0.1467312740    0.5394828749
 C   -1.7043333725   -1.5870591151   -1.0277170909
 N   -1.9311894245   -2.3267759787   -1.8867263386
 H    1.2780680149    1.0614593341   -1.4385457979
 H    0.1662053216   -0.0590570500   -2.2417711598
 H   -0.4471520421    1.4582998504   -1.5751622607
 H    0.9960544151   -1.4836002093    1.3098891978
 H    2.1423747711   -0.5084766043    0.2666963421
 H    1.0037987892    1.4359325425    0.9337869798
 H   -2.6231348221   -1.7707137935    1.5271495858
 H   -1.3536953970   -0.6376320798    2.2455394358
 H   -2.1004134481    1.0325733770    0.8539351595