20

 C    0.0546128711    1.5240942804   -0.0337357157
 C    0.0747790865    0.0133526138    0.0222861560
 C    0.5127998064   -0.7335860107   -1.2346402307
 C    1.6885434250   -1.6404702820   -1.1511030645
 N    0.3328961971   -2.1520540370   -0.8697728087
 C   -0.0743582297   -1.9823800816    0.5359236932
 C    0.6340991183   -0.7798890905    1.2569748818
 C   -0.6751115628   -0.5240013885    2.0356533274
 C   -1.1353052196   -0.8427763583    0.5994843684
 H    1.0625664990    1.9194450644   -0.2028036931
 H   -0.5764234267    1.8738098960   -0.8588569446
 H   -0.3280205748    1.9708108689    0.8881853633
 H    0.1305160011   -0.4091333011   -2.1997641819
 H    2.1268183139   -2.0271601386   -2.0669412791
 H    2.3887631596   -1.5277101015   -0.3289720288
 H   -0.2371401568   -2.9179369572    1.0714344422
 H    1.6491472885   -0.7415823675    1.6557788115
 H   -0.9337922536   -1.2575119348    2.8043718309
 H   -0.8444907315    0.4899986858    2.4034167212
 H   -2.1520530911   -0.8814350999    0.2043747713