20

 C   -0.1365851425    1.3953144375    0.0381681076
 N    0.0074040363   -0.0516147822   -0.0348036707
 C    0.7636345704   -0.4650162811   -1.2329044639
 C    2.0544361328   -0.7317147753   -0.4618664861
 C    1.1659841603   -0.5510506404    0.8019317789
 C    0.8278637692   -1.9766810711    1.2132596810
 O    0.6711298304   -2.6672947329   -0.0316311960
 C    1.2809677264   -1.8804124360   -1.0368405516
 C    1.7497640129   -2.6843924991   -2.2141866792
 H    0.8097834443    1.9463604360   -0.1200534325
 H   -0.8525284775    1.7280758584   -0.7208015219
 H   -0.5358204641    1.6707436580    1.0197743729
 H    0.5847982485   -0.0130239174   -2.2036821176
 H    3.1005404570   -0.4955424219   -0.6156575798
 H    1.4789235300    0.1228374115    1.5994916389
 H    1.6340859615   -2.4338931243    1.8077912990
 H   -0.1135274786   -2.0343038966    1.7665438783
 H    0.9140365909   -3.2341216921   -2.6580240008
 H    2.1779831686   -2.0340508445   -2.9825304401
 H    2.5108071732   -3.4090786464   -1.9084015265