19

 C    0.3370274428    1.0616551611   -0.0244760945
 O   -0.3153467565   -0.1149143463    0.4251781089
 C    0.4286310715   -0.8388132726    1.3353833065
 C    0.0411433396   -2.2407611478    1.5749919646
 C    1.3576317900   -1.9778270895    0.8327092151
 C    1.4422209275   -2.2958294120   -0.6417515715
 O    1.6527689808   -3.6804878521   -0.8857863510
 C    2.5979056165   -2.1425423362    1.6286524046
 O    2.6466972606   -2.0695024420    2.8363405529
 H    1.2618040172    0.8281437196   -0.5697223392
 H   -0.3564164843    1.5733320970   -0.6944432137
 H    0.5831366946    1.7261278373    0.8155248203
 H    0.8324318473   -0.2698084507    2.1731755824
 H    0.1303586632   -2.6273780792    2.5837180171
 H   -0.7796352560   -2.6261541833    0.9786380853
 H    0.5461871236   -1.9199784822   -1.1528525474
 H    2.3096075577   -1.7948202601   -1.0870921583
 H    0.9254221143   -4.1618208281   -0.4771222633
 H    3.5168663596   -2.3147636628    1.0267316912