23

 O   -0.1045345945    1.5030029255    0.1719494756
 C    0.0412437592    0.1186401071   -0.1157376898
 C   -1.3011505077   -0.5380351048    0.1904482786
 C   -1.3676495991   -2.0574370644    0.0766768325
 C   -0.3239954504   -2.8259666840   -0.7102533841
 C   -0.3338831047   -2.8953807937    0.7981028831
 C   -2.7559127165   -2.6518316729    0.0386678510
 C   -3.9599587896   -2.0056706297    0.6792041922
 C   -3.8703358116   -2.1116986590   -0.8246587175
 H    0.7220119160    1.9425635312   -0.0471832727
 H    0.3066013030   -0.0362413905   -1.1723824681
 H    0.8438888075   -0.3247359562    0.4943578953
 H   -1.5855197699   -0.2379275067    1.2063467348
 H   -2.0361318856   -0.0791819526   -0.4812831161
 H   -0.6566491398   -3.6960813043   -1.2666787073
 H    0.4859243739   -2.2878575164   -1.1889360970
 H    0.4626146812   -2.3918793171    1.3355704521
 H   -0.6670479777   -3.8135812865    1.2707750947
 H   -2.7356012243   -3.7370026392    0.1095523028
 H   -4.6644704772   -2.6408267811    1.2050288913
 H   -3.8445203277   -1.0206945558    1.1169617164
 H   -3.6995218739   -1.1987004712   -1.3845071787
 H   -4.5093975706   -2.8245968077   -1.3343145490