25

 C    0.0102856919    1.6479405415   -0.1398821857
 C    0.0106215409    0.1182667127   -0.1021817896
 C    0.7317059877   -0.5172392774   -1.2932080990
 C    0.8021164804   -2.0425153564   -1.1726612173
 O    0.0271239429   -0.1132442863   -2.4628590769
 C    0.7595778374   -0.1900809100   -3.6696591878
 C   -0.0892957272    0.3460434286   -4.7905021084
 C   -0.1560556097    1.8294110684   -5.0402496339
 C    0.5768597378    0.9343061643   -6.0086121494
 H    1.0310778179    2.0448816665   -0.0937898437
 H   -0.4480704381    2.0047991411   -1.0652017664
 H   -0.5462412532    2.0647402624    0.7050961337
 H    0.4844770813   -0.2389428018    0.8200607682
 H   -1.0209155089   -0.2558699609   -0.0918712380
 H    1.7591454579   -0.1136062448   -1.3404921791
 H   -0.2067228190   -2.4647615088   -1.1222170217
 H    1.3188901700   -2.4939458295   -2.0243026682
 H    1.3438920570   -2.3311590946   -0.2660969868
 H    1.6899179533    0.3997207364   -3.5899448664
 H    1.0555966540   -1.2289609415   -3.8871905075
 H   -1.0037109799   -0.2154077796   -4.9583874295
 H   -1.1032674673    2.2572707402   -5.3486121943
 H    0.4348142035    2.4742404599   -4.3981544521
 H    1.6610871338    0.9815787451   -6.0226272641
 H    0.1315068156    0.7441190745   -6.9786584359