21

 C   -0.6072247564    0.8176167736    0.9146137104
 C   -0.2540857300   -0.4942779797    0.3920644515
 C    0.0363550884   -1.5821727183   -0.0349211699
 C    0.4132824087   -2.8912220174   -0.5725791002
 O   -0.6745078390   -3.7056328389   -0.9882921444
 C   -1.4154556758   -4.2549515073    0.0603272987
 C   -2.6025577555   -3.5085507551    0.6188508746
 C   -2.8025034231   -4.7248588765   -0.2657692672
 C   -3.3632315148   -4.5726098188   -1.6627882206
 H    0.2170206159    1.2455104120    1.4959043792
 H   -0.8451448840    1.5207421286    0.1088876500
 H   -1.4799217118    0.7595434497    1.5744298398
 H    1.0313653580   -2.7588080585   -1.4674201601
 H    1.0259885602   -3.4314663890    0.1671417658
 H   -0.8159700443   -4.8536279877    0.7484240755
 H   -2.8139786631   -3.5773421866    1.6806076513
 H   -2.8081836106   -2.5418519326    0.1740345712
 H   -3.1055794233   -5.6349444495    0.2457098045
 H   -2.9696741027   -3.6747928283   -2.1444060081
 H   -3.0959202191   -5.4290682859   -2.2913342539
 H   -4.4559793977   -4.5013393839   -1.6389226482