19

 C   -0.4263624300    1.4785284038    0.0470245141
 N   -0.1926198140    0.0328540801   -0.0216291290
 C   -1.0879848230   -0.9268813180    0.7336368824
 C    0.0074736801   -1.9893685944    0.4392925308
 C    0.7133518790   -0.7027929986    0.9495351794
 C   -0.3493268616   -0.6684204490    2.0937495185
 C   -0.5347015105    0.5671287276    2.9926530613
 C   -1.9294759184    0.7581357666    3.3884101495
 N   -3.0397238598    0.8933205603    3.6800262736
 H    0.5077720919    2.0065793021    0.2705944067
 H   -0.7577864762    1.8170267226   -0.9410632500
 H   -1.1906829796    1.8008818100    0.7646086915
 H   -2.1611364199   -0.9890078055    0.5480528307
 H    0.0428655605   -2.8703058270    1.0810135822
 H    0.1589722435   -2.2069360429   -0.6161675514
 H    1.7836815733   -0.4936094947    1.0086204955
 H   -0.3423131749   -1.5522476622    2.7405984315
 H    0.0627930137    0.4283275067    3.9013584907
 H   -0.1754572640    1.4864138025    2.5302693619