23

 C    0.0820870038    1.3588473707    0.0275611582
 O    0.1399600198   -0.0485663937    0.0265303420
 C    0.6446893407   -0.5752554108   -1.1789298745
 C    0.5846415374   -2.1053772751   -1.1419544941
 C   -0.8542038818   -2.5918870461   -0.9608330163
 C    1.2050982451   -2.6781974059   -2.4361144506
 O    1.2946317989   -4.0847715552   -2.3726325035
 O    1.3015757148   -2.6772413224   -0.0314855026
 C    2.5332106638   -2.0867708139    0.3396880957
 H    1.0768826240    1.8095385221   -0.1162268615
 H   -0.5833174220    1.7393143570   -0.7633046796
 H   -0.3093320466    1.6688026959    0.9992406330
 H    0.0466819351   -0.2276732147   -2.0383759688
 H    1.6762740351   -0.2247345512   -1.3474766712
 H   -1.4868987027   -2.2296473564   -1.7770771014
 H   -0.8774157008   -3.6831392751   -0.9679955585
 H   -1.2532734875   -2.2248106953   -0.0144637568
 H    0.5810956125   -2.4255076209   -3.3001618149
 H    2.1969544769   -2.2246199393   -2.6039774555
 H    1.5674333654   -4.2774022416   -1.4650717675
 H    2.9625294236   -2.7342949679    1.1086371059
 H    3.2478646518   -2.0235185304   -0.4933181833
 H    2.3860360827   -1.0866422298    0.7636892759