21

 C   -0.1279460202    1.5140261241    0.0325843592
 C    0.0414432374   -0.0096379876    0.0261623198
 C    0.7300465339   -0.4940595818   -1.2516640949
 O   -0.0884941373   -0.1358131685   -2.3541883968
 C    0.8176678051   -0.5067137670    1.2408198938
 O    0.0575108386   -0.1791961047    2.4183379825
 C    0.6230480661   -0.5168349696    3.5966390048
 C   -0.2690153852   -0.1194170896    4.7485197752
 O    1.6941776244   -1.0605478073    3.6913421741
 H    0.8494846972    2.0123877900    0.0182717599
 H   -0.6845724611    1.8377882187   -0.8489344711
 H   -0.6607550896    1.8424697592    0.9280071489
 H   -0.9521017376   -0.4759932052    0.0504896163
 H    1.7289431496   -0.0330227821   -1.3314212872
 H    0.8745382997   -1.5856399621   -1.2058975916
 H    0.3703939143   -0.3808502421   -3.1625373867
 H    0.9715500987   -1.5908399581    1.2104481580
 H    1.8050186132   -0.0362436554    1.3121671791
 H   -0.4379909192    0.9611264613    4.7362034670
 H   -1.2457564777   -0.6016290267    4.6513659126
 H    0.1994506898   -0.4116147855    5.6874250574