15

 O   -0.0272440714   -0.0722604103   -0.0873456896
 C   -0.0441523248    1.1450185711   -0.0502974188
 C    1.1864531291    1.9116578910   -0.0291341042
 C    2.2209695636    2.5454118546   -0.0116405509
 C    3.3774135932    3.2560877091    0.0079579048
 C    4.4059345084    3.8889765272    0.0254666666
 C   -1.3009313388    1.9393579398   -0.0239064757
 C   -2.4937628804    1.3700937002   -0.7835660186
 C   -2.4913348744    1.3246285964    0.7033407835
 H    5.3112233321    4.4445191392    0.0408002631
 H   -1.1860951867    3.0158618161    0.0088032178
 H   -3.1343916397    2.0823522772   -1.2901100811
 H   -2.3084549005    0.4423223231   -1.3123690681
 H   -2.3043876505    0.3663094879    1.1738886543
 H   -3.1302926692    2.0044677873    1.2545755868