20

 N   -0.0888077657   -1.1390315529    0.0285838048
 C   -0.0579141655    0.0181869556    0.0471961144
 C    0.0041107511    1.4506542270    0.0584338585
 C    0.5755735397    2.1760752328    1.2686637384
 C    1.3555290583    2.1672802086   -0.0086377351
 C    2.6698789343    1.3822628118   -0.1237932559
 C    3.3745964671    1.9968343818   -1.3474009271
 C    2.9625841647    3.4770621625   -1.2878751795
 C    1.4729201832    3.4207465253   -0.8941301932
 H   -0.8230648792    1.9316669653   -0.4545745327
 H    0.0674193409    3.0861667642    1.5701891815
 H    0.9289447402    1.5594972591    2.0883858865
 H    3.2744701867    1.5496820991    0.7756734907
 H    2.5124614627    0.3042575130   -0.2118483660
 H    4.4572593525    1.8469914928   -1.3318674169
 H    2.9933698035    1.5408670673   -2.2690807632
 H    3.5379894177    3.9897283623   -0.5076747796
 H    3.1306651441    4.0149091509   -2.2246649974
 H    0.8558656587    3.3055245998   -1.7927963721
 H    1.1322253349    4.3261297337   -0.3829252761