19

 C    0.0104305421    1.3482850270    0.1388199798
 O   -0.0183483541   -0.0581888504    0.1595607725
 C   -1.2940320556   -0.5852660172   -0.1504438046
 C   -1.1941766143   -2.0963928957   -0.0926488881
 C   -1.1515219842   -2.7247079614    1.3426140163
 O   -2.5999378571   -2.4956858750    1.4231321604
 C   -2.5493675344   -2.8754871218    0.0074231243
 C   -2.0544432112   -4.3311691475    0.0925079151
 C   -1.0938034864   -4.2264455480    1.0131226835
 H    1.0264743893    1.6598752065    0.3937089596
 H   -0.2443566726    1.7482620637   -0.8559278603
 H   -0.6894742627    1.7830219108    0.8700147113
 H   -2.0510254419   -0.2265127004    0.5617039158
 H   -1.6039861416   -0.2659826189   -1.1616107185
 H   -0.4597221939   -2.4711163833   -0.8091011071
 H   -0.5750572015   -2.3082826538    2.1663552536
 H   -3.4435597115   -2.6264671141   -0.5636016351
 H   -2.4146015064   -5.1789484036   -0.4707402667
 H   -0.4255397118   -4.9636896571    1.4322493583