16

 O   -0.1075775448    1.3529669401    0.0089898442
 N    0.0313238166   -0.0392320619    0.0045519632
 C   -1.1052576457   -0.6306327095    0.0109779107
 C   -1.2252475433   -2.1482632104    0.0080235526
 C   -2.7545284227   -2.4180600213    0.0180801055
 C   -3.3722218751   -1.0394638283    0.0257664783
 C   -4.8200671164   -0.8106618307    0.0364176082
 O   -5.6417973091   -1.7014747104    0.0399471849
 C   -2.4454825406   -0.0593981265    0.0217235547
 H    0.8084539327    1.6506861745    0.0033651538
 H   -0.7389183390   -2.5730237236   -0.8741716056
 H   -0.7265801648   -2.5774323068    0.8811489543
 H   -3.0895305269   -2.9881418668   -0.8545543243
 H   -3.0772841204   -2.9923810188    0.8925498902
 H   -5.1254062871    0.2584928487    0.0411651754
 H   -2.6413312332    1.0043671617    0.0257137938