17

 O    0.0246668621    1.4821990004    0.1969057355
 C   -0.0200780794    0.0991309944    0.1014903793
 C   -0.4666506832   -0.7843066931    1.2369466889
 O   -1.1329493744   -0.2067534978    2.3314612116
 C   -2.4461387597    0.1871277569    1.9790747094
 C   -2.6476041237    1.6851365174    1.7001167579
 O   -2.6851518880    1.4545969901    0.2615313875
 C   -2.5961421140    0.0029924199    0.4501927802
 C   -1.3280904088   -0.6739273157   -0.0171607792
 H   -0.8452350551    1.8096810116   -0.0759501852
 H    0.7951930615   -0.3127127316   -0.4929573096
 H    0.0893010000   -1.6775891021    1.5026422782
 H   -3.1648752317   -0.2860264214    2.6538086258
 H   -3.5975023766    2.1006203569    2.0527010759
 H   -1.8106511301    2.3217741946    1.9971959133
 H   -3.4997269279   -0.4829645854    0.0737819351
 H   -1.4116642009   -1.4726297650   -0.7439210746