20

 C   -0.0475455210    1.5398247541   -0.0085160431
 N    1.2083119387    0.7471438698    0.0541196233
 C   -0.0746180870    0.0692280246    0.0073082676
 C   -0.5054513302   -0.9859227932    1.0191061968
 C   -2.0063702614   -0.8632782781    1.3168937972
 C   -2.8025444194   -1.1999893593    0.0286037287
 C   -2.0420655907   -0.8330511117   -1.2731683376
 C   -0.5328652074   -0.9641201550   -1.0163471612
 O   -0.3123728481   -2.0050219703   -0.0165018749
 H   -0.2687831364    2.1102942141    0.8899802816
 H   -0.2975568355    2.0492323104   -0.9368414738
 H    1.6553716136    0.7280987530   -0.8604247744
 H    0.1292568781   -1.1529246470    1.8923221057
 H   -2.3009085901   -1.5466465720    2.1196863469
 H   -2.2161389760    0.1530420886    1.6713838849
 H   -2.9698936859   -2.2791678246    0.0174627327
 H   -3.7892209855   -0.7285356476    0.0469206891
 H   -2.3573026289   -1.4996142392   -2.0826258857
 H   -2.2619537529    0.1903167332   -1.5999981242
 H    0.0681939158   -1.1171339101   -1.9188986899