24

 C   -1.0582549453   -0.1621270186    0.6284795355
 C   -1.0926543032   -1.2460649957   -0.4514073023
 C   -0.8297973895   -2.6337575542    0.1633437600
 O   -2.3950705846   -1.2359631760   -1.0255655289
 C   -0.0354231556   -0.9860917654   -1.5340909149
 N   -0.4396147109   -1.3620883352   -2.9018776750
 C   -0.0815109386    0.0464739228   -2.6116513590
 C   -1.2025906483    1.0587913027   -2.7489266175
 C    1.2520256518    0.5358229737   -3.1481110511
 H   -0.0766338099   -0.1223428170    1.1115037373
 H   -1.2752234459    0.8187981743    0.1992378012
 H   -1.8094029419   -0.3741163559    1.3951724396
 H   -1.6182034704   -2.8716800510    0.8825412153
 H   -0.8363332579   -3.4026698780   -0.6163040361
 H    0.1364923931   -2.6749691882    0.6783879538
 H   -2.2780452759   -1.5989445961   -1.9181184463
 H    0.9679043918   -1.2734998697   -1.2202857673
 H    0.3063125282   -1.8416131542   -3.3982868105
 H   -2.1340844520    0.6806849986   -2.3309030056
 H   -0.9405211228    1.9880681915   -2.2305216138
 H   -1.3582641256    1.3037546974   -3.8060709968
 H    1.1717668459    0.7855951625   -4.2127536407
 H    1.5789765889    1.4398367511   -2.6229008107
 H    2.0357353188   -0.2205479694   -3.0338175264