19

 C    0.0559712205    1.4649388091   -0.0737239360
 C   -0.0541201496   -0.0725553351   -0.0611423631
 C    0.8028846414   -0.6073347488    1.0730493075
 O    1.8092728558   -1.2517883122    0.9264731791
 C   -1.5154701640   -0.5687007203    0.0796609236
 C   -1.5958060849   -2.0930249422    0.2407421158
 O   -2.1746301510   -0.0268419409    1.2233955483
 C   -2.3461624079   -0.2160234396   -1.1619241453
 O   -1.9078948906    0.0512354218   -2.2491452245
 H    1.0915632941    1.7684878252   -0.2488586210
 H   -0.5559101200    1.8935961677   -0.8710719053
 H   -0.2495228480    1.9029145821    0.8840355716
 H    0.3443644057   -0.4683235589   -0.9987947948
 H    0.4369566227   -0.3325730506    2.0882469235
 H   -1.1578945261   -2.3879254233    1.1982960025
 H   -2.6389109881   -2.4221007922    0.2346504499
 H   -1.0572518717   -2.5964760147   -0.5657345386
 H   -2.1841685776    0.9337971623    1.1494339652
 H   -3.4407357006   -0.2389505395   -0.9516816884