13

 C    0.0052468510    1.4989996730    0.0100506848
 C    0.0131859617    0.0479917938    0.0021714157
 C    0.0172441105   -1.1619361739   -0.0043736766
 C    0.0210097628   -2.5213756354   -0.0117199175
 C    0.0226106713   -3.7300348460   -0.0182345187
 C    0.0426827625   -5.1877655759   -0.0262660070
 C   -1.2999327773   -5.7861176592   -0.0165740238
 N   -2.3477863709   -6.2704980979   -0.0091034786
 H    1.0253548667    1.8988285537    0.0024928499
 H   -0.5162270663    1.8953812218   -0.8682417571
 H   -0.4993767129    1.8858584564    0.9023210185
 H    0.5763321195   -5.5596619824   -0.9112053488
 H    0.5932105614   -5.5691010979    0.8441985693