18

 O    0.0261968861   -0.1207631636   -0.1500585166
 C    0.0137574678    1.0768507826    0.0038802407
 C   -1.2876896111    1.8555504065    0.1694576860
 C   -1.1852723320    3.1727431539    0.9216453157
 C   -0.5734356142    3.3839693484    2.2509951484
 C    0.6091922228    2.4644445250    2.5255379014
 C    1.1806853517    2.9500366806    1.1626811613
 C    1.2697932456    1.9281389995    0.0318872239
 N    0.0642552224    3.9615832289    0.9873627618
 H   -1.6313279930    2.0754040011   -0.8519024508
 H   -2.0388036892    1.1924241976    0.6098850466
 H   -2.0266524658    3.8351797717    0.7277894929
 H   -1.0376679810    4.0312499858    2.9888677612
 H    1.2137747139    2.7978895505    3.3702915743
 H    0.3983530265    1.3972001001    2.6493211932
 H    2.1239292802    3.4887771017    1.2665230056
 H    2.1400358005    1.2739880395    0.1329080425
 H    1.3554786888    2.4666363102   -0.9221498882