18

 C   -0.1645598249    1.4721861220   -0.0607596634
 N    0.1160738497    0.0447932284    0.0334599161
 C    1.4478452206   -0.4886313736   -0.1597625048
 C    2.5582708894    0.3781759776    0.3904473472
 C    3.2011757874   -0.3355707254    1.5700373821
 O    4.1993579206    0.3680563252    2.2640303795
 C    1.8635265697    0.3111251093    1.7797765794
 O    1.6758092959    1.2748278003    2.7417666908
 C    0.7563951269   -0.5299051732    1.1996061453
 H    0.6032114179    2.1146919864    0.3870979280
 H   -0.2773071659    1.7363824151   -1.1171596828
 H   -1.1148048791    1.6714941235    0.4436079244
 H    1.5728664352   -1.3180834825   -0.8477816558
 H    3.0434164661    1.2204104963   -0.0896703139
 H    3.3362382928   -1.4191139568    1.5665411704
 H    4.9735729892    0.4563915072    1.6993660610
 H    2.5522313295    1.4733748815    3.1016206591
 H    0.2778879091   -1.3688205814    1.6934240775