15

 C   -0.0277653240    1.3997758133   -0.0133757245
 N    0.0094758393   -0.0247335582    0.2460300209
 C   -1.1766418352   -0.8501251799   -0.0088851261
 C   -0.5661390542   -2.2749213850   -0.0141904310
 N    0.8859360908   -2.0935312294   -0.2000926282
 C    1.0921035707   -0.8388140874   -0.0404751414
 C    2.4122746886   -0.2671515625   -0.1029691031
 N    3.4573325490    0.2233914320   -0.1544666114
 H    0.9615034062    1.8311939326    0.1521518220
 H   -0.3415491605    1.6250667977   -1.0445821422
 H   -0.7303396918    1.8830038953    0.6721587535
 H   -1.9358816457   -0.7018586923    0.7640343360
 H   -1.6204910145   -0.5837163938   -0.9810444401
 H   -0.7304015731   -2.7865332087    0.9424262576
 H   -0.9742727155   -2.9150567635   -0.8000625619