19

 C   -0.1805010250    1.4536726636    0.0119865720
 C    0.0681163275   -0.0354098112    0.0014686561
 O    1.1474686290   -0.5701391535   -0.0109044478
 O   -1.1008178218   -0.7134071161    0.0078822156
 C   -0.9911352734   -2.1467824183   -0.0009049021
 C   -2.4017217250   -2.7135576968    0.0101121863
 C   -2.3896393646   -4.2551229087    0.0016488933
 C   -3.7297105546   -4.8282206705    0.0118306845
 C   -4.8442010880   -5.2776372976    0.0204617804
 H    0.7728177408    1.9804323706    0.0062476188
 H   -0.7722131452    1.7413707961   -0.8616298301
 H   -0.7561534959    1.7315770653    0.8993991826
 H   -0.4328469792   -2.4597420213   -0.8902504627
 H   -0.4151741247   -2.4692276419    0.8736381934
 H   -2.9342588594   -2.3553578156    0.8968099704
 H   -2.9518358292   -2.3458549307   -0.8618414391
 H   -1.8463847289   -4.6144387359   -0.8824574327
 H   -1.8289947546   -4.6239320518    0.8708618738
 H   -5.8239170977   -5.6865827355    0.0279910774