24

 C    0.2104014227    1.6550803363   -0.5777948745
 C    0.3694668823    0.1626717671   -0.2412210757
 C    1.3810789487   -0.4688724982   -1.2129666105
 C    0.7522866607   -0.0518927510    1.2489611949
 C   -0.2651965042    0.5811675388    2.2097417458
 C    0.9913549909   -1.5565212316    1.5881679053
 C    1.5521451747   -1.8002667927    3.0045392540
 C   -0.2291319079   -2.3461341060    1.3822510641
 N   -1.1947816194   -2.9624052310    1.2240938514
 H    1.1348500513    2.2074798667   -0.3680417064
 H   -0.0133545974    1.7815750150   -1.6415670474
 H   -0.5985426457    2.1288347017   -0.0171642430
 H   -0.6023110741   -0.3237605873   -0.4035274421
 H    2.3970922113   -0.1011482507   -1.0220881831
 H    1.3986601091   -1.5605114211   -1.1580476885
 H    1.1277992448   -0.2084652257   -2.2452063280
 H    1.7268852277    0.4322330542    1.4094859431
 H   -1.2628999050    0.1536379967    2.0617195307
 H    0.0150221578    0.4232999700    3.2542300824
 H   -0.3338067911    1.6597676135    2.0585825554
 H    1.7318743535   -1.9425335755    0.8807054764
 H    0.8258883244   -1.5518462676    3.7807737053
 H    1.8281866114   -2.8503639557    3.1298764844
 H    2.4468147635   -1.1891790760    3.1563045661