21

 C    0.0173362053    1.5474129212   -0.3640899709
 C    0.0381631151    0.0246944270   -0.1268013520
 C    0.8515561767   -0.3290682388    1.1336301859
 C   -1.4109490113   -0.4440749609    0.0931279201
 N    0.6594138023   -0.6514813754   -1.3201097004
 C    1.9728790684   -0.3873958068   -1.7207281975
 N    2.7474453922    0.4299755274   -1.1284509134
 C   -0.0208525824   -1.5794812303   -2.1047431464
 O    0.4420479120   -2.1446754798   -3.0709425882
 H    1.0257360989    1.9402490027   -0.4833374271
 H   -0.5666802581    1.7880044007   -1.2582443534
 H   -0.4539555082    2.0403922978    0.4916463487
 H    0.3896848933    0.1426726459    2.0063064839
 H    0.8558018243   -1.4117495130    1.2956524677
 H    1.8792023757    0.0204686104    1.0489769159
 H   -2.0681961746   -0.2007745360   -0.7469651918
 H   -1.4835716168   -1.5153091253    0.3031371221
 H   -1.7953828602    0.0848114348    0.9692274876
 H    2.2247024742   -0.9784068970   -2.6014897232
 H    3.6470171416    0.4488911005   -1.6058734539
 H   -1.0454465484   -1.7637512351   -1.7647847237