19

 C    0.0360669841    1.4824540246   -0.0507811188
 C   -0.0394815942   -0.0230569973   -0.0007591222
 C   -1.4193497483   -0.7263170334   -0.0350714376
 C   -0.8230021950   -2.1341943551    0.0649336756
 C    0.0077282213   -2.1104484925    1.3654350841
 C    1.3054462349   -1.9986518090    0.6045149453
 C    0.6724850396   -0.7545942645    1.1876536681
 C    0.5533607584   -1.9669133189   -0.7392206214
 O    0.5750251757   -0.6165314796   -1.1693114116
 H    1.0773685514    1.8176335251   -0.0612581499
 H   -0.4544005870    1.8635746260   -0.9510320371
 H   -0.4595538391    1.9183892019    0.8218613480
 H   -2.0519928266   -0.4827669284    0.8239156116
 H   -1.9494032889   -0.5177727131   -0.9682249130
 H   -1.4451000897   -2.9988898598   -0.1543756962
 H   -0.2124151224   -2.5760007604    2.3172785316
 H    2.3033146219   -2.3543839657    0.8259724428
 H    1.1281499605   -0.2232798001    2.0120673515
 H    0.8084837233   -2.6493379398   -1.5465045107