17

 C   -0.1817652339    1.3994205847    0.0475720953
 N    0.1118003224   -0.0130403818    0.0206829935
 C    0.0678485518   -0.8292471844   -1.0820000007
 N   -0.0092816868   -2.0970150194   -0.8768259989
 C   -0.0159853852   -2.2826841967    0.5575650941
 C    1.2222405548   -1.8194840311    1.3191688224
 C    0.0855182729   -0.8534004191    1.1810136426
 C   -0.8211890030   -3.3369866838    1.0985534228
 C   -1.4954419989   -4.2138849191    1.5703607850
 H    0.5937189261    1.9618612709    0.5800324387
 H   -0.2312608657    1.7716146904   -0.9788127268
 H   -1.1478291652    1.6045782740    0.5298004845
 H    0.1137618266   -0.3843117411   -2.0711096505
 H    1.3614861240   -2.2652651600    2.2967190384
 H    2.1264080302   -1.6483855096    0.7440403218
 H   -0.4859606161   -0.5055257400    2.0343154162
 H   -2.0928315540   -4.9920893139    1.9758570415