18

 C    0.0428185237    1.3468122107    0.1539773687
 C    1.4630680176    1.9131145672   -0.0083472572
 C    2.2450456789    0.6227689687   -0.0588879466
 N    3.6870425162    0.4864531991   -0.1372187777
 C    2.9688127486   -0.0541656621    1.0541110726
 C    2.5120805875   -1.4761523442    1.0312891437
 C    1.5939076668   -1.6834997587    0.0800409372
 C    1.3201643113   -0.4159440579   -0.7048874436
 O    0.0002872286    0.1191032838   -0.5848948692
 H   -0.1755060004    1.1577935452    1.2156184479
 H   -0.7376962451    2.0000479414   -0.2457700551
 H    1.5633104750    2.4663899209   -0.9488878352
 H    1.7556691774    2.5708485635    0.8125983642
 H    3.9442539009   -0.2739827422   -0.7653727246
 H    3.2288935910    0.4321124543    1.9890173731
 H    2.9002259088   -2.2290880933    1.7085422852
 H    1.1426946138   -2.6363646096   -0.1719841234
 H    1.5184173994   -0.5676211266   -1.7765056699