17

 N   -0.0890879038    1.2004591961    0.5105020710
 C    0.0096418568    0.0050073796   -0.1398643175
 O    1.0087692726   -0.3226363019   -0.7510719306
 C   -1.2401293157   -0.8704774804   -0.0681364284
 C   -0.9036257333   -2.3602219142   -0.1913167105
 C   -2.1431954149   -3.2113581886   -0.2901101018
 C   -2.2578810443   -4.5196963036    0.3634587599
 O   -2.9063678728   -3.3709356172    0.9131630474
 H    0.6944398769    1.8315755727    0.4750661993
 H   -0.8999503486    1.4604341603    1.0429263277
 H   -1.8010511406   -0.6823331809    0.8537567697
 H   -1.8944341347   -0.5660798645   -0.8969574005
 H   -0.2740094216   -2.5068315798   -1.0747890405
 H   -0.3147435395   -2.6785127220    0.6756012710
 H   -2.7610807372   -3.0365116845   -1.1741768764
 H   -2.9204960447   -5.2790264928   -0.0498755361
 H   -1.4182765146   -4.9037457484    0.9418405963