20

 C    0.0618989115    1.5364526374    0.0190124042
 C   -0.0195377707    0.0270546994    0.0013062233
 C    0.4558027143   -0.7161872652   -1.2787647913
 C   -0.6957665197   -1.7416388474   -1.1346830313
 C   -0.4329169549   -2.8049928594   -0.0397504662
 C   -0.7612449790   -1.7638800398    1.0588731854
 C    0.3790567351   -0.7422514166    1.2921303927
 C   -1.3547724662   -0.8165059010   -0.0471062909
 H    1.1065573131    1.8719013257    0.0534064979
 H   -0.3951198493    1.9735627366   -0.8762711606
 H   -0.4476646543    1.9556454199    0.8942755191
 H    0.3069022290   -0.0862667799   -2.1624198618
 H    1.4827388646   -1.0990276468   -1.2956773906
 H   -1.1906721926   -2.0703424403   -2.0492338371
 H   -1.1971056686   -3.5880911795   -0.0705007097
 H    0.5534242754   -3.2821712732   -0.0151469722
 H   -1.3096181887   -2.1107448419    1.9354303366
 H    1.4033875170   -1.1259748577    1.3625111888
 H    0.1773285523   -0.1302732047    2.1779103268
 H   -2.3638959184   -0.4097124556   -0.0731021031