20

 C   -0.0364241515    1.5246101686   -0.1644698310
 C   -0.0078667409    0.0152022716    0.1160492389
 C   -1.3723766982   -0.5971316693    0.0629356601
 C   -2.1179708667   -1.0577505529   -1.1583900064
 C   -1.9231953749   -2.0103305046    0.0121824146
 C   -1.2753298204   -3.3593336444   -0.0910498677
 C   -2.8400346032   -1.5444139781    1.1394672412
 O   -2.3195609016   -0.1910165722    1.0671739362
 H    0.9659016336    1.9564862672   -0.0888137850
 H   -0.4216205795    1.7299318746   -1.1683307352
 H   -0.6834161757    2.0356289983    0.5541917705
 H    0.6326717102   -0.4933220118   -0.6144130742
 H    0.4277082910   -0.1684759336    1.1059666019
 H   -3.0957243779   -0.6388104559   -1.3839593337
 H   -1.5044577742   -1.2858393867   -2.0256115773
 H   -0.4591014132   -3.3510602448   -0.8206937573
 H   -0.8595203236   -3.6798514918    0.8711063471
 H   -1.9924926944   -4.1237407239   -0.4147963717
 H   -3.9236737951   -1.5849704561    0.9720290723
 H   -2.6007587837   -1.9971970441    2.1100282867