21

 C   -0.0206622701    1.5945540765   -0.1573807607
 C    0.1161855083    0.0989805101    0.0100367014
 O    0.6382597321   -0.4860677127   -1.1663121333
 C    1.2580880498   -1.7027419204   -0.7669869884
 C    2.6248195642   -1.9188257128   -1.4364797783
 C    3.5319810980   -2.4170663080   -0.2943636336
 C    3.0668350967   -1.6001780239    0.9267832010
 C    1.5422185240   -1.5034093754    0.7568968297
 O    1.0396221853   -0.2025561125    1.0377110829
 H    0.9547912636    2.0272076087   -0.3918957259
 H   -0.7179840000    1.8165385918   -0.9689203208
 H   -0.3997907769    2.0395998261    0.7658255662
 H   -0.8616523330   -0.3648587082    0.2479304568
 H    0.5767173193   -2.5459142396   -0.9429544809
 H    2.5842964685   -2.6037801329   -2.2869886289
 H    2.9722178928   -0.9477104321   -1.8037266233
 H    3.3635388389   -3.4871022794   -0.1185614825
 H    4.5968284920   -2.2939612822   -0.5102012399
 H    3.3670297084   -2.0392577212    1.8813956922
 H    3.4714808812   -0.5838073468    0.8825292936
 H    1.0139678968   -2.2490251251    1.3660900627