13

 O    0.1968149334    1.3486399735   -0.1491074715
 C    0.0885304103   -0.0302362447   -0.0731178877
 C    0.0495458880   -0.6463338829    1.3829955595
 O   -1.3399192254   -0.1636609073    1.4508593645
 C   -1.3788814484   -0.6077512752    0.0474805058
 C   -1.1000768451   -2.0988655039    0.1577959565
 C   -0.1220591355   -2.1252844958    1.0722161573
 H   -0.4146942155    1.6977024507    0.5150642719
 H    0.7627555255   -0.4754915286   -0.8071111371
 H    0.6885338908   -0.3057391633    2.1963567606
 H   -2.2229214981   -0.2270921417   -0.5257217832
 H   -1.5605947161   -2.8932162949   -0.4102806122
 H    0.4523492660   -2.9475921557    1.4717731257