19

 N   -0.0106481116   -1.2876606449   -0.2817792101
 C   -0.0361780564   -0.1322616374   -0.2702045190
 C   -0.0497506304    1.3278635446   -0.2472902053
 C    1.3097924941    1.9732848840    0.0481301659
 C    2.2453345529    1.2989608052    1.0171558808
 C    2.5692126085    1.3128010280   -0.4583137016
 C    1.2004725895    3.4749005367   -0.0062941426
 C    0.8508651630    4.2681027561    1.2025122511
 N    2.1873229592    4.3762528591    0.5916947951
 H   -0.4207345046    1.6793612862   -1.2186210009
 H   -0.7825521323    1.6525870988    0.5016761797
 H    2.8440326305    1.9080657178    1.6867506576
 H    1.9274716768    0.3582651076    1.4528773082
 H    2.4853561979    0.3779246665   -1.0012638210
 H    3.3665885098    1.9645969976   -0.7981066655
 H    0.8364482589    3.8392510526   -0.9674143142
 H    0.2341516608    5.1584938206    1.1215925521
 H    0.7563583879    3.7288615015    2.1418960935
 H    2.8648304454    3.8597165196    1.1468415564