17

 O   -0.0253019282    1.4593717112    0.0121535851
 C    1.3333287222    1.8122034568    0.0562596072
 C    1.9601801006    0.9737445969    1.1857534620
 C    2.5983111063    0.0627235331    0.1616747319
 C    1.2902697255   -0.3236930488    0.8165554998
 C    0.0366936162    0.0037901762   -0.0469496443
 C    0.2577089164   -0.3327374724   -1.4998786044
 C    1.3517829800    0.2345150381   -2.0207319632
 C    2.1913148648    0.9647723877   -1.0231443585
 H    1.4403758977    2.8946536053    0.0290158890
 H    2.2518346005    1.2771125992    2.1817891875
 H    3.4927859342   -0.5455865782    0.2255443150
 H    1.2694833922   -1.1553234323    1.5078626118
 H   -0.8906112895   -0.3902230254    0.3690613113
 H   -0.4645869792   -0.9132036153   -2.0621122993
 H    1.6231992690    0.1777383790   -3.0696258711
 H    3.0164216015    1.5418073190   -1.4412472396