19

 C   -0.3009074095    1.3765642320    0.5623994337
 C   -0.0196348350   -0.0143201252    0.0314081986
 C    1.3159940093   -0.3392161442   -0.5900515017
 C    0.9417057677   -0.9146018664    0.7558303820
 N   -1.1688576735   -0.6582994440   -0.5549998500
 C   -1.5455783172   -0.6559319306   -1.8605103846
 C   -2.7668595481   -1.2914265273   -1.9292015514
 C   -3.0538687731   -1.6361132735   -0.5922927163
 N   -2.0906276248   -1.2477005197    0.2384675943
 H    0.5975596939    1.8042671639    1.0163245820
 H   -0.6302143792    2.0450944464   -0.2401903213
 H   -1.0877877314    1.3377006309    1.3213231745
 H    1.3340206886   -1.0153045392   -1.4367071735
 H    2.0517183980    0.4562826175   -0.6316323555
 H    1.4238170239   -0.5194017891    1.6427977084
 H    0.6896590577   -1.9663608080    0.8051863766
 H   -0.9205380435   -0.2141516877   -2.6200478940
 H   -3.3546670289   -1.4830778585   -2.8121058700
 H   -3.9169742249   -2.1557842073   -0.2018322319