19

 C    0.1936809642    1.5824518925   -0.1799156120
 C    0.1256800861    0.1312002937   -0.0809394646
 C    0.0788299503   -1.0705344608   -0.0036670402
 C    0.0154076434   -2.5155729842    0.1050035678
 C    0.1749408042   -3.0602788109    1.5722561178
 C   -1.3280364701   -3.3739585391    1.5625818978
 O   -2.1308934384   -3.6151333150    2.4164441147
 C   -1.4419819556   -3.1403001398    0.0480115189
 C   -2.6274998834   -2.3493370546   -0.4800076523
 H    1.2234331506    1.9221209004   -0.3370312393
 H   -0.4084578593    1.9537982491   -1.0165169306
 H   -0.1769680560    2.0616098220    0.7329410664
 H    0.7029807397   -2.9779883094   -0.6076147981
 H    0.7860949204   -3.9662927927    1.6303124670
 H    0.5138511536   -2.3508439213    2.3291928039
 H   -1.3805790309   -4.1165869949   -0.4505852853
 H   -2.6565217048   -1.3488949466   -0.0411170659
 H   -2.5797809954   -2.2410353864   -1.5677350893
 H   -3.5590730488   -2.8634148722   -0.2255865867