18

 N    0.8394237879   -0.1198651303   -0.3581934402
 C   -0.2862632803    0.6029832978   -0.1405108462
 O   -0.3407324888    1.8172887996   -0.0766830434
 C   -1.5421539038   -0.2453535612    0.0406636829
 O   -1.3096591503   -1.6725348914   -0.0101159517
 C   -1.8752738252   -1.8596721346    1.3087218307
 C   -2.1285593078   -0.3437932336    1.4762479438
 C   -1.3805021327    0.3632665919    2.6004741038
 O   -1.9581160590    0.0911413953    3.8681742629
 H    1.7051695758    0.3572450571   -0.5456894243
 H    0.7717963351   -1.1216731677   -0.4334963620
 H   -2.2653699691    0.0742567621   -0.7182201618
 H   -2.7660484215   -2.4961961608    1.2755606528
 H   -1.1465862413   -2.3021432267    2.0023607051
 H   -3.1857474760   -0.0789831955    1.5329155247
 H   -0.3140938658    0.0894984013    2.5770870230
 H   -1.4380868507    1.4450869049    2.4569065761
 H   -1.7870681363   -0.8306921384    4.0853514737