21

 C   -0.1395942411    1.5476724393    0.0121433827
 C   -0.0078275521    0.0297388063    0.0294877682
 C    1.0715236121   -0.6080799546   -0.9022230883
 C    2.1135803565   -0.2713487535    0.2217204340
 C    0.8857974640   -0.6022235215    1.1415956239
 C    0.7773075863   -2.1259282973    0.8477388945
 C    1.2876867765   -3.1511112897    1.8150601086
 O   -0.3365007693   -2.5080992599    0.0134358248
 C    0.9001317698   -2.1184943355   -0.6119425334
 H    0.8126336718    2.0778694865    0.0999098997
 H   -0.6140857928    1.8755870379   -0.9195146748
 H   -0.7784040340    1.8808955893    0.8377493713
 H   -0.9960778625   -0.4204952811   -0.0587417327
 H    1.2032073659   -0.2958682757   -1.9388431844
 H    2.9911782791   -0.9206599590    0.3018251418
 H    2.4281900974    0.7723996788    0.2469904262
 H    0.8317764197   -0.2836330894    2.1838582160
 H    0.6361161005   -3.2156705230    2.6939067194
 H    1.3265106717   -4.1385633274    1.3478717835
 H    2.2917217605   -2.8874275106    2.1646165620
 H    1.3949237699   -2.8815196899   -1.2049702231