21

 C    0.0190969684    1.2599950673    0.2600955987
 C   -0.2218245315   -0.1897389074   -0.1800089561
 C    0.6663743321   -0.5981117522   -1.3356308084
 O    0.4052828516    0.0317754331   -2.5656648543
 C    2.1193105546   -0.9798823952   -1.0792530022
 O    2.6063888985   -1.0417733455    0.2265925242
 C    1.1313522059   -2.0310262352   -1.5183473906
 O    0.8723062548   -2.9888574498   -0.5412601834
 C   -0.3595960969   -3.6691046312   -0.7146999628
 H    1.0469310719    1.3878680015    0.6120859710
 H   -0.1550039046    1.9606436046   -0.5644195876
 H   -0.6576774541    1.5420185402    1.0720697752
 H   -0.0427438331   -0.8626101774    0.6625235423
 H   -1.2674253003   -0.3190551019   -0.4850127253
 H    0.7680146436    0.9238568167   -2.5244776180
 H    2.8571701289   -0.6429079667   -1.8041622983
 H    2.3521096414   -1.9061156643    0.5752196563
 H    1.1739103431   -2.4044257696   -2.5416084727
 H   -0.4379892892   -4.4001396887    0.0930937452
 H   -1.2117152671   -2.9796201138   -0.6659486050
 H   -0.3868509679   -4.1952375244   -1.6791364179