18

 C    0.1070977497    1.5386395884    0.1427375745
 C    0.0375608399    0.0116970268   -0.0266560672
 C   -1.4059084941   -0.5377736508    0.0204344124
 C   -2.1141242157   -0.3138237857    1.3686572738
 C   -3.4403456447   -1.0412702405    1.4203024173
 O   -4.5030193855   -0.5211607260    1.6383479715
 C    0.6495999252   -0.3704726461   -1.3622174764
 O    1.5642395381   -1.1373321346   -1.5127213434
 H    1.1415426234    1.8909775938    0.0895328909
 H   -0.4641513287    2.0481456175   -0.6416891243
 H   -0.2996458212    1.8494624783    1.1082038769
 H    0.6358549288   -0.4812413657    0.7478331717
 H   -1.9987621845   -0.0774146759   -0.7808616799
 H   -1.3784383258   -1.6143304222   -0.1918430740
 H   -1.4843098178   -0.7170664007    2.1752087578
 H   -2.2967931838    0.7438835464    1.5715288462
 H   -3.3672931198   -2.1382827872    1.2292565301
 H    0.1672248065    0.1271002544   -2.2385973280