23

 C    0.0183601966    1.6230738661    0.0454823355
 C    0.0533584841    0.1139194074   -0.0182555582
 C    0.6359690115   -0.6781917622   -1.1828067059
 C    1.6005425138    0.0112283817   -2.1441622336
 C    2.9399254316    0.0473444758   -1.3559365946
 C    3.7788382862   -1.2084414008   -1.6266200197
 C    3.7555744197    1.3145809428   -1.5835531744
 O    2.5299907240    0.0418035043    0.0361359933
 C    1.3293286234   -0.6735299305    0.1551339306
 H    0.9960663913    2.0548321798   -0.1776254901
 H   -0.7139781873    2.0404016041   -0.6544889998
 H   -0.2587507845    1.9532428748    1.0522699516
 H   -0.8177358789   -0.3680843752    0.4212145300
 H    0.0882621904   -1.5461105244   -1.5307929630
 H    1.7006294624   -0.5494439601   -3.0774728278
 H    1.2771056307    1.0238891962   -2.4066976270
 H    4.1456690242   -1.2226887527   -2.6583870450
 H    4.6389210027   -1.2392969872   -0.9516250407
 H    3.1835499152   -2.1124404679   -1.4643692621
 H    3.1651092826    2.2050536706   -1.3505994791
 H    4.6467259922    1.3188584877   -0.9490706805
 H    4.0784870934    1.3784427855   -2.6275077397
 H    1.3764369647   -1.5356774759    0.8144595303