20

 C   -0.0497352084    1.6101640409    0.0247648022
 C    0.0800376272    0.0993030545   -0.0677513779
 C    0.8253350563   -0.5914361890   -1.1927580989
 C    2.3083983345   -0.6809928535   -0.7284808873
 O    3.3313842504   -0.9825384967   -1.6037546775
 C    2.3683955991   -0.0273996695    0.6388794657
 N    1.0014653344   -0.6248674673    0.9211401761
 C    1.2884835655   -1.6459151566   -0.2166460105
 C    1.1824687053   -3.1258644615   -0.1151591575
 H    0.8695812380    2.1345341485   -0.2474438854
 H   -0.8374706701    1.9554807404   -0.6534765244
 H   -0.3293109931    1.9061512123    1.0419005787
 H   -0.9092215983   -0.3519897750    0.0704606557
 H    0.5741594884   -0.7207832638   -2.2400165598
 H    3.4600260702   -0.2342929311   -2.1971342048
 H    3.1017052547   -0.5101054437    1.2909414665
 H    2.4443832960    1.0589066209    0.7480006129
 H    0.1517231878   -3.4442297412    0.0743388883
 H    1.5171360065   -3.5876235963   -1.0495867333
 H    1.8092576857   -3.5110122021    0.6964013810