15

 C   -0.0509330757    1.4981072224    0.0154177634
 C    0.0025531401   -0.0206166194   -0.0233979990
 C    0.7473624817   -0.6876207903   -1.1385457201
 N    1.3020530607   -0.7005056004    0.2183499952
 C   -1.1426942432   -0.6815785017    0.5465401111
 C   -2.1335646825   -1.1961814266    1.0149377673
 C   -3.2407820750   -1.7853638548    1.5408464924
 C   -4.2256070931   -2.3062613511    2.0073296310
 H    0.8301672349    1.9238756905   -0.4754820245
 H   -0.9426448273    1.8700865972   -0.4977319088
 H   -0.0826126270    1.8581097484    1.0483831130
 H    0.4119208566   -1.6532802378   -1.5031243687
 H    1.1913019096   -0.0392720959   -1.8901712737
 H    2.0275478299    0.0083663207    0.3063644411
 H   -5.0888944097   -2.7671398212    2.4187320103