14

 O    0.0479084103   -0.0026141784    0.0594728836
 C   -0.0078146818    1.1937859972   -0.0318550051
 C   -1.2806877522    2.0411912382   -0.1794193163
 C   -0.8223750135    3.3126863295   -0.9480339276
 C   -1.5688559824    4.5213860557   -0.6056565225
 N   -2.1594051370    5.4775867737   -0.3380306182
 C    0.6755049519    3.4226683502   -0.6301335879
 O    0.9546541734    3.2858901694    0.7494837435
 C    1.1668010742    2.1382033401   -0.1000169323
 H   -2.0596066744    1.4826003781   -0.6982856240
 H   -1.6515050445    2.3002018730    0.8159657391
 H   -0.9274832690    3.1474296106   -2.0270688721
 H    1.3043092052    4.1093469471   -1.1891250072
 H    2.1850107399    1.7774960257   -0.1961577031