18

 C   -0.3760551728    1.4574815134   -0.0220529007
 C    0.1365242904    0.0370635317   -0.0447188092
 O    1.4140913024   -0.0826135383   -0.7599952468
 C    2.0268299452   -0.6844688220    0.3110052569
 N    3.1923072847   -1.1135785238    0.4645862355
 C    0.8032881449   -0.6004740018    1.2299823274
 C    1.0207509657    0.3011280034    2.4539716601
 C    0.2344195789   -1.8826814821    1.6105955500
 C   -0.2612813885   -2.9301520593    1.9288038328
 H    0.3583417588    2.1492536477    0.3965098076
 H   -0.6080094007    1.7817409362   -1.0409930297
 H   -1.2949009424    1.5183294759    0.5699806931
 H   -0.5911791670   -0.6393100979   -0.5004908401
 H    3.7545068947   -0.9857569073   -0.3785373912
 H    1.4736470566    1.2539818079    2.1708451865
 H    0.0738619175    0.4928261397    2.9657613765
 H    1.6963052691   -0.2004487864    3.1502891224
 H   -0.6823061076   -3.8640638371    2.2091181889