19

 C   -0.2352260227    1.6601741598   -0.0544824846
 C   -0.0046557423    0.1617797603    0.0348769866
 C   -1.2774368641   -0.7047920453   -0.0290214265
 C   -0.9386353714   -1.9123242270    0.8645530919
 O   -0.0888716918   -1.3934205901    1.8869675937
 C    0.7509414629   -0.4499754531    1.2764851840
 C    1.7639890782   -1.0033584264    0.2505435968
 N    2.7497134472   -1.7858589076    0.3700708243
 N    1.1258162657   -0.3281333495   -0.7838729223
 H    0.7071747395    2.2039252505    0.0558379943
 H   -0.6716776019    1.9363457666   -1.0213610755
 H   -0.9250645434    1.9924167683    0.7277974070
 H   -2.1194857479   -0.1474904092    0.3932601534
 H   -1.5416258359   -0.9924681641   -1.0508632490
 H   -1.8079284840   -2.3607603298    1.3499134917
 H   -0.4170518326   -2.6942243470    0.2942611669
 H    1.1504740587    0.2222215047    2.0364859470
 H    3.1780544821   -1.9964523087   -0.5341689506
 H    1.1195045838   -0.5663981624   -1.7663040991