18

 O    0.3689778732    1.3151733896   -0.2698923831
 C    0.1450227017   -0.0417408500   -0.0307071670
 C    0.2115238765   -0.4561399393    1.5103458879
 N   -1.2484147993   -0.1267986389    1.5362800370
 C   -2.5852977619   -0.8378705764    1.6541340469
 C   -2.8763242394   -0.1119977322    0.2487709659
 C   -1.3446915004   -0.5064085825    0.1289371483
 C   -1.4952897064   -2.0675957551    0.1421421168
 C   -2.3180257770   -2.2677412686    1.1703828742
 H   -0.1994647482    1.7943479671    0.3467112557
 H    0.7718136447   -0.6039611101   -0.7264530273
 H    0.4663058188   -1.5163443585    1.6314662709
 H    0.8232317931    0.1692996916    2.1650431452
 H   -3.1947978005   -0.6588157566    2.5397836765
 H   -3.5989412754   -0.5963547987   -0.4100017861
 H   -3.0497033827    0.9614435744    0.3462620040
 H   -1.0602659677   -2.7645538215   -0.5607629860
 H   -2.7417586989   -3.1763423743    1.5734849401