20

 C   -0.0403200422    1.6481326514   -0.0080978599
 C    0.0987929601    0.1332755633    0.0431207749
 C    1.1352823433   -0.6655467616   -0.8376224657
 C    2.4076514728    0.1257294009   -0.9897338605
 C    3.0087983969    0.1609476668    0.2006781350
 C    2.2359970276   -0.6967271046    1.1394897663
 N    1.3750676302   -1.6119957677    0.3477324291
 C    0.7290901888   -0.5780894300    1.2364670442
 C   -0.0067944201   -0.9317303965    2.4971576925
 H    0.9225896140    2.1470906693    0.1255357834
 H   -0.4636081754    1.9741494868   -0.9648913463
 H   -0.7137616474    1.9961694760    0.7830625318
 H   -0.8789688254   -0.3336474556   -0.1182758405
 H    0.7494823100   -1.1584229441   -1.7293743840
 H    2.6787354682    0.6816454644   -1.8781305940
 H    3.8967961837    0.7130622019    0.4796437705
 H    2.7292553329   -1.1535197463    1.9931419590
 H    0.5612264596   -1.6523273634    3.0932688524
 H   -0.1744045847   -0.0415028420    3.1144384225
 H   -0.9828338530   -1.3757914890    2.2718203894