18

 O    0.4918544987   -0.3736804762   -0.6272573938
 C    0.2432854700    0.7754223859   -0.3785590129
 C    1.3288292762    1.8219603550   -0.0404223044
 N    2.6744829646    1.2727151462    0.0127817765
 C    3.1156966635    0.8652269329    1.3240381508
 C    2.5879673144   -0.3637196684    2.0439954591
 C    3.9870348976   -0.3435864220    1.4654804178
 C    1.1827582311    2.8985850111   -1.0281445593
 C    1.0104431043    3.7402178764   -1.8685849848
 H   -0.7914326217    1.1766625214   -0.4139563877
 H    1.0710119732    2.2252011040    0.9496408555
 H    2.7386679640    0.5013831830   -0.6432751167
 H    3.3696992474    1.7156448162    1.9528895930
 H    2.4750625741   -0.3243618805    3.1224281442
 H    1.8513540005   -0.9666875606    1.5267543698
 H    4.1665173463   -0.9405955533    0.5767385830
 H    4.8353046687   -0.2922215917    2.1384857858
 H    0.8854875170    4.5011763004   -2.5990772859