15

 C   -0.0064640306    1.4887868812   -0.0170284296
 C    0.0396646161   -0.0096557009   -0.0855367455
 C    0.5596695040   -0.9535324929   -1.1970502884
 C    0.0718435882   -1.9401993900   -0.1144852871
 C    0.5086411052   -0.9940299188    1.0427175195
 O   -0.7819953514   -1.0181170562    1.7239493157
 C   -1.1059046858   -1.0098173681    0.3007813778
 H    0.9970168717    1.9217313590   -0.0909919241
 H   -0.6106084356    1.9060261034   -0.8299280116
 H   -0.4468887014    1.8048040725    0.9344471403
 H    0.0054300539   -0.9488212910   -2.1404866144
 H    1.6363410158   -0.9328766782   -1.3910290347
 H    0.0758930529   -3.0293316324   -0.1001213408
 H    1.4190345899   -0.9909004895    1.6427359989
 H   -2.1540439686   -1.0258401581    0.0007886160