17

 C   -0.1664015483    1.5303158432    0.1124338756
 C    0.0096514238    0.0294858437    0.0852756530
 C   -1.2501940417   -0.8061651233   -0.2031313570
 C   -1.1187768506   -1.9908851916    0.7231041187
 C   -0.0485412518   -1.9159369135    1.5162696780
 C    0.7669211972   -0.6815286644    1.2427049203
 C    1.8525253760   -0.8995203313    0.1750449273
 O    2.9436425569   -1.3649104651    0.1058196867
 O    1.1098329689   -0.3465620058   -0.8359901563
 H    0.7803667189    2.0322819676    0.3303252028
 H   -0.5300060987    1.8918354328   -0.8547163332
 H   -0.8956390721    1.8128573787    0.8781508083
 H   -2.1685806465   -0.2362873802   -0.0134341805
 H   -1.2709466325   -1.0949698964   -1.2609240830
 H   -1.8317027169   -2.8077646835    0.7225259763
 H    0.2502272682   -2.6556606611    2.2487680736
 H    1.0799874892   -0.1089766897    2.1182294994