17

 O    0.0215132543    1.4773971174   -0.0526503605
 C    0.0242459461    0.0693957901    0.0141832112
 C    0.1348155260   -0.6232781729    1.3982601731
 C   -0.9649845724    0.0251889662    2.2650653985
 O   -1.4842204916   -1.0497969149    3.0959156768
 C   -2.0251176375   -1.5630667320    1.8708065798
 C   -2.1246818661   -0.1595402092    1.2200717667
 C   -1.3525245285   -0.5928706551   -0.0586402656
 C   -0.8328862042   -1.7518083609    0.8651028720
 H    0.9286110179    1.7906928928    0.0202282658
 H    0.7173981670   -0.3721283163   -0.7159483084
 H    1.0891037445   -0.8393330894    1.8771739484
 H   -0.7620762282    0.9457967473    2.8072574713
 H   -2.8036557354   -2.3162801765    1.9840903213
 H   -2.9958505253    0.4895690439    1.2444102078
 H   -1.8999427497   -0.7347901156   -0.9882736239
 H   -0.4384465367   -2.7042339148    0.5218415056