17

 O    0.1976776639    0.0095547576    0.4863434964
 C    0.1271553458    1.1853503676    0.2553619375
 N   -0.9692098613    2.0556501827    0.1248788239
 C   -0.1006986459    3.2187628625   -0.0868118714
 C    0.8717991155    3.3870621797    1.0369116700
 C    1.1234252751    2.3088210603   -0.0275351935
 C    2.3470335873    2.2204835569   -0.8587999824
 C    3.1480802051    0.9662212552   -0.8499476544
 N    2.3850526138    1.3531943648   -2.0491338349
 H   -1.7587358444    2.0471031861    0.7615685568
 H   -0.3473546701    3.9657999568   -0.8290497665
 H    1.5483151324    4.2357092253    0.9726511797
 H    0.5918225090    3.1072478514    2.0486116165
 H    2.8689696204    3.1654207301   -0.9979248401
 H    4.2280197078    1.0154940004   -0.9565935628
 H    2.7739322441    0.1449271003   -0.2461433880
 H    1.5339962114    0.7971944023   -2.0999976667