22

 C    0.0927303628    1.4340025335    0.2007796989
 C   -0.1364590270   -0.0716390124    0.3323011532
 C   -1.5824739172   -0.4642780353    0.0255609983
 O   -2.2942041926    0.1904236670   -0.7167094655
 N   -2.0010406678   -1.6151453570    0.6314988360
 C   -3.2980933762   -2.2220581591    0.3777772567
 C   -3.1806880376   -3.6347830351   -0.1490403010
 C   -2.9984800827   -4.7900125995    0.8087680157
 C   -4.3030230253   -4.6133417859    0.0717631978
 H    1.1538084801    1.6770325439    0.3058702695
 H   -0.2578865421    1.7811200299   -0.7730384541
 H   -0.4616639424    1.9851912843    0.9661945168
 H    0.5009068785   -0.6107965026   -0.3816324009
 H    0.1493957575   -0.4294339671    1.3286979896
 H   -1.3474221362   -2.1254812522    1.2033483962
 H   -3.9004127474   -2.2238165895    1.2974913244
 H   -3.7983984558   -1.5690809245   -0.3414419009
 H   -2.6528142114   -3.7105316297   -1.0957465780
 H   -2.3471913420   -5.6065860183    0.5179131586
 H   -2.9912375315   -4.5744982749    1.8731333292
 H   -5.1634682435   -4.2771286471    0.6412232503
 H   -4.5443659502   -5.3063539386   -0.7259730910