20

 C    0.0326441502    1.5503690894   -0.0702443897
 C    0.0117638673    0.0364952385    0.1664357320
 C   -1.3812167962   -0.5634375544    0.0106351348
 C   -2.0503052191   -0.6376414340   -1.4076033298
 C   -2.2418743757   -2.1482057237   -1.2380941638
 C   -0.9264129936   -2.8247527917   -1.0349078351
 C   -1.5441928724   -2.0962088135    0.1415221293
 C   -1.8881902553   -2.7702658961    1.3492715999
 N   -2.1701296269   -3.2952911138    2.3425427599
 H    1.0421765771    1.9543774980    0.0493787382
 H   -0.3077154816    1.8014916491   -1.0807633387
 H   -0.6210318536    2.0708392711    0.6381931607
 H    0.7080409043   -0.4520722609   -0.5262612498
 H    0.3787334826   -0.1852131206    1.1766589309
 H   -2.0679559887   -0.0734652463    0.7073942793
 H   -2.9857573844   -0.0789846224   -1.4610016427
 H   -1.4199295150   -0.3469859667   -2.2543198449
 H   -3.1355282185   -2.7049121466   -1.4893758510
 H   -0.9574662721   -3.9061205960   -0.9599950189
 H   -0.0235650385   -2.4309176096   -1.4933678906