15

 O    0.3493032372    0.1015485170    0.1738186878
 C    0.6324984123    1.2447489108    0.3628355604
 O    0.7345441060    2.1370713559   -0.6470579466
 C    1.0181137070    3.4795968861   -0.3370196976
 C    1.8556038145    4.0555529636    0.7731231495
 C    3.2235124638    3.3443902641    1.0074327292
 O    3.3206375582    2.1934768703    0.1623338297
 C    3.5886930507    3.4853511783   -0.3948836243
 C    2.2548296123    4.2209541044   -0.7206568176
 H    0.8228280367    1.6956389978    1.3517555709
 H    0.1305665363    4.0880722217   -0.5057968817
 H    1.4630204520    4.8029659714    1.4513400264
 H    3.8075441728    3.3639985488    1.9187455085
 H    4.5414126715    3.6394934064   -0.8847819819
 H    2.2180867387    5.1152970836   -1.3294068928