16

 C   -0.0012156836    1.5260197360   -0.0025627711
 C    0.0513576219    0.0050749794    0.0257340281
 O    1.1295655647   -0.5909820844    0.0141900050
 C   -1.1836433031   -0.7226751923    0.0583425960
 C   -1.3660865738   -2.1115371165    0.0614734883
 N   -0.3857112192   -3.0466952623    0.1271393361
 N   -2.6947982890   -2.4337867474    0.0312710020
 C   -3.3272704494   -1.2727335771    0.0187499278
 N   -2.4905552937   -0.2167690290    0.0365419519
 H    1.0170125185    1.9154460987   -0.0301302010
 H   -0.5452128130    1.8853687189   -0.8842195876
 H   -0.5102445410    1.9186125314    0.8857452281
 H    0.5484554321   -2.7003226350   -0.0433904144
 H   -0.6224937910   -3.9817988176   -0.1596940463
 H   -4.4012068974   -1.1567787508   -0.0014806828
 H   -2.7535477231    0.7534454379    0.0338266300