16

 N   -0.0715426688    1.3806068210    0.4098438718
 C    0.0154840549    0.1652365296   -0.1759648255
 O    0.9626769604   -0.2014173480   -0.8457805466
 C   -1.2097878669   -0.7678180788   -0.0083637290
 C   -0.7236532810   -2.2280256432    0.1150615352
 C    0.0335403920   -2.7262214449   -1.1070102802
 O    0.8783109093   -3.5794579846   -1.0589272201
 C   -2.1130807062   -0.3908527489    1.0718287504
 C   -2.8429713124   -0.0768073657    1.9750355154
 H    0.7143227208    2.0053188453    0.3334793988
 H   -0.8296316204    1.6026539344    1.0330938683
 H   -1.7558498346   -0.6751869551   -0.9597894197
 H   -0.0999582558   -2.3695014656    1.0008588369
 H   -1.6039727668   -2.8742252332    0.2288279976
 H   -0.3086949241   -2.2982595585   -2.0750335947
 H   -3.4991150903    0.1854853863    2.7683693813