18

 C   -0.0651004262    1.4359285497   -0.0053683177
 O    0.1590980777    0.0340358147   -0.0759023127
 C    0.7098203290   -0.5407152220    1.0752658763
 C   -0.2696951276   -0.7381638316    2.2688154158
 O   -0.3474283077   -2.1493289988    2.0278968505
 C    0.6781621270   -2.1028815135    1.0099745551
 C    0.2641259873   -2.7570317496   -0.2880407792
 C    2.0151004814    0.0492447049    1.4095723158
 N    3.0391954710    0.5169007388    1.6716778073
 H    0.8744388805    1.9864710270    0.1285491827
 H   -0.5196239692    1.7209152570   -0.9553699216
 H   -0.7512395653    1.6967290809    0.8117755005
 H    0.1452719135   -0.4995961165    3.2548289742
 H   -1.2352543901   -0.2376681420    2.1371997750
 H    1.6124659205   -2.5370875258    1.3881003723
 H   -0.6305327942   -2.2852315631   -0.6960169335
 H    1.0693730224   -2.6873025392   -1.0255544620
 H    0.0576489699   -3.8150975211   -0.1005512689