20

 O   -0.0687508295    1.4158264404   -0.2455875492
 C    0.0468965892    0.0102059393   -0.0572845770
 C   -1.3559352930   -0.5550002545    0.0269490828
 C   -2.2469562853   -0.5727473309   -1.2513937512
 C   -2.6766942515   -2.0356821019   -0.9318242767
 C   -1.9179782727   -3.1239707569   -1.7248461719
 C   -0.7425810155   -3.0399310026   -0.7039723181
 C   -1.5813675071   -2.0794430195    0.1969402677
 H    0.8139980364    1.7754637193   -0.3719534137
 H    0.5969318141   -0.4502015535   -0.8929785019
 H    0.6002851471   -0.2253605536    0.8677674301
 H   -1.8776703613   -0.0238735084    0.8305573866
 H   -3.0485854786    0.1679932236   -1.2681545799
 H   -1.6836422858   -0.4795232969   -2.1861215022
 H   -3.7387843754   -2.1905657777   -0.7363979057
 H   -2.4201401908   -4.0952170633   -1.6989821798
 H   -1.6874406657   -2.8880743114   -2.7685692758
 H   -0.4949312209   -3.9903778829   -0.2255699394
 H    0.1858807683   -2.6196882460   -1.0991822338
 H   -1.7745091519   -2.4405054427    1.2087589490