19

 C   -0.1544848560    1.6175046948   -0.0225449623
 C    0.0086269284    0.1067552400    0.0045659962
 O   -1.2431092619   -0.5348631956   -0.2000753866
 C    1.1484621218   -0.5894366952   -0.8286320558
 C    2.4359443921    0.0448088870   -0.2590992897
 C    2.0842341039    0.0320237160    1.2773472133
 C    0.6810141672   -0.6085680316    1.2241735281
 C    0.9568396098   -1.7321695954    0.1970470220
 O    0.9892743358   -2.9235916835    0.1910168859
 H    0.7717904736    2.1563546107    0.1857611706
 H   -0.5083159774    1.9410402837   -1.0088987833
 H   -0.9036752021    1.9186883224    0.7154020651
 H   -1.5382006871   -0.3435845407   -1.0970614375
 H    1.0681316409   -0.7379674584   -1.9051082617
 H    3.3207000438   -0.5533141402   -0.4904790267
 H    2.6078879004    1.0536456547   -0.6418911976
 H    2.7829495938   -0.5719699512    1.8609142333
 H    2.0677699113    1.0341614295    1.7123243301
 H    0.1360405317   -0.7755186069    2.1508065166