15

 C   -0.0856177680    1.5999709260   -0.0548540767
 C    0.0990999431    0.0763515032    0.0168659438
 N   -1.1712708765   -0.6071123249    0.1979882002
 C   -1.8352992136   -0.9648429407   -0.8371046791
 N   -1.5349701730   -0.8554311034   -2.1686369371
 C   -3.1411237621   -1.6526152789   -0.5688508304
 O   -3.8949745792   -2.0034229637   -1.4451162270
 H    0.8842860507    2.1026371658   -0.1194811094
 H   -0.6802701090    1.8911293692   -0.9272729397
 H   -0.6055561929    1.9601159879    0.8369721895
 H    0.6424130608   -0.2778921031   -0.8745854473
 H    0.7284050030   -0.1619682723    0.8812066588
 H   -0.8745167100   -0.1683388999   -2.4859129673
 H   -2.2909498698   -1.0904568818   -2.7951832982
 H   -3.3427843232   -1.7965264336    0.5086012602