18

 O    0.0637246491    1.2976149873    0.2995118018
 C   -0.0020670794   -0.1043267583    0.1015178967
 C   -1.4405697590   -0.6033906931   -0.0666431555
 C   -1.5150218028   -2.0868215108   -0.3488357850
 O   -1.0194237839   -2.9008907731    0.7886229179
 C   -2.2634592226   -3.4401721718    0.9976836917
 N   -2.7247538211   -4.1640968682    1.9117518428
 C   -2.8965259646   -2.7825964514   -0.2128211412
 O   -3.9966616767   -1.9470883833    0.0331099554
 H   -0.3518207383    1.4962570400    1.1446362025
 H    0.5717128623   -0.3009066477   -0.8113750544
 H    0.4888183069   -0.6538321919    0.9179072872
 H   -2.0286131379   -0.3796509827    0.8307352053
 H   -1.9160615597   -0.0666747316   -0.8958072509
 H   -0.9556163737   -2.3635231753   -1.2473982925
 H   -2.0230611662   -4.3826162437    2.6208510293
 H   -3.1014301229   -3.4867173616   -1.0297794728
 H   -4.4978769195   -2.3434238229    0.7553578715