20

 O    0.0872209528    1.3831360429   -0.1273844859
 C    0.0768504627   -0.0170339728    0.0322076003
 C   -1.3559533661   -0.5515632453    0.0814261286
 O   -2.0705378739   -0.0761822271   -1.0689196261
 C   -1.4241966011   -2.0718215363    0.2120461497
 C   -2.8533206705   -2.5806037011    0.3341513236
 O   -2.8019817427   -4.0076099568    0.3876542556
 C   -3.9871583127   -4.6429026247    0.4542333473
 N   -4.0261866611   -5.9029003087    0.5136053615
 H   -0.6073992273    1.5738538090   -0.7712313062
 H    0.6192060942   -0.5241886830   -0.7880010906
 H    0.6043570483   -0.2488448367    0.9638902006
 H   -1.8680317325   -0.0757418397    0.9268254200
 H   -1.7103257903   -0.5272456323   -1.8428262335
 H   -0.9517739767   -2.5435001659   -0.6599846066
 H   -0.8507194801   -2.3933200333    1.0888411661
 H   -3.3238386712   -2.1866161413    1.2456997800
 H   -3.4500585487   -2.2507364156   -0.5245988935
 H   -4.8512697412   -3.9634327912    0.4479630529
 H   -4.9928522421   -6.2182754002    0.5559555161