18

 N   -0.1585176274    1.3126232933    0.1806980776
 C    0.0700586760   -0.0321358718    0.1052401648
 O    1.1534479418   -0.5644581655    0.1567910326
 O   -1.1105932007   -0.6949010659   -0.0014020064
 C   -0.9990221715   -2.1238503946   -0.0416301974
 C   -2.4094061535   -2.6863275693   -0.1286252860
 C   -2.4063709823   -4.2228309456   -0.1848917646
 C   -3.8098283015   -4.7851058636   -0.1410505372
 O   -4.2776611835   -5.5402333489   -0.9522560087
 H    0.6427479473    1.9066905244    0.0557113470
 H   -1.0593636141    1.6691788444   -0.0889445340
 H   -0.3926596726   -2.4185787756   -0.9047587423
 H   -0.4806320444   -2.4749436293    0.8571478731
 H   -2.9846456117   -2.3427974429    0.7396985645
 H   -2.9053649370   -2.2809093438   -1.0176994759
 H   -1.9078684725   -4.5977952932   -1.0833822448
 H   -1.8691145685   -4.6158477863    0.6912115997
 H   -4.4122985439   -4.4356099658    0.7311092181