15

 C   -0.0565838193    1.4468597747    0.1382907636
 C    1.3153333492    0.8059606818    0.0244159793
 N    2.2456071995    0.9248820927    1.0885651236
 C    2.2745355633    0.1596146683    2.0966457853
 N    1.4510320269   -0.9026082855    2.4644309603
 C    0.1953652777   -1.2786370882    1.9915194261
 N   -0.4405174404   -0.9332277342    0.9527494186
 C    0.0691752403   -0.0560617293   -0.0385923063
 H   -0.3363931627    1.7786899591    1.1324817594
 H   -0.4387229378    2.0585485547   -0.6724601604
 H    1.8012295140    0.9601341830   -0.9366494470
 H    3.0556371549    0.3232365320    2.8410849132
 H    1.7036552677   -1.3319938049    3.3425872379
 H   -0.2819860176   -1.9855436029    2.6723280383
 H   -0.1794681857   -0.4100025713   -1.0367975020