18

 C    0.0756365881    1.5562004876    0.0544269817
 C    0.0242540088    0.0269084306    0.0416932325
 N   -1.3446873249   -0.5042194904    0.0549562935
 C   -2.0115065625   -0.6195724047   -1.1632529357
 N   -1.4548320127   -0.2761105600   -2.2550705368
 C   -2.0302979779   -0.8730261143    1.2169581279
 C   -1.2809062518   -0.7412145111    2.5300131239
 O   -3.1711140426   -1.2885658708    1.1788243506
 H    1.1162822269    1.8944937307    0.0321727744
 H   -0.4342444580    1.9574228343   -0.8240240184
 H   -0.3967024129    1.9700195949    0.9511876236
 H    0.4918092889   -0.3458151068   -0.8717714768
 H    0.5686089654   -0.3896939805    0.8899471928
 H   -3.0149410623   -1.0242880048   -1.0363028339
 H   -2.0890289608   -0.4438493433   -3.0337726777
 H   -0.8717027195    0.2620996093    2.6760194774
 H   -1.9857385804   -0.9674574715    3.3291769972
 H   -0.4483732916   -1.4506808893    2.5816593337