17

 C   -0.9291224199   -1.7160590341    0.5196091701
 C    0.5643870251   -1.5619343620   -0.0231285962
 C    0.6947026656   -0.4146295226    1.0170838348
 O    1.4318659992    0.7760042972    0.7811184079
 C    0.6269800103    1.4552475567   -0.1675913473
 C   -0.8665798858    1.3211584973    0.3743530936
 C   -0.6999211955   -0.1821911102    0.3752599191
 C   -0.0254702842   -0.4956806484   -0.9877521112
 O    0.6627799959    0.6894510159   -1.3598668443
 H   -1.0314145207   -2.1118842289    1.5323227795
 H   -1.6413922313   -2.1805351696   -0.1657101282
 H    1.2556655312   -2.3794261985   -0.2383972169
 H    0.7633237758   -0.6916205307    2.0714345881
 H    1.0236371846    2.4525786732   -0.3503938130
 H   -1.5857245679    1.7248676893   -0.3404422665
 H   -0.9777611071    1.7932954118    1.3520078561
 H   -0.6353556552   -0.8490214565   -1.8221847855