15

 O    0.0236019333    1.3643804245   -0.3897208762
 C    0.0284413032    0.1233459274    0.2901817487
 C   -1.3502398646   -0.4984133585    0.2595950398
 N   -1.7431411145   -1.0805349123   -1.0191877684
 C   -1.5483069310   -1.9952966510    0.1418251085
 C   -0.4436945719   -2.9184666638    0.0775440436
 C    0.4663426951   -3.7012484691    0.0515067436
 C   -2.7445169866   -2.5205265026    0.7702072198
 N   -3.7130862403   -2.9239215405    1.2561644809
 H   -0.1741921361    1.1759654062   -1.3143109045
 H    0.7580632997   -0.5778009342   -0.1342636929
 H    0.3187238964    0.3341553457    1.3239280317
 H   -2.1121764207    0.0263752894    0.8318872154
 H   -2.7389688925   -0.9638879363   -1.1938379808
 H    1.2714032204   -4.3939759448    0.0199711608