17

 C   -0.2406311001    1.4550310374    0.0388776913
 N   -0.0262868251    0.0274322211   -0.0757679444
 C   -0.0443328151   -0.7569768004   -1.1801917262
 C    0.2208680487   -2.0206414249   -0.7033138572
 N    0.3839825776   -1.9421741161    0.6473671101
 N    0.2343471089   -0.7033078009    1.0254175163
 N    0.3113240308   -3.1997632681   -1.4643214613
 C    1.2912607160   -4.2038599232   -1.0092434480
 C   -0.1584837651   -4.4390664862   -0.8172017589
 H    0.5056751819    2.0056143166   -0.5405242886
 H   -1.2405273331    1.7251178601   -0.3119664749
 H   -0.1435388942    1.7103536521    1.0940867045
 H   -0.2336920074   -0.3815228441   -2.1707214220
 H    1.8288107909   -4.7046899436   -1.8090838712
 H    1.8735818818   -3.9583899879   -0.1263753596
 H   -0.5441061975   -4.3507279904    0.1938787200
 H   -0.6980982391   -5.1146547013   -1.4744184499