18

 O    0.0302625767    1.3570208819    0.0048038259
 C    0.0492505925   -0.0318674164   -0.0197680765
 C   -1.2641852762   -0.8066290310   -0.2063685919
 N   -0.4323487079   -1.9393540737   -0.7339456847
 C    0.5899087639   -2.1974277996    0.3476719358
 C    1.7803030574   -1.7019797573   -0.5240442914
 C    2.2870067321   -0.8321473783    0.6418344638
 C    0.7997090392   -0.8072447380    1.0799966950
 C    0.6192316438   -0.9293149154   -1.1979485232
 H    0.8842998177    1.6764606566    0.3151415661
 H   -1.8762947900   -1.0307646125    0.6736908953
 H   -1.8892056157   -0.4035176595   -1.0077808851
 H    0.5400627547   -3.1280980495    0.9107167881
 H    2.4203646340   -2.3443644653   -1.1255088739
 H    2.9124978348   -1.4041235766    1.3326374135
 H    2.7827130447    0.1206118691    0.4165338349
 H    0.4977851604   -0.6197230459    2.1102643134
 H    0.5933631980   -0.5789709785   -2.2290477251