15

 O   -0.1092386469    1.4354531804    0.0402386892
 C   -0.0148493829    0.0628611859    0.0317000183
 C   -0.2517308050   -0.7800622255   -1.1809429542
 C   -1.1546553630   -0.9571240693    0.0234406297
 C   -0.4412140771   -1.7477768950    1.1348150741
 O    0.5027861356   -2.7938155927    0.7063896868
 C    1.5741709979   -1.9177320026    0.7738825914
 O    2.7168393235   -2.1636508434    0.5612388402
 C    0.6989565167   -0.7267328454    1.1792748959
 H    0.5779781786    1.7952057776   -0.5323408928
 H   -0.7304318416   -0.2399525406   -1.9916208628
 H    0.4276854446   -1.5658890802   -1.4962236164
 H   -2.2247301932   -0.8100943059   -0.0408996418
 H   -1.0163924165   -2.0627184037    2.0021397719
 H    0.9587693992   -0.1447192295    2.0598958605