21

 C   -0.0658500899    1.5156728934    0.0389716149
 C    0.0265410851   -0.0071057666    0.0173605419
 C   -1.2995850155   -0.6463917320   -0.3809329178
 C   -1.3876109248   -2.1067748225    0.0534289876
 O   -1.1019980370   -2.2217285564    1.4384029899
 C    0.2713365391   -2.0028424490    1.6901691118
 C    0.7743795771   -0.6103714040    1.2478452909
 C    1.9747144387   -0.6568897874    0.2823566946
 O    1.1204388668   -0.4296504113   -0.8559544791
 H    0.9028845644    1.9657623873    0.2752478896
 H   -0.3832097027    1.8868620079   -0.9410294720
 H   -0.7924151181    1.8514588459    0.7863678215
 H   -2.1180042763   -0.0929479381    0.0930513169
 H   -1.4199096897   -0.5518432791   -1.4668659878
 H   -2.3976812978   -2.4993889520   -0.0925784575
 H   -0.6893753581   -2.7271201627   -0.5312220753
 H    0.4068814710   -2.1354410749    2.7671128736
 H    0.8610612744   -2.7843219872    1.1820208647
 H    0.8639533400    0.0663234185    2.1000402729
 H    2.7043755543    0.1529141275    0.4169052569
 H    2.5118390589   -1.6098030971    0.2098472717