19

 C    0.0491467844    1.3672840122   -0.2562111248
 C    0.0748421930   -0.1179940735    0.1337430786
 C    0.7108140594   -0.3307911411    1.5141758416
 C   -1.3331517673   -0.6874394050    0.0977091805
 C   -2.0137576960   -1.2209396152   -1.1078141843
 O   -1.0521472072   -1.8573322537   -1.9947289346
 C   -0.7979259488   -2.8290838073   -1.0272431701
 O   -0.1259630255   -3.8000076970   -1.1460543707
 C   -1.6847040659   -2.1891449213    0.0073226329
 H    1.0607318471    1.7847873930   -0.2580333340
 H   -0.3766645141    1.5082211251   -1.2543841336
 H   -0.5496122582    1.9522260223    0.4524125607
 H    0.6756937450   -0.6508214922   -0.6110165266
 H    0.1408313997    0.1864517552    2.2954033215
 H    0.7506533829   -1.3929862268    1.7737639750
 H    1.7324503121    0.0609094955    1.5351140449
 H   -2.0266119201   -0.1866467119    0.7751710905
 H   -2.9601854768   -0.9331292280   -1.5435715832
 H   -2.3031443537   -2.7020191605    0.7291200156