19

 C   -0.0703693146    1.5687785137   -0.0228441777
 C    0.0842705903    0.0503693780    0.0093754924
 C    0.8549924501   -0.5571854524   -1.1805150603
 N    1.2799518637   -1.9091050708   -0.7448680040
 C    2.5677903723   -1.9232868603   -0.0407865116
 C    1.3097063140   -1.8782078215    0.7405330476
 C    0.8337486430   -0.5200865472    1.2443905153
 O    1.9561961495    0.2669176630    1.6346636348
 H    0.9065667911    2.0629414218   -0.0252772212
 H   -0.6048405284    1.8909428605   -0.9219512923
 H   -0.6393289230    1.9343289393    0.8404344000
 H   -0.9120857527   -0.4109142533    0.0203692667
 H    0.2260898372   -0.6489515931   -2.0709777458
 H    1.7183237608    0.0660394004   -1.4482364432
 H    3.1221639756   -2.8551343062   -0.1152669016
 H    3.1750662138   -1.0229152539   -0.0539927217
 H    0.9430398722   -2.7672013200    1.2449818061
 H    0.1518520789   -0.6425212432    2.0971983091
 H    1.6253051062    1.1051037152    1.9729760974