21

 C   -0.0457315620    1.6222527894    0.1214405829
 C   -0.0895999368    0.0849445830    0.0528699307
 C    0.6301579196   -0.5954494127    1.2418480378
 N    2.0441411918   -0.2502882927    1.2154921336
 C    2.5640186043    0.6589813471    2.2370911103
 C    2.9323330655   -0.7833561995    2.2547729924
 C    2.4490335085   -1.7086803440    3.3496230883
 C   -1.4735519965   -0.3940691126   -0.0194818027
 N   -2.5647664414   -0.7735445553   -0.0589321104
 H    0.9937420833    1.9556010838    0.1166033452
 H   -0.5588029747    2.0648947908   -0.7356338700
 H   -0.5295012885    1.9859004731    1.0330620780
 H    0.4216041119   -0.2397885302   -0.8610949247
 H    0.1203835181   -0.3098185748    2.1755547736
 H    0.5291117101   -1.6805604220    1.1344980218
 H    3.2643788289    1.4159334757    1.8936523591
 H    1.8719877818    0.9988160468    3.0074651166
 H    3.9103941670   -1.0517212150    1.8570031360
 H    1.5049625758   -1.3784003036    3.7900765450
 H    2.3108871832   -2.7286980970    2.9741127905
 H    3.1926550301   -1.7526825104    4.1520419158