14

 N    0.0678959207   -3.7440469425   -0.0441821944
 C    0.0506659640   -2.5814911431   -0.0305285900
 C    0.0309089075   -1.2193288281   -0.0147007726
 C    0.0202526209   -0.0076271291   -0.0042945887
 C   -0.0102878709    1.4002673402    0.0253707196
 C    0.2797023120    2.2925972999   -1.1838535482
 C    1.1174116103    2.4536312234    0.0309063983
 O    0.4710829686    3.2443000725    1.0131714475
 C   -0.6020776117    2.2757035560    1.1396810029
 H    0.7433705742    1.7686890818   -2.0127283860
 H   -0.4332299081    3.0672358535   -1.4518519506
 H    2.1935952692    2.3385502781    0.0842280531
 H   -1.5892869093    2.7133790313    0.9585724074
 H   -0.5695735674    1.7933013761    2.1205752318