20

 C   -0.2342293721    1.2951204435   -0.6218393159
 C    0.3194871402   -0.1102537142   -0.4562000360
 C    1.6448239286   -0.5529915853   -1.1347196567
 C    2.1045395345   -0.9890882968    0.2576956964
 C    2.0916574439    0.0980089836    1.2532216185
 C    2.4878809243    1.5328239469    1.0727432005
 C    3.8891919741    1.9015730810    0.8187223009
 O    2.9001413622    2.0272987158   -0.2035247362
 N    0.7981330048   -0.5403542438    0.9200150012
 H    0.5309864810    2.0683408842   -0.5375575008
 H   -0.6933238055    1.3952164853   -1.6118143968
 H   -1.0124396606    1.4837190548    0.1259639133
 H   -0.4729101266   -0.8239715528   -0.7010024905
 H    1.5116651500   -1.3900887408   -1.8223229028
 H    2.2460450210    0.2203866485   -1.6114487246
 H    2.5430265668   -1.9565833926    0.4853611512
 H    2.3683857587   -0.2294302200    2.2568685872
 H    1.8820913705    2.2422874996    1.6391303362
 H    4.2827398420    2.8393695027    1.2072850512
 H    4.6242034622    1.1149728503    0.6559948438