22

 C   -0.2717096103    1.4132801399    0.2677539188
 C    0.0099833132   -0.0687825750    0.0562534235
 C    1.0653260373   -0.3735403050   -1.0581172002
 C    2.0010025225   -0.9739796144   -0.0021196571
 C    0.9617650679   -0.6827716399    1.0985250072
 C    1.3283655401   -2.0915253935    0.7397285362
 N    0.3914241928   -2.9683597486    0.0905286254
 C    0.8408247552   -4.3350322581   -0.1519252164
 C   -0.1654087246   -4.0423114347    0.9063568915
 H    0.6585409490    1.9782551512    0.3995987026
 H   -0.8038797866    1.8380211194   -0.5905859461
 H   -0.8888102839    1.5771430558    1.1587085050
 H   -0.9286508573   -0.6189799416   -0.0589733612
 H    0.7528256602   -1.0488384643   -1.8584612851
 H    1.4646759276    0.5446632599   -1.4971484481
 H    3.0788064274   -0.8578903574    0.0203298777
 H    1.1081479247   -0.2973383931    2.1023980363
 H    1.9805757655   -2.5676911429    1.4803207131
 H    0.5375831265   -4.7738950700   -1.0983469047
 H    1.8436892915   -4.6057583197    0.1750544745
 H    0.1640233023   -4.1170889735    1.9415738962
 H   -1.2171116209   -4.2631647242    0.7470301108