18

 O    0.2466805553    0.5951265292   -1.0784682854
 C    0.0597450657    1.1864671616    0.0034118656
 O    0.7108250619    1.2909429050    1.0513657869
 C   -1.2940240227    1.9623692591    0.0325953256
 C   -2.3587616430    1.7626012891    1.1619936030
 C   -2.8590053948    3.1352277335    0.6798384225
 C   -1.3890912108    3.4833930040    0.3883715040
 N   -3.3434556083    2.7721021573   -0.7350987162
 H   -4.2254901657    2.2610274465   -0.7157966743
 H   -3.4714249023    3.5992055341   -1.3174033054
 C   -2.1441874643    1.8782358396   -1.2201693611
 H   -3.0433344121    0.9094923884    1.1128545280
 H   -1.8789954237    1.8172418337    2.1379883158
 H   -3.5953346579    3.7727504722    1.1749769692
 H   -0.8249221157    3.6877810707    1.2970318921
 H   -1.1712777660    4.2316692058   -0.3807117095
 H   -1.7022765428    2.3334059184   -2.1040581527
 H   -2.5192287928    0.8836584218   -1.4523008680