17

 C    0.0264870873    1.3371777898    0.3338577126
 O   -0.0350902029    0.0318605322   -0.2298112830
 C   -1.2639269259   -0.5570575708   -0.1404123638
 C   -1.9006744167   -1.0541889360    1.1442746119
 C   -1.6420412697   -2.0031142906    0.0044529561
 O   -2.6824825299   -1.9146813425   -0.9747889957
 C   -2.3443621677   -0.5455117659   -1.2620570117
 C   -3.4512671261    0.4586697009   -1.0855291466
 O   -4.4943148234    0.2529542220   -0.5215330733
 H    1.0612595970    1.6713906241    0.2404265974
 H   -0.6268425073    2.0382915687   -0.2037935980
 H   -0.2622848172    1.3274249100    1.3923324982
 H   -1.1917912677   -1.1368362750    1.9628493908
 H   -2.9214229110   -0.8019654143    1.4149600470
 H   -1.0609924485   -2.9152206156    0.0525629383
 H   -1.8832247167   -0.4478415482   -2.2537719071
 H   -3.1924964936    1.4667128913   -1.4909195331