16

 O   -0.2598387621    0.3574632414   -0.6431917325
 C   -0.0241332101    1.3914727867   -0.0554218952
 N    1.2109418139    1.7946052620    0.3493969754
 C    2.4138472288    1.0060388056    0.0936038184
 C    3.3822213281    1.7648292515   -0.6990568476
 C    4.1698106257    2.3942864046   -1.3520342194
 C    2.9763579037    0.5015423444    1.4189736360
 C    4.4071529686    0.4200196861    1.7223965055
 O    3.5977310648    1.4775864724    2.2510714076
 H   -0.8057092208    2.1249563385    0.2204208816
 H    1.3186701016    2.6704804813    0.8370171765
 H    2.0643304957    0.1403195124   -0.4818091494
 H    4.8619831174    2.9479911813   -1.9375682578
 H    2.2880010644   -0.1645744420    1.9400064049
 H    4.7531061597   -0.3102589854    2.4518202781
 H    5.1307970807    0.7255250492    0.9710194382