16

 C    0.1860658454    1.3053049489   -0.3736682361
 N    0.0956422133   -0.0580510114    0.1122212709
 C   -1.1411755257   -0.8160628885   -0.1047662700
 C   -0.6808807308   -2.2592876750    0.2203498946
 N    0.7900384014   -2.2288406742    0.1765395408
 C    1.1168723006   -0.9833719592    0.1192333118
 C    2.5722182714   -0.6588288967    0.1375861988
 O    3.0556054269    0.4474632726    0.1512362694
 H    1.1803313319    1.6985767418   -0.1720746430
 H   -0.0125282333    1.3670805353   -1.4557648334
 H   -0.5556043339    1.9261348804    0.1397944359
 H   -1.9475138596   -0.4557248432    0.5414472916
 H   -1.4730987423   -0.7095750093   -1.1502146655
 H   -0.9914813174   -2.5647279269    1.2280675404
 H   -1.0723195604   -3.0057702928   -0.4760408069
 H    3.1853030725   -1.5801640816    0.1460267806