20

 C    0.5028697983    1.3199972722    0.0814096036
 C   -0.5114257636    0.2914915762   -0.3782386502
 O   -1.6780628018    0.3501572589   -0.0510940878
 C   -0.0244847174   -0.8063713976   -1.3019057080
 C    1.3996128735   -1.4344402084   -1.1998622891
 C    0.7721308201   -2.8187269360   -1.5406612328
 C   -0.5969306259   -2.2303595893   -1.1843225758
 C   -1.5560326441   -2.7335523493   -0.1767578063
 N   -1.8847722189   -2.7363733874   -1.6228586181
 H    1.0806153235    1.7016442992   -0.7676529294
 H   -0.0045072004    2.1393129372    0.5921718663
 H    1.2210453962    0.8555628326    0.7668386987
 H   -0.1826118287   -0.4348487479   -2.3257481853
 H    2.1638938893   -1.0483266995   -1.8764264165
 H    1.7862196640   -1.4070165112   -0.1775873780
 H    0.8444996761   -3.0537627053   -2.6067765376
 H    1.1143154826   -3.6795975782   -0.9623466663
 H   -1.4045030081   -3.7209029278    0.2526071182
 H   -2.0585200951   -2.0152703142    0.4608610246
 H   -2.5054683696   -1.9523918042   -1.8158929300