18

 C    0.0880258949    1.1924972995    0.3445582603
 C    0.0105325323   -0.2535486438    0.2104798499
 C   -0.0775518554   -1.4529221638    0.1125193160
 C   -0.1270029604   -2.8726443729   -0.0339373047
 N   -1.1643910020   -3.4510059792    0.4723677746
 O   -1.1355638087   -4.8376735107    0.2864100729
 C    0.9825778519   -3.5670056816   -0.7363658890
 C    1.6838237207   -2.8999195710   -1.9061007286
 C    2.4074097562   -3.0592927096   -0.6055552925
 H    1.0014009274    1.5860288659   -0.1141076452
 H   -0.7655316042    1.6803561937   -0.1391711579
 H    0.0877736072    1.4920425830    1.3985177045
 H   -1.9560935036   -5.1108235072    0.7094599328
 H    0.8531963383   -4.6379986019   -0.7956242993
 H    1.9563734697   -3.5349302329   -2.7414175403
 H    1.3530884541   -1.9044183806   -2.1785845706
 H    2.5626507368   -2.1708304610   -0.0045634843
 H    3.1889325247   -3.8064067158   -0.5260634483