15

 C   -0.1690751788    1.4985502807    0.0377566261
 C    0.1436674822    0.0278317900   -0.0247131197
 O    1.2472693169   -0.4598924225   -0.0266202207
 O   -1.0095051064   -0.6888898782   -0.0797392431
 C   -1.0234561177   -2.0564588395   -0.1435326912
 C   -2.1156467494   -2.8782903484   -0.2023663392
 N   -1.6977641775   -4.1882896051   -0.2553244712
 C   -0.3860245513   -4.1469520571   -0.2286092312
 N    0.0850052804   -2.8667325366   -0.1602059352
 H    0.7612751293    2.0627274088    0.0817009024
 H   -0.7472870415    1.7960015253   -0.8415324431
 H   -0.7808177380    1.7141483244    0.9182311236
 H   -3.1570426455   -2.5998012209   -0.2091044718
 H    0.2774515305   -4.9978268306   -0.2555751722
 H    1.0294586868   -2.5170713204   -0.1261969434