16

 C   -0.0144743321    1.6743560390   -0.0496029227
 C    0.0271145584    0.1452980362   -0.0858690623
 N    0.8485067691   -0.4071509868   -1.1427436770
 C    1.8168830150   -1.2940914512   -0.7027703856
 O    2.6040039765   -1.9015298305   -1.3922309257
 C    1.6582687954   -1.3049651550    0.7845141227
 C    0.6689375881   -0.4828403355    1.1369925720
 C   -1.3914306224   -0.4560188129   -0.2059878511
 O   -2.4097736844    0.1645250539   -0.0696081317
 H    0.9938048448    2.0772666995    0.0674139870
 H   -0.4517938716    2.0668686261   -0.9719669653
 H   -0.6402503055    2.0128339974    0.7790828595
 H    0.7178493686   -0.2064417310   -2.1207675780
 H    2.2994479402   -1.8940397323    1.4245831494
 H    0.3088415265   -0.2607615582    2.1333291992
 H   -1.3754337267   -1.5420040686   -0.4438095904