23

 C   -0.2144350784    1.5881604642    0.8253940455
 C   -0.0499391589    0.1074750505    0.5104626315
 C    0.9617988651   -0.3950782927   -0.5697537888
 C    2.3009220704    0.1840310456   -0.0720043126
 C    2.1652252889   -0.1483564390    1.4534662090
 C    0.7855594841   -0.8399397599    1.4327751907
 C    0.9270637757   -1.7717719221    0.1913586634
 C   -0.2335614529   -2.7115427117   -0.1236530827
 O    2.1264820037   -2.5300356988    0.2143610342
 H    0.7319908372    2.0993973723    1.0144559291
 H   -0.7062264192    2.1042101284   -0.0069616667
 H   -0.8448804048    1.7243023547    1.7114850094
 H   -1.0410020045   -0.3120108057    0.3307590018
 H    0.7428460469   -0.3242734463   -1.6377871096
 H    3.1544493817   -0.3238769428   -0.5235371848
 H    2.3923697106    1.2543268555   -0.2743309757
 H    2.9513848589   -0.8197633124    1.7996533449
 H    2.1695120077    0.7411299110    2.0886948055
 H    0.3941103434   -1.2155890090    2.3801986654
 H   -1.2114716153   -2.2280058483   -0.1258375241
 H   -0.0935598693   -3.1582377795   -1.1171079589
 H   -0.2545368018   -3.5258324665    0.6074860312
 H    2.1444220909   -3.0847384375   -0.5721782475