22

 C   -0.1073700221    1.5173031040    0.0350541217
 C    0.0135632183    0.0195528344    0.0083056815
 C   -0.0712870427   -0.6892376072   -1.1205505861
 C   -0.0075087341   -2.1778218106   -1.1449128371
 C   -1.0946671588   -2.8619193607   -1.9482134998
 N    1.3630430329   -2.7579911084   -1.1852773225
 C    0.5587877839   -2.8390751750    0.0575131388
 C    1.0322252610   -1.9757034408    1.2202020014
 C    0.2237894547   -0.6705369852    1.3427203020
 H    0.8095756761    1.9813065997    0.4211383926
 H   -0.3058258268    1.9270591257   -0.9590855612
 H   -0.9186392759    1.8344021954    0.7037805961
 H   -0.2202987710   -0.1845081536   -2.0737986966
 H   -1.0273889209   -2.5893608006   -3.0084061688
 H   -1.0149155753   -3.9519681465   -1.8734483780
 H   -2.0899560074   -2.5701528857   -1.5959011608
 H    1.3278343160   -3.6544150894   -1.6690617932
 H    0.1525524857   -3.8147960976    0.3157203937
 H    0.9771582065   -2.5372019043    2.1589930829
 H    2.0850455916   -1.7289488795    1.0516797040
 H    0.7317130143    0.0118031811    2.0346506314
 H   -0.7569238959   -0.8731595350    1.7986438180