19

 C   -0.0209576427    1.5907995217    0.0875291137
 C    0.0018956029    0.0803960371   -0.0497929449
 C    1.2476523436   -0.6113847511   -0.6336326740
 O    2.0152273039   -0.2334000706    0.6090550982
 C    0.7094395554   -0.7773653381    1.0491322978
 C    0.1060451726   -1.3626364254    2.2946419012
 O   -0.7376795141   -2.3916108803    1.7341099543
 C   -0.4191691372   -2.6971242563    0.3381435362
 C    0.8787379803   -1.9497951446    0.0859545804
 H    0.9418334150    1.9609916458    0.4441113802
 H   -0.2421795850    2.0628381843   -0.8758718468
 H   -0.8005027856    1.9043003681    0.7902149434
 H   -0.9547764387   -0.3130887603   -0.4016828086
 H    1.7740891625   -0.4513847667   -1.5756090220
 H    0.8708721635   -1.7914778990    2.9563689913
 H   -0.5308804670   -0.6828957069    2.8687495439
 H   -0.3055972999   -3.7818035210    0.2550410212
 H   -1.2633407286   -2.3904983374   -0.2882620560
 H    1.7683945391   -2.5409721194    0.3091249704