20

 C    0.2874267314    1.2399354680   -0.2295735752
 O    0.2980807049   -0.1622664164   -0.0347216538
 C    0.5635468928   -0.5408641170    1.2926879921
 C    0.4815319224   -2.0781877841    1.3689223231
 C    1.9021321757   -2.5230467445    1.7864949539
 C    2.3813951179   -3.8244100424    1.1473647652
 C    2.7277564022   -1.2841069759    1.4122027247
 O    1.8717253933   -0.1816467419    1.6995936702
 H    1.2572042331    1.6883459514    0.0152811316
 H    0.0609810594    1.4154758842   -1.2836488976
 H   -0.4868202684    1.7231032011    0.3865354641
 H   -0.1198954690   -0.0090939046    1.9705041162
 H   -0.2859874733   -2.4097026215    2.0715056453
 H    0.2204296836   -2.4575149361    0.3773872214
 H    1.9329958841   -2.6247736349    2.8778509271
 H    2.3716006248   -3.7505964854    0.0540180191
 H    3.4026363349   -4.0698517602    1.4584164947
 H    1.7396399237   -4.6648187508    1.4302782976
 H    3.6405706363   -1.1614637701    2.0008230811
 H    2.9974345701   -1.3022038790    0.3447865293