19

 C    0.1830493638    1.5188506529    0.1616425489
 C   -0.1990623371    0.0562707637   -0.0898515915
 C    0.6462858994   -0.5871224011   -1.1732383816
 O    2.0847148670   -0.6693992805   -0.8707916977
 C    2.1302874825   -2.0316177508   -1.3219798105
 C    1.3468822645   -2.8649050171   -0.3614339712
 O    1.3126825219   -2.5898334712    1.0041215383
 C    0.6094885813   -2.0912277011   -1.4445472223
 O   -0.1744656272   -2.6767236084   -2.4174690712
 H    1.2303563092    1.5983944062    0.4678262456
 H    0.0539102412    2.1237128449   -0.7426331382
 H   -0.4356506518    1.9577664562    0.9497117922
 H   -0.1219271251   -0.5299619671    0.8302195279
 H   -1.2461763170   -0.0075794299   -0.4154759514
 H    0.5369105352   -0.0419984688   -2.1212171706
 H    2.9580792581   -2.3346278968   -1.9525472163
 H    1.3688395408   -3.9326384856   -0.5692396392
 H    1.7953695004   -1.7592897305    1.1145949758
 H   -0.9003556470   -3.1402266853   -1.9856741370