21

 C   -0.3541770265    1.4695484798   -0.1187511685
 C   -0.0069533857   -0.0120821092   -0.0510590799
 C    1.3049602417   -0.4546997696   -0.7370941212
 O    1.8690790826   -0.9071350577    0.5102591560
 C    0.6604696333   -0.5810496393    1.2373059580
 C    0.9412818005    0.3212186742    2.4195702639
 C   -0.2235342009    0.4905117645    3.4221536909
 O    0.4628426013   -0.2812655849    4.4255426517
 C    1.6473859559   -0.3773296679    3.6046080864
 H    0.5002052944    2.1017262433    0.1425486423
 H   -0.6645708494    1.7408276109   -1.1335257775
 H   -1.1799249883    1.7211458248    0.5553527667
 H   -0.8710347987   -0.6058122230   -0.3598761120
 H    1.2117491693   -1.2704508891   -1.4648095444
 H    1.8988601667    0.3527744406   -1.1853319844
 H    0.1725915710   -1.4987442911    1.6001566832
 H    1.4157655090    1.2486841213    2.0955352969
 H   -0.4094437315    1.5219680009    3.7486063361
 H   -1.1802540940    0.0341647475    3.1347814747
 H    1.9523407301   -1.4166200954    3.4354264449
 H    2.4904653195    0.1765987996    4.0357166662