17

 N   -0.1155134808   -1.2369091451   -0.1478363457
 C   -0.0348604545   -0.0885194800   -0.0393339712
 C    0.0287091953    1.3620695001    0.0565041040
 C   -0.1149223667    2.1156070643    1.4184116589
 C    0.6773586553    1.3984967545    2.5081633937
 O    1.8248471670    0.7601707665    1.9628219152
 C    2.4316035148    1.4301707144    0.8653094648
 C    1.3823434193    2.1426410336    0.0162189388
 N    0.7820951907    3.2043393183    0.8964915080
 H   -0.6625302228    1.7922849515   -0.6733107779
 H   -1.1075058572    2.4212845557    1.7541335383
 H    0.9554100531    2.1387983421    3.2722329124
 H    0.0855501153    0.6052548968    2.9756245891
 H    3.1614959760    2.1786306287    1.2062288089
 H    2.9518973687    0.6570089266    0.2912840048
 H    1.7762470345    2.4733538029   -0.9465057754
 H    0.2244428918    3.8270230091    0.3130338433