13

 O   -0.0826323353    0.0549626087    0.0075116181
 C   -0.0686790551    1.2435365582    0.0757994032
 C   -1.1199428339    2.3610264213   -0.0757476006
 N   -0.9225997284    3.1148225775    1.2148814100
 C    0.3603453134    3.5582030760    0.6276623070
 C    0.0267998283    3.2036056067   -0.7728604603
 C    1.0224108977    2.2919550270    0.0439552653
 C    2.4257957706    2.1562689709   -0.1215417938
 N    3.5689056288    2.0385756966   -0.2578164524
 H   -2.1271413471    2.1649068414   -0.4288389722
 H   -1.5482170273    3.9202135963    1.2015030423
 H    0.9795782730    4.3446644352    1.0397331421
 H    0.2046997752    3.6110832941   -1.7580871388