18

 C    0.0414397098    1.5632968725    0.0357020942
 C    0.0070775931    0.0304444843   -0.0368440210
 C    0.4906380368   -0.4369827246   -1.3652783376
 N    0.9127231316   -0.8375078731   -2.3649223800
 N    0.7427188267   -0.5618048546    1.0626907162
 C    2.2202934452   -0.4546612188    1.1313067686
 C    2.2515233916   -1.8731389716    1.7510542456
 C    0.8131997818   -2.0339432521    1.2024921038
 H    1.0659428547    1.9325450330   -0.0621016889
 H   -0.5570730612    2.0040211197   -0.7651772519
 H   -0.3550862269    1.8812676579    1.0024366332
 H   -1.0342249896   -0.3045435551    0.0523323890
 H    2.6997423763   -0.4268539405    0.1414310917
 H    2.5894881300    0.3807354499    1.7336202774
 H    3.0051692262   -2.5612558873    1.3694740061
 H    2.2882904852   -1.8561293649    2.8414017088
 H    0.0498257688   -2.4625860387    1.8596696358
 H    0.7977196000   -2.5628540359    0.2379616790