21

 C    0.1657281190    1.5532860621   -0.2623553166
 O    0.2796070689    0.1507803526   -0.0967843043
 C    0.4906286767   -0.5410462888   -1.3065643255
 O    1.7390017510   -0.2389553037   -1.8874318256
 C    2.8239976251   -0.9333793940   -1.2784231655
 C    2.7127661397   -2.4413019421   -1.5144597593
 C    3.7733548905   -3.2114942663   -0.7160347168
 C    1.3124781627   -2.8759784572   -1.1583670560
 C    0.3122192300   -2.0096346520   -1.0286085595
 H    1.0727661331    1.9827784233   -0.7029851324
 H   -0.6912797741    1.8112885956   -0.9034557508
 H    0.0065039379    1.9802269199    0.7302724891
 H   -0.2427605921   -0.1974638447   -2.0545928601
 H    3.7344056776   -0.5234064803   -1.7243887536
 H    2.8434722450   -0.7288966031   -0.1983203232
 H    2.8794020463   -2.6379994312   -2.5844060894
 H    3.6496839959   -3.0503817885    0.3603383388
 H    3.7001324530   -4.2874360657   -0.9037795869
 H    4.7834209086   -2.8916238746   -0.9928138353
 H    1.1441719252   -3.9379734826   -0.9910984427
 H   -0.6838048998   -2.3198467287   -0.7296769041