22

 C   -0.0965527218    1.5870751013    0.0472330138
 C   -0.0527776314    0.0530421367   -0.0170477991
 C   -1.4721871046   -0.5310362014   -0.0330644271
 C    0.7557825556   -0.4644464066   -1.2218049503
 C    2.2499320328   -0.1909815382   -1.1740734442
 C    3.1067474056   -0.6347688132   -2.3822400691
 C    3.5613615435    0.8365033270   -2.4198625545
 O    2.6123723305    1.1988598526   -1.3973988935
 H    0.9048743933    2.0207007601    0.0694251598
 H   -0.6109903944    1.9946713367   -0.8315019798
 H   -0.6437436192    1.9207566949    0.9356236841
 H    0.4479784198   -0.3109345567    0.8926957470
 H   -2.0132981865   -0.2182071175   -0.9343106513
 H   -1.4582293656   -1.6263140470   -0.0172407494
 H   -2.0490584108   -0.1891997620    0.8326484949
 H    0.6365429258   -1.5556431423   -1.2891761882
 H    0.3500433146   -0.0461345881   -2.1533393527
 H    2.6593258338   -0.5342247719   -0.2112903771
 H    3.8765029148   -1.3831591314   -2.1882742903
 H    2.5135286141   -0.9426254430   -3.2464829199
 H    4.5964578806    1.0065217715   -2.0947091002
 H    3.3900466095    1.3859161884   -3.3526509631