14

 O    0.0126040145    0.1763036970   -0.6923003725
 C    0.0100396504    1.2567167278   -0.1909316077
 C   -1.1020436280    2.1935779436    0.3326710922
 C   -0.0099177288    3.2502311752    0.6917808852
 C    0.6555614013    3.0189618595    2.0689334981
 O    1.5648929960    2.0376829512    1.5226055679
 C    1.1203193882    2.2727618607    0.1751363255
 C   -0.1983483251    4.6001912408    0.2270276803
 N   -0.3491551545    5.6857938812   -0.1421166980
 H   -1.7659855138    2.5156237450   -0.4747252814
 H   -1.7087302273    1.8236833715    1.1628122275
 H    1.1967798448    3.8896300635    2.4528990046
 H    0.0074707596    2.6068588079    2.8492824405
 H    1.9229907228    2.5150908851   -0.5244554422