19

 C    0.0457332710    1.4957978183    0.1363038185
 C    0.0802824520   -0.0333407536    0.0932676101
 O    0.7526670147   -0.5727708962    1.2292910674
 C   -1.3279009484   -0.6197252697   -0.0062478255
 C   -2.1220384490   -0.6353068997   -1.3692101824
 C   -1.2113473037   -1.8368695802   -1.8039902618
 C   -1.5284487074   -2.1539533155   -0.3011128734
 C   -2.9564505328   -1.7290107275   -0.6781144643
 O   -4.0902489674   -2.0597745670   -0.5224507703
 H    1.0571620193    1.8904403049    0.2636918909
 H   -0.3781382813    1.9098708771   -0.7840363953
 H   -0.5683830869    1.8483981331    0.9744396488
 H    0.6977495214   -0.3454124980   -0.7526915563
 H    0.2865740129   -0.2727980849    2.0181063327
 H   -1.9154989351   -0.2508222089    0.8446824120
 H   -2.4484169744    0.2132219300   -1.9667923816
 H   -1.6188049948   -2.5206484521   -2.5507018506
 H   -0.1745348598   -1.5914944951   -2.0254208304
 H   -1.1816191604   -2.9931309551    0.2961939715