17

 C   -0.2812741386    1.5478181889    0.0631950797
 C   -0.0072553125    0.0480949580    0.0262086988
 C    0.7195610375   -0.5087121148   -1.2668353022
 N    1.8088188708   -0.9256069774   -0.3734098447
 C    2.9940175084   -1.5516795634   -0.1090661307
 C    3.1488743472   -1.4693745824    1.2676804542
 C    2.0238136089   -0.7909419902    1.8393373181
 C    1.2194437189   -0.4757056944    0.7668108130
 H    0.6202764388    2.1181842744   -0.1817595207
 H   -1.0687590831    1.8224794770   -0.6471138290
 H   -0.6097745343    1.8543361447    1.0612780617
 H   -0.9258569689   -0.5072356937    0.2454167304
 H    0.2162847526   -1.3376558605   -1.7735179316
 H    1.0115509032    0.2500393079   -1.9998973559
 H    3.6229650222   -1.9802421253   -0.8718569690
 H    3.9960881718   -1.8543035425    1.8164384087
 H    1.8621976172   -0.5835241365    2.8852301989