18

 C   -0.2954185129    1.7408244707    0.3349081926
 C   -0.0800054839    0.2490235186    0.1279014343
 O    0.2002348910   -0.3322183239    1.3866099917
 C   -1.3027795369   -0.4376765459   -0.4966388472
 N   -1.0704242557   -1.8732445637   -0.5104894312
 C   -1.9303411598   -2.6270642469   -1.0732135855
 N   -3.0831352323   -2.2601108409   -1.7295383029
 C   -1.6788189914   -4.0577188300   -1.0852205734
 N   -1.5108734158   -5.2007912996   -1.1040565882
 H    0.5914843726    2.1872354336    0.7913677744
 H   -0.4863204329    2.2460431878   -0.6172426755
 H   -1.1447055203    1.9153315697    1.0036281087
 H    0.7690127322    0.0956892124   -0.5601584558
 H    0.1879118919   -1.2878650750    1.2406051629
 H   -2.1900551812   -0.1991866388    0.1144000790
 H   -1.4825636736   -0.0475740226   -1.5115728674
 H   -3.4560463233   -1.3426682962   -1.5465752852
 H   -3.7611128578   -2.9747666792   -1.9389816614