16

 N   -0.0812853297    1.3489546140    0.0130312647
 C    0.0250952603    0.0719315104    0.0036596670
 C   -1.1778734160   -0.7224270489    0.0087596614
 C   -2.1806365277   -1.3846651723    0.0130074714
 N    1.2072381030   -0.6522562861   -0.0112868222
 C    2.5395431300   -0.0409639203   -0.0188297112
 C    3.4563701046   -1.3001820267   -0.0351392174
 N    2.5668007014   -2.4746460082   -0.0354403294
 C    1.3732085763   -2.0363490695   -0.0221228259
 H    0.8339266515    1.7996116495    0.0081404398
 H   -3.0792261287   -1.9519796883    0.0169858584
 H    2.6667084036    0.5937401347   -0.9028642336
 H    2.6821527642    0.5820188902    0.8711603440
 H    4.0983515483   -1.3277458466   -0.9210308978
 H    4.1133574185   -1.3396009904    0.8392318792
 H    0.4893068305   -2.6620306413   -0.0187035583