18

 C    0.3663164142    0.9461360993   -0.7530235062
 C    0.0077039404    0.0394979814    0.4044922914
 O    0.6723210312   -0.0236640745    1.4136875744
 C   -1.2669052648   -0.7843654622    0.2944031597
 C   -1.7822007791   -1.3025877496   -1.0791233849
 N   -0.5452523186   -2.1855058984   -1.1133065216
 C   -1.1043018420   -2.3274286527    0.2921417747
 C   -2.5359908351   -2.4275990382   -0.3309305254
 O   -3.6786387619   -2.0525689820    0.3862545288
 H    1.2308424587    1.5589197713   -0.4941104788
 H    0.5930337205    0.3274151378   -1.6274831315
 H   -0.4820043981    1.5876805244   -1.0188873784
 H   -2.0360280922   -0.4049656426    0.9697423369
 H   -2.1092937568   -0.7317172560   -1.9489766461
 H   -0.7425385985   -3.0358407447   -1.6535568637
 H   -0.6198443163   -2.9478584357    1.0461347243
 H   -2.6970112212   -3.3361993860   -0.9301860855
 H   -3.9399029204   -2.7845136215    0.9543692218