17

 C   -0.0346590044    1.5551969279    0.0101889605
 C    1.4684312967    1.8374040860    0.0564427817
 C    2.1286138899    1.4084823091    1.3789550357
 C    1.6606325167    0.0126497308    1.6742024110
 O    0.3959453177   -0.4663650355    1.2770587512
 C    0.0174775900    0.0154224245   -0.0037585975
 O    1.0060281974   -0.2909336524   -0.9718587798
 C    2.0926782338    0.5678612833   -0.6322647176
 C    2.7750906997    0.1818045370    0.6867281666
 H   -0.5850848504    1.9375166893    0.8726566882
 H   -0.4938389175    1.9231975444   -0.9114813846
 H    1.7937420840    2.7975197654   -0.3407841473
 H    2.5332449981    2.0700261519    2.1351994075
 H    1.9202111493   -0.3998886934    2.6420523701
 H   -0.9032851049   -0.5032582057   -0.2700264367
 H    2.7297679680    0.7087905482   -1.5039816416
 H    3.7540647559   -0.2660351208    0.8046192326