20

 C    0.0345289518    1.5350273106    0.1745501243
 C   -0.0227610972    0.0215352084   -0.0792645110
 C   -1.4240173425   -0.5234612877   -0.0171304264
 C   -2.0850083604   -1.0574927930    1.2316811618
 O   -3.2533366462   -0.6410940433    1.8451211407
 C   -1.9273353271   -1.9981585739    0.0561383928
 C   -2.8753039711   -1.6960074162   -1.1276374889
 N   -3.8155650661   -0.5975837423   -0.7480699519
 C   -2.4222751378   -0.2969133093   -1.1914740449
 H    1.0612330748    1.9081742711    0.1080875596
 H   -0.5664372951    2.0833765110   -0.5590848530
 H   -0.3552205413    1.7790580307    1.1675697535
 H    0.4233206597   -0.2051015096   -1.0583347537
 H    0.5937767230   -0.5007643324    0.6624884548
 H   -1.3353530512   -1.2729785554    1.9931041599
 H   -3.8720740085   -0.4806394807    1.1106785855
 H   -1.3388723582   -2.9075026880    0.1024796468
 H   -3.1351385369   -2.3868685335   -1.9187254950
 H   -4.4324393164   -0.4331139386   -1.5423794914
 H   -2.2435260633    0.3481546823   -2.0424635134