18

 C   -0.0060372308    1.4997910860   -0.0759116746
 C   -0.0163046935   -0.0005890304    0.0467682766
 C   -1.2831502835   -0.7733371595   -0.2950685166
 O   -1.0875361969   -2.0909442948    0.2102842235
 C   -0.2723840488   -1.9917952574    1.3859192261
 C    0.4219419093   -3.2559057710    1.6043708161
 C    1.0127836198   -4.2810429414    1.8101101300
 C    0.6375925197   -0.7913037583    1.1221077070
 N    1.2405746548   -0.7195757319   -0.2104611072
 H    0.9574848335    1.9001755560    0.2470055535
 H   -0.1639263262    1.8074254322   -1.1158896214
 H   -0.7967968249    1.9517540420    0.5327315820
 H   -2.1543385043   -0.2881097089    0.1747877505
 H   -1.4759730747   -0.8623355957   -1.3698875292
 H   -0.8988355173   -1.7682680933    2.2666135880
 H    1.5322306618   -5.1905803594    1.9864267604
 H    1.1980138347   -0.3662825514    1.9481729117
 H    1.0669255373   -1.5885578128   -0.7147961963