20

 C    0.1334359202    1.5534080865   -0.0759766390
 C   -0.0210602165    0.0590034291    0.0799128069
 C   -1.4093754735   -0.5468775688   -0.1165087443
 C   -1.4011557467   -1.9112924888    0.6154748294
 C   -0.2664685717   -1.8184779843    1.6673913010
 C    0.6715071610   -0.7378790531    1.1552016485
 C    1.1785541442   -0.8201979725   -0.2848669263
 C    1.0866463467   -2.0024833105   -1.0923388843
 N    1.0295008059   -2.9491412068   -1.7567262356
 H    1.1514650363    1.8809854915    0.1570714857
 H   -0.0928574921    1.8714902604   -1.0997957623
 H   -0.5511329043    2.0838372937    0.5956712372
 H   -2.1362909873    0.1361456478    0.3393276512
 H   -1.6821777037   -0.6446265416   -1.1724515537
 H   -2.3668849609   -2.1300047451    1.0778365576
 H   -1.1970291718   -2.7181051014   -0.0897990287
 H   -0.6579651296   -1.4974069169    2.6395116393
 H    0.2318059363   -2.7804738643    1.8232799427
 H    1.3482899943   -0.2596662755    1.8559770171
 H    2.0955540231   -0.2682303995   -0.4701105525