17

 C   -0.5600605933    0.9541532726   -0.6639246199
 C   -0.1459602027   -0.3164469812   -0.0970588345
 C    0.1863775279   -1.3768822562    0.3749013180
 C    0.5917881564   -2.6436589224    0.9304825210
 O    0.0273658172   -3.1539482755    1.8774227209
 C    1.7614129547   -3.3342804069    0.2241779940
 C    1.2258644868   -4.4580512319   -0.6857337143
 C    0.7816272599   -5.7182561774    0.0236273037
 O    1.1740041249   -4.3128100609   -1.8817586692
 H    0.2986639702    1.5192569131   -1.0409165674
 H   -1.2446294739    0.7893936275   -1.5034288008
 H   -1.0803750295    1.5690308826    0.0775031838
 H    2.3218862009   -2.6311644941   -0.3917153975
 H    2.3988362384   -3.7659078392    1.0018568373
 H    1.6675869679   -6.2541647706    0.3862039523
 H    0.1804915877   -5.4697948588    0.9032031080
 H    0.2301366466   -6.3612762007   -0.6631034953