22

 C    0.0686327820    1.5315475316    0.1645494187
 C    0.0419295896    0.0124343528   -0.0225735141
 C    0.6816549760   -0.4919235270   -1.3298836362
 C    0.0457790249    0.1102935327   -2.5874220609
 O    2.0747820007   -0.1432095830   -1.3862103860
 C    0.4863991209   -2.0283384433   -1.4068511356
 O   -0.6022068387   -2.5401965056   -1.1969158194
 N    1.6044413026   -2.7176378579   -1.7469064968
 C    1.6089957284   -4.1505399771   -1.9522677463
 H    1.0789450548    1.9311670648    0.0316322474
 H   -0.5870660741    2.0403214210   -0.5476038320
 H   -0.2710050129    1.7974936560    1.1698936878
 H    0.5711553556   -0.4697295773    0.8131556406
 H   -0.9795161785   -0.3739942999    0.0166744235
 H    0.1372278491    1.1984071168   -2.5839022726
 H    0.5527376383   -0.2696130311   -3.4791509606
 H   -1.0086739341   -0.1687121027   -2.6413913077
 H    2.4394006495   -0.2525790079   -0.5007152385
 H    2.4231960555   -2.1634354384   -1.9440784219
 H    1.8272566680   -4.4065469170   -2.9956171246
 H    2.3499611997   -4.6416993984   -1.3118734140
 H    0.6143622325   -4.5198205591   -1.6977949308