23

 C    0.3724780751    1.5747174199   -0.2503306873
 C    0.0498753006    0.1224069387    0.0474439695
 O    0.6905716482   -0.7898954247   -0.8779215783
 C    1.3137805672   -1.5510266425    0.1954242053
 C    0.7480248857   -2.9672139950    0.2444274815
 C    2.8293246434   -1.5664349361    0.0206892443
 C    0.7057313016   -0.5876522111    1.2607749841
 C    1.6252327724    0.2062853170    2.1693616522
 O    0.7973431458    1.0534747339    2.9587957844
 H    1.4522231643    1.7447208289   -0.2930288674
 H   -0.0482713807    1.8572901869   -1.2203524907
 H   -0.0536628479    2.2215921487    0.5222005270
 H   -1.0399206412   -0.0155021965    0.0245600866
 H    1.0080251145   -3.5128369662   -0.6684717865
 H    1.1498810194   -3.5199059871    1.1011348350
 H   -0.3421596333   -2.9449845308    0.3292462953
 H    3.2354417700   -0.5551478608   -0.0543473427
 H    3.3214146261   -2.0830842960    0.8517495641
 H    3.0826144209   -2.0955681075   -0.9037669694
 H   -0.0298420539   -1.0848607989    1.8986504248
 H    2.2020324431   -0.4869499908    2.8030711172
 H    2.3496431996    0.7959237038    1.5908319714
 H    1.3652985593    1.6062936461    3.5035788794