22

 C    2.2547086921   -2.9416874977    1.1192135589
 C    1.0363714031   -2.0246838799    1.0585901274
 O    0.1332051716   -2.3626478465    0.0114755925
 C    0.2252778509   -1.6218423044   -1.1848339514
 C    1.2628585163   -2.1394716373   -2.1741421254
 C    1.2791683995   -1.5741919536   -3.6237013449
 C    2.7448267503   -1.2278922909   -3.3712640491
 C    2.8762358900   -0.3403484399   -2.2038437270
 N    2.7251405806   -1.7895410740   -1.9607562042
 H    1.9368199012   -3.9851559088    1.2080241450
 H    2.8733638297   -2.8338342323    0.2244484573
 H    2.8629386955   -2.6950923367    1.9970735660
 H    0.4608115630   -2.1081689255    1.9890123092
 H    1.3486159894   -0.9739910332    0.9629840626
 H   -0.7566587860   -1.7101498441   -1.6687052217
 H    0.3812235050   -0.5529941626   -0.9692450710
 H    1.1981062771   -3.2305398130   -2.1762897349
 H    1.1193571483   -2.3432390535   -4.3808449950
 H    0.6239913802   -0.7247271397   -3.8443780374
 H    3.5667884655   -1.4307244894   -4.0499189617
 H    3.8676069291    0.0176579539   -1.9444520538
 H    2.0714783577    0.3461393091   -1.9513897815