20

 O    0.0012077864    1.4166701799    0.1078708385
 C   -0.0162588069    0.0052688000   -0.0072718615
 C   -1.4257414432   -0.4865480885   -0.0468704815
 C   -2.5337313301    0.2546392247   -0.0030919023
 C   -3.7877057666   -0.5810330719   -0.0427257365
 C   -3.2545477339   -1.9942880958   -0.3257084217
 C   -4.0809794742   -3.2060014193   -0.1268113616
 N   -3.7350349425   -2.7572409365   -1.4906797715
 C   -1.7351608550   -1.9646951318   -0.1187842284
 H    0.9178192387    1.7054635143    0.1000836069
 H    0.5077248632   -0.3305988264   -0.9201561801
 H    0.5102097374   -0.4737705558    0.8383863502
 H   -2.5429234789    1.3341283080    0.0738448941
 H   -4.3344040629   -0.5319280321    0.9100917040
 H   -4.4942648930   -0.2507568034   -0.8169657173
 H   -3.6176994295   -4.1418881139    0.1767533503
 H   -5.1028332703   -3.0774872827    0.2235265588
 H   -4.5354224726   -2.2859911064   -1.9071443863
 H   -1.2264333583   -2.4782291760   -0.9432368570
 H   -1.4365972979   -2.4771024262    0.8075196829