18

 C   -0.0170273007    1.4309889529   -0.0431232035
 N    0.0315558744   -0.0073875908    0.1394413113
 C   -1.1879450654   -0.6927878835    0.0779752356
 C   -2.4730841716   -0.1994700357    0.0700088845
 N   -3.3407140827   -1.2813095152   -0.0400979122
 C   -2.5992952576   -2.4440063958   -0.0268987148
 O   -3.1949353059   -3.6754657407   -0.0385046858
 C   -1.2680451804   -2.1234469049    0.0200397383
 N   -0.1466876184   -2.9809529267   -0.0832497710
 H    0.9993641468    1.8327773765   -0.0450849343
 H   -0.5221003178    1.7421373126   -0.9736712934
 H   -0.5558750408    1.8882585006    0.7946283929
 H    0.7214518983   -0.4523095493   -0.4548235507
 H   -2.8453888579    0.8097806813    0.0997749688
 H   -4.3086453260   -1.2607675029    0.2323364498
 H   -3.4546367001   -3.8960643062   -0.9412781448
 H   -0.4478049081   -3.9497105093   -0.0920552146
 H    0.4717952538   -2.8616227429    0.7144396139