20

 C    0.0175412542    1.3851231919   -0.0435121270
 O    0.1206508414   -0.0168763959   -0.0349791048
 C    0.5814587817   -0.5286261039    1.1991599769
 C    0.6820620014   -2.0374923987    1.0809304690
 C    1.7807625747   -2.6625047947    0.1547450708
 C    2.2926141569   -3.4834315238    1.3463239331
 C    2.7292983183   -2.5674597260    2.4512054249
 C    1.2568307896   -2.8279783732    2.2658335168
 H    0.9897655770    1.8695299722    0.1431390531
 H   -0.3400787062    1.6835369552   -1.0323347486
 H   -0.6939084271    1.7490360386    0.7155455757
 H    1.5595859231   -0.0856214744    1.4519612263
 H   -0.1136949715   -0.2567460168    2.0138820654
 H   -0.3013964178   -2.4241029196    0.7987411795
 H    1.3526106274   -3.2648109824   -0.6484005968
 H    2.4994682375   -1.9617110721   -0.2830497411
 H    2.6005749037   -4.5211503736    1.3088722657
 H    3.1683177777   -3.0548109426    3.3161282863
 H    3.1681495558   -1.5991150394    2.2231763432
 H    0.6650513423   -3.2786504607    3.0540742416