21

 C    0.0811495657    1.5337212643   -0.0624954729
 C   -0.0274495660    0.0317155557    0.0643221823
 C   -1.2707760178   -0.6011176472   -0.5392692090
 C   -1.3225900797   -2.1172751432   -0.3158953526
 C   -1.1609376428   -2.4466084662    1.1706867777
 O   -1.2772840068   -3.8376068423    1.4395437000
 C    0.2135360748   -2.0180586144    1.6927455189
 C    0.6803870645   -0.6812914040    1.1471158272
 O    1.1873083868   -0.6871534728   -0.1984773479
 H    1.0193689578    1.8907935006    0.3693354572
 H    0.0551878191    1.8328417332   -1.1163338475
 H   -0.7509926089    2.0314889877    0.4470778010
 H   -2.1532378781   -0.1238115252   -0.0918732004
 H   -1.3042786974   -0.3697357137   -1.6110501389
 H   -2.2800857394   -2.5108523291   -0.6796945671
 H   -0.5267389389   -2.6102474649   -0.8826558093
 H   -1.9358237979   -1.8901290622    1.7275940887
 H   -2.1363812378   -4.1308538878    1.1191509769
 H    0.1980261511   -1.9875273262    2.7868915623
 H    0.9412766865   -2.7862931435    1.4064263135
 H    1.2873665351   -0.0841060287    1.8289776999