20

 C   -0.0673726495   -1.1100625100   -0.1012505521
 C   -0.0057666817    0.0888023862   -0.1573600389
 C    0.1047439095    1.5397500487   -0.2167227703
 C    1.5243405265    2.0257722196    0.0951117551
 O    1.5198939028    3.4323327850    0.0110934296
 C    2.7773621104    4.0139875059    0.2916317150
 C    2.6445572302    5.5107861033    0.2438891741
 C    3.7939131532    6.3293532629   -0.2159827295
 N    2.5857615887    6.2108582996   -1.0465170558
 H   -0.1372163373   -2.1684518017   -0.0551160474
 H   -0.1793906534    1.9039449460   -1.2110278039
 H   -0.5878874023    2.0050440825    0.4944317494
 H    1.8255946019    1.6917044294    1.1009170743
 H    2.2381737377    1.5891967923   -0.6219851692
 H    3.1314257430    3.6952117956    1.2872347528
 H    3.5302193785    3.6780162751   -0.4439690777
 H    1.9720854754    5.9243705163    0.9921702873
 H    3.9644510516    7.3134689806    0.2104679232
 H    4.6982869373    5.8100705898   -0.5248970443
 H    2.7423745974    5.5491966628   -1.8037307219