21

 C   -0.3243611161    1.4070767405    0.2046229130
 C    0.0720447563   -0.0494494565   -0.0531669281
 C   -1.2047529746   -0.9477848543   -0.1378604211
 C   -1.2398711213   -1.6891251600    1.1746462688
 C   -0.1148930306   -1.5410693723    1.8695579494
 C    0.8819728744   -0.6590813228    1.1526992569
 C    2.0246683677   -1.3930278748    0.4832720626
 C    2.0767053381   -1.1614173089   -0.8267419584
 C    1.0062986991   -0.2031096884   -1.2881648466
 H    0.5584726980    2.0369963122    0.3597785725
 H   -0.8860745875    1.8196334880   -0.6413829977
 H   -0.9563507359    1.4874796104    1.0962356125
 H   -2.1084796353   -0.3488106027   -0.3084914059
 H   -1.1481141158   -1.6566897466   -0.9749810029
 H   -2.0880260505   -2.2941820239    1.4776842063
 H    0.0998186878   -2.0048648835    2.8265097120
 H    1.2733132689    0.1192515789    1.8252478931
 H    2.7100005020   -2.0268737527    1.0362527043
 H    2.8159069640   -1.5774296770   -1.5037045924
 H    0.4687660063   -0.5609221408   -2.1748716292
 H    1.4492092052    0.7612983053   -1.5757253189