18

 C   -0.2539182015    1.3710369145   -0.0798040232
 O    0.1291224082    0.0174931864    0.0662702910
 C    0.6891747783   -0.5500433571   -1.1007938397
 C    1.2816078884   -1.9101028651   -0.6712405218
 C    2.3684005412   -1.7588625038    0.2933439644
 N    3.2429724710   -1.6438527171    1.0391402495
 C   -0.2902111317   -0.7312946442   -2.1785627963
 C   -1.1007434309   -0.8885088466   -3.0553961286
 C   -2.0787043473   -1.0740822656   -4.1171493960
 H    0.6052500322    2.0038356003   -0.3480728460
 H   -1.0333887941    1.4903109881   -0.8440252701
 H   -0.6442419360    1.6931344240    0.8874592914
 H    1.5105360078    0.0886536491   -1.4665098790
 H    0.4814864131   -2.5109391206   -0.2286737384
 H    1.6514750742   -2.4422118064   -1.5523094973
 H   -1.7741773349   -1.8784316473   -4.7953472966
 H   -3.0601042906   -1.3374886768   -3.7085931491
 H   -2.1969157374   -0.1627669618   -4.7129497241