11

 O    0.0918786317    1.3345186645    0.0076365544
 C   -0.0192151223    0.0183172660    0.0008251778
 C   -1.1079182923   -0.7807836563    0.0024455232
 O   -0.6317698654   -2.1006896294   -0.0076480975
 C    0.7112812443   -2.0754121038   -0.0153235145
 O    1.4664978073   -2.9848771528   -0.0242791264
 O    1.1122924621   -0.7236892791   -0.0097471108
 C   -2.5200440985   -0.4804683109    0.0121471856
 O   -3.4070958192   -1.3042656492    0.0129642603
 H    1.0272265645    1.5784518303    0.0039688344
 H   -2.7194556122    0.6122136807    0.0198686435