20

 C   -0.0169311029    1.5610630991    0.1600518086
 C    0.0207888405    0.0644568750    0.0328072775
 C   -0.9219439596   -0.8674113968    0.7499648863
 C    0.5613310947   -0.9808937795    1.0030240800
 C    1.3032397827   -1.6702763613   -0.1745711766
 N    0.3052836993   -2.0810158752   -1.2076063190
 C    0.7815064701   -0.6778359104   -1.1282717743
 C    1.4312995540    0.0006488366   -2.3029563194
 O    2.2289638940   -0.9035305531   -3.0622867426
 H    0.9715588248    2.0122088859    0.0122936243
 H   -0.7008817285    2.0148796729   -0.5683162237
 H   -0.3629748976    1.8518217776    1.1572338638
 H   -1.4766600623   -0.3978887019    1.5575443686
 H   -1.4489811709   -1.6499624414    0.2199057819
 H    1.0066773871   -0.8222488572    1.9771213310
 H    2.2743272444   -2.1456698733   -0.1283139603
 H    0.8621605967   -2.5066342891   -1.9506649742
 H    0.6680360712    0.4791692710   -2.9349128925
 H    2.0979550892    0.7971271111   -1.9515861083
 H    1.6938811430   -1.2336741500   -3.7888900612