23

 C   -0.1872084509    1.4028170662    0.1363125743
 C    0.0254655987   -0.1121908893   -0.0198064079
 C    0.7259892591   -0.4720674214   -1.3402902232
 O    0.7646122097   -1.8850287023   -1.4537945344
 C    0.0360186123    0.1008277311   -2.5803800930
 O    0.7181851607   -0.4546833886   -3.7053397436
 C    0.7994538581   -0.6551208271    1.1704645495
 C    0.0824149726   -0.9779177567    2.4603808691
 C    0.6628438390   -2.0841681337    1.6149864474
 H    0.7625778815    1.9451337576    0.0567330262
 H   -0.8696446114    1.8108686739   -0.6150838881
 H   -0.6090596272    1.6212903155    1.1214135037
 H   -0.9559812887   -0.6068610296   -0.0396471313
 H    1.7539396249   -0.0659675845   -1.3165971038
 H    0.9907298927   -2.0592111213   -2.3765369775
 H   -1.0234733590   -0.1965166123   -2.5772992259
 H    0.0940453545    1.1967783128   -2.5948883768
 H    0.1809898491   -0.3181081986   -4.4900718863
 H    1.7890377422   -0.2148047464    1.2807823524
 H    0.5664154140   -0.7310745219    3.3990897698
 H   -0.9978028184   -0.8683975006    2.4794379605
 H   -0.0171481334   -2.7150924242    1.0555061368
 H    1.5488828396   -2.5971292888    1.9724841321