18

 C    0.0644834128    1.5379137249   -0.0887459177
 C   -0.0245841808    0.0099530707   -0.0423460503
 O   -1.3890043365   -0.3995563199    0.0669072253
 C    0.8313155295   -0.6111193467   -1.1539475619
 C    1.5487777595   -1.6227364926   -0.6165122406
 C    2.9082970914   -1.2591253009   -0.0403796303
 N    2.1484377484   -1.0907738381    1.2921094994
 C    1.0738034561   -1.9884465539    0.7909052872
 C    0.6647544352   -0.6409960467    1.1845069110
 H    1.1023518123    1.8839388457   -0.0752153330
 H   -0.4158315493    1.9257438689   -0.9936953422
 H   -0.4536673392    1.9564968513    0.7790018550
 H   -1.7812711628   -0.3170334144   -0.8085239047
 H    1.2728795680    0.0483896302   -1.8978211943
 H    3.6251342812   -2.0644098129    0.1418489869
 H    3.4081366088   -0.3736609882   -0.4423804841
 H    0.8442894382   -2.9534510250    1.2254806914
 H    0.3040342171   -0.4060451124    2.1815491130