15

 O   -0.0455503668    1.3594674119   -0.0592634378
 C   -0.0025526837    0.0008029989    0.0094211525
 C   -0.8438980184   -0.7939965271    0.9143443909
 C    0.6729217619   -0.9845623972    1.0685970177
 C    1.2216862263   -1.7753914950   -0.0757862098
 O    2.0277215191   -2.6557518020   -0.1824323258
 C    0.5606021294   -0.8446105494   -1.1134945236
 C    0.2283847868   -0.9275324968   -2.5332824985
 O    1.3738652054   -0.1810902424   -2.0768940872
 H    0.6581065516    1.6273592933   -0.6679403916
 H   -1.2734626742   -0.2278932930    1.7359246906
 H   -1.4745092901   -1.6025340062    0.5534278317
 H    1.1604442383   -0.8067344814    2.0182941512
 H    0.4668178498   -1.8341611656   -3.0856305243
 H   -0.5889010354   -0.3272795381   -2.9294075359