19

 C   -0.0843812393    1.5683065903    0.0759711854
 C    0.0381286530    0.0421010207    0.0583490883
 C    0.6927356324   -0.5047238925    1.3299920849
 C   -1.3233770595   -0.6121522223   -0.1795232452
 O    0.8081441283   -0.3856438571   -1.1257567802
 C    2.0813133442   -0.0132699900   -1.2988186800
 O    2.7434779010    0.6795005711   -0.5634346308
 C    2.5972514744   -0.5685122422   -2.5367015481
 C    3.0786395782   -1.0005658610   -3.5493090279
 H    0.8833324932    2.0415323085    0.2413108102
 H   -0.4994598585    1.9281735285   -0.8702576324
 H   -0.7642817302    1.8669759245    0.8798191197
 H    0.0465810386   -0.2949203247    2.1879579914
 H    0.8186460395   -1.5891833632    1.2576481613
 H    1.6658461518   -0.0456599027    1.5034213654
 H   -1.7659952613   -0.2546437987   -1.1131836213
 H   -1.2243805626   -1.6993732462   -0.2394657663
 H   -2.0032794649   -0.3700774649    0.6422279326
 H    3.5055776517   -1.3824458679   -4.4444647172