17

 C   -0.1811102246    1.5480978058    0.1655256148
 C    0.0026078138    0.0384026265    0.0687727963
 C   -1.2610211746   -0.6850181163   -0.3808922244
 O    1.1401248710   -0.2995137460   -0.7983199942
 C    1.8784742747   -0.9198791960    0.2777272000
 C    0.7504236148   -0.6056174964    1.2228118165
 N    0.4534347480   -0.7596619019    2.4392633452
 O    1.4829055306   -1.4263455966    3.1291950905
 H    0.7490467209    2.0346545500    0.4691054655
 H   -0.4807616282    1.9490793426   -0.8079052787
 H   -0.9566395481    1.7915987875    0.8980315914
 H   -1.5741020426   -0.3116334095   -1.3610500224
 H   -1.0863897239   -1.7608365466   -0.4596870102
 H   -2.0721802694   -0.5153247284    0.3336206376
 H    2.0712484231   -1.9865668037    0.1056513487
 H    2.8304800065   -0.4165918332    0.4898152651
 H    1.1310257381   -1.4753098779    4.0246594484