18

 C    0.1635455017    1.5367551830   -0.3487385254
 C    0.0993091231    0.0878090030   -0.2312624493
 C    0.0295932043   -1.1086661120   -0.1131779933
 C   -0.0190579693   -2.5370026263   -0.0017691749
 C   -0.3366804898   -3.2275839843    1.3013455554
 C   -1.3464891433   -3.2981394659    0.1909223797
 C   -2.6141696662   -2.5108088230    0.3493985343
 N   -3.6086628860   -2.8582499670   -0.5290484902
 O   -2.7649480795   -1.6524579809    1.1968016370
 H    1.0721734015    1.9367923990    0.1153564988
 H    0.1593879484    1.8560235263   -1.3970934538
 H   -0.6945451486    2.0063587911    0.1446964022
 H    0.6801327020   -3.0628937493   -0.6470517572
 H    0.2174142664   -4.1242501955    1.5530108178
 H   -0.6179784600   -2.5871331111    2.1286823092
 H   -1.4266340838   -4.2248389560   -0.3684304980
 H   -3.4016086172   -3.3902941451   -1.3572030031
 H   -4.4188681538   -2.2593085960   -0.5530745294