23

 C    2.6689929909    0.5655894853    0.9448750491
 C    1.5278550517   -0.4068786173    0.6203360005
 O    0.2707000434    0.1450482933    0.9936530354
 C    1.4855898824   -0.7877048184   -0.8518224691
 O    1.1327927119    0.3260304841   -1.6562255385
 C    2.3746921958   -1.8359426401   -1.4813839321
 C    3.4254813203   -2.6212220783   -0.7235993078
 C    0.8734095666   -2.0747568008   -1.3271076188
 C    0.2759138715   -3.1087289530   -0.3972134144
 H    3.6482907067    0.1136058338    0.7551061098
 H    2.5869508229    1.4795693917    0.3454449186
 H    2.6164224798    0.8578850106    1.9965878161
 H    1.6508513568   -1.3059649609    1.2312670170
 H    0.0166855100    0.7221588095    0.2617484910
 H    1.9184969549    0.8725045291   -1.7705610266
 H    2.6695831480   -1.5856717763   -2.4982887241
 H    3.1224286015   -2.8551988754    0.2996532177
 H    3.6340689331   -3.5718936403   -1.2267787702
 H    4.3687858926   -2.0665697779   -0.6666970381
 H    0.3183762708   -1.9482097652   -2.2527381265
 H    0.8860578950   -3.2851842730    0.4919384735
 H   -0.7144373023   -2.7924957819   -0.0546882852
 H    0.1659260556   -4.0698157488   -0.9108345074