18

 C    0.0413573470   -1.1134874418   -0.0062147964
 C    0.0241875106    0.0887785288   -0.0109536669
 C   -0.0183206809    1.5228347472    0.0341362425
 C   -1.2254396762    2.1985296814    0.6975074180
 C   -1.4161709440    3.4797331776   -0.1478986250
 C   -0.0570391640    3.6465806633   -0.8139273363
 C    1.1068059524    3.7546214191    0.2088930505
 C    1.2858456120    2.2613016187   -0.0072387430
 N    0.3933302146    2.2395363021   -1.2191458096
 H    0.0605040974   -2.1749574439   -0.0168631036
 H   -2.0967139759    1.5419134334    0.6611856692
 H   -1.0255518363    2.4189483497    1.7503827947
 H   -2.1876571029    3.3267836517   -0.9092295385
 H   -1.6983713994    4.3518277000    0.4496917947
 H   -0.0350135014    4.3405651001   -1.6537491244
 H    1.9545163401    4.3160284127   -0.1893704607
 H    0.8803617043    4.1169604315    1.2172005638
 H    2.2247464526    1.7164101683    0.0137218108