17

 O    0.1683840152    1.3600028224    0.0393049655
 C    0.0177516035   -0.0403731804    0.1776564467
 C   -1.4048383717   -0.5103800985    0.1326578882
 C   -2.5099369560    0.2390472147    0.0626874875
 C   -3.7772523888   -0.5909837105    0.0086689917
 C   -3.2490993759   -2.0219006893   -0.0117753458
 N   -2.4223471975   -2.3384872665   -1.1976549857
 C   -1.7669739415   -1.9632484277    0.0901255868
 H   -0.2068864761    1.6021943822   -0.8140410753
 H    0.6037650329   -0.5868743986   -0.5818968104
 H    0.4687769831   -0.2942835584    1.1466614175
 H   -2.5184671461    1.3220358794    0.0271328406
 H   -4.4171521072   -0.4134786027    0.8832887953
 H   -4.3808244933   -0.3685478755   -0.8796579467
 H   -3.8239660153   -2.8198353622    0.4456455797
 H   -2.3873033047   -3.3528090779   -1.2925371377
 H   -1.1756731307   -2.7096926307    0.6115369722