17

 C    0.2208301663    1.2045237366   -0.3723521194
 C    0.3739338162   -0.2991509903   -0.1316417637
 N   -0.8254531101   -1.1125623679   -0.0019966257
 C   -1.9686605180   -0.5815827542   -0.0875139567
 N   -3.1079338270   -1.3719475124    0.0385116855
 C   -4.3838031182   -0.8981357974   -0.0378467183
 O   -4.7161319210    0.2561027543   -0.2227319460
 C   -5.4353549123   -1.9966106271    0.1376238430
 O   -5.1597452301   -3.1531826659    0.3232527147
 H    1.2103886729    1.6649301576   -0.4455859552
 H   -0.3134665397    1.4167159859   -1.3044402619
 H   -0.3142586929    1.6969238327    0.4464940518
 H    0.9668963770   -0.7431358706   -0.9424390210
 H    0.9661410227   -0.4678465748    0.7777269546
 H   -2.2059899033    0.4696096087   -0.2558655519
 H   -2.9868304906   -2.3651935855    0.1975503131
 H   -6.4711822119   -1.6107576398    0.0752024371