22

 C   -0.0464677410    1.5674650038    0.0390065887
 C    0.0853824479    0.0684180401   -0.0204598898
 N   -0.7912294806   -0.7943608617    0.8312100563
 C    0.6734587432   -0.7866004855    1.0466128978
 C    1.4277961474   -1.9611700991    0.4044214725
 C    2.9385942434   -1.8254407213    0.6711150413
 C    0.9157147553   -3.3266186560    0.8944920981
 C    1.1216647934   -1.7403238535   -1.0727098318
 C    0.4216875727   -0.6296895605   -1.3037043942
 H    0.8373395584    2.0583949227   -0.3825814323
 H   -0.9191265568    1.9104939170   -0.5292787900
 H   -0.1626061777    1.9128646935    1.0716998242
 H   -1.2167196634   -0.2096200529    1.5505258510
 H    1.0578948312   -0.3592620745    1.9689512936
 H    3.1568134315   -1.9448318046    1.7390525650
 H    3.5025885008   -2.5912846665    0.1281951073
 H    3.3092660509   -0.8460573287    0.3525893362
 H   -0.1670773692   -3.3919339405    0.7687191404
 H    1.3847711913   -4.1439736775    0.3356095552
 H    1.1513591902   -3.4722204103    1.9548038623
 H    1.4391183027   -2.4533284033   -1.8273310295
 H    0.0939312086   -0.2723855905   -2.2736484322