15

 C   -0.0338891853    1.5548378583   -0.0502945419
 C    1.5151676148    1.4313813664   -0.0253747647
 C    1.3213426574    0.1204743114    0.7901579568
 C   -0.0033028566    0.0013203682   -0.0174565161
 O    0.2444076501   -0.4688641712   -1.3443341095
 C    1.5416206186   -0.1276784821   -1.7867496866
 O    1.9623450554    1.1490412579   -1.3532803015
 H   -0.4366052109    1.9875466477    0.8692770083
 H   -0.4769420702    2.0203964578   -0.9318139714
 H    2.1374564677    2.2410373790    0.3578790284
 H    2.0682573793   -0.6729444569    0.7310846770
 H    1.1145033980    0.3459004211    1.8381178058
 H   -0.8466489244   -0.5693363466    0.3734241176
 H    2.2607788458   -0.8894070385   -1.4458608730
 H    1.5231524402   -0.1141122826   -2.8796769094