15

 C   -0.0102627685    1.4516039948    0.0058228008
 N    0.0060695207   -0.0071929912   -0.0303593265
 C   -0.0978896866   -0.6864948364   -1.2052683392
 C   -0.0840407020   -2.0472530367   -1.2539029440
 C    0.0434271644   -2.7589685086   -0.0316994068
 C    0.1485706646   -2.0954196384    1.1532011212
 C    0.1362225787   -0.6509041438    1.2290221139
 O    0.2247175197    0.0278676448    2.2429557087
 H    0.9131038338    1.8242869799    0.4552939349
 H   -0.1140776326    1.8350185157   -1.0098619615
 H   -0.8397220304    1.8003256429    0.6254050515
 H   -0.1918834781   -0.0732397683   -2.0939693534
 H   -0.1686700237   -2.5563267334   -2.2040248482
 H    0.0567747754   -3.8447407823   -0.0466359066
 H    0.2467978746   -2.6130064390    2.0993637550