14

 O    0.0006724371    1.3909459010    0.0539016665
 C   -0.0193316079   -0.0260751500   -0.0237603825
 C   -1.4418263610   -0.4772659442   -0.0096385776
 C   -2.5682956931    0.2857838472    0.0635397184
 N   -3.6253590850   -0.6240899602    0.0425555923
 C   -3.0675590698   -1.8550780442   -0.0407028742
 O   -3.8534796126   -2.9457725379   -0.0791704449
 N   -1.7628361157   -1.8275015490   -0.0752529233
 H    0.9180436246    1.6760687992    0.0390015431
 H    0.4712808950   -0.3879782211   -0.9423976148
 H    0.5196230786   -0.4851377662    0.8214882768
 H   -2.7213381631    1.3478720021    0.1262544263
 H   -4.6091131781   -0.4218528170    0.0807830533
 H   -3.2568002690   -3.7023212697   -0.1373488193