19

 C   -0.0218050518    1.4211192194   -0.1847659378
 C    1.2956568611    0.7350219951    0.0248194907
 C    2.0034331690    0.7672826043    1.3798833259
 C    1.1484639934    1.4752632613    2.4549931350
 C    0.4943656657    0.1002537369    2.6085034599
 C   -0.1730161627   -0.6166436355    1.3567156000
 C    1.0235659697   -1.5927377226    1.4703354793
 N    1.8106070195   -0.5408969330    2.1898905170
 N    0.0280182208   -0.0171828858    0.0358800667
 H   -0.4182528567    2.0773784511    0.5799549614
 H   -0.3120887482    1.6940752848   -1.1963080353
 H    1.9300184297    0.5594726738   -0.8412221511
 H    3.0529869552    1.0483644114    1.2789747207
 H    1.7451350714    1.6744562189    3.3491694565
 H    0.5800956678    2.3671434329    2.2000157017
 H    0.0682621427   -0.2103500704    3.5677487799
 H   -1.2009148404   -0.9730809434    1.4565255161
 H    0.8641081765   -2.4221550521    2.1655069087
 H    1.4303686974   -1.9699437271    0.5288646247