13

 C   -0.0232688525    1.4980970826    0.0352605276
 C   -0.0003688745    0.0002012921   -0.0106035569
 C    0.0704525090   -0.7205479332   -1.2152618973
 N    0.0896282975   -2.0401741727   -1.2310215623
 C    0.0363113172   -2.6092604292   -0.0169289005
 N   -0.0319019048   -1.9807676849    1.1581777777
 N   -0.0501971262   -0.6540533732    1.1539569412
 C    0.0537247774   -4.0505164613    0.0367759377
 N    0.0681080252   -5.2053193265    0.0716387934
 H    0.8792662607    1.9174633404   -0.4221184028
 H   -0.8817180630    1.8936737411   -0.5180395888
 H   -0.0840166520    1.8317384294    1.0717756899
 H    0.1116628560   -0.2098988946   -2.1751056688