16

 O   -0.8462375487    1.1192025059   -0.0664388313
 C    0.3120389664    0.7860929180   -0.0838682892
 C    1.4432108712    1.7656854898   -0.0354897143
 C    1.9798025172    2.3882110055    1.2991827538
 C    3.2257892778    2.4447016536    0.3713092566
 O    2.7655417009    1.2087414302   -0.2419653847
 C    2.7923241011    3.5241480322   -0.6573599218
 N    2.4936391301    2.9527496904   -1.9885637786
 C    1.4363562840    3.0174807478   -0.9611220661
 H    0.6281902879   -0.2789961810   -0.1200714568
 H    1.5295990894    3.3192129803    1.6523057262
 H    2.0786093294    1.6491315958    2.0954784823
 H    4.2533934705    2.4112983789    0.7296164484
 H    3.0474664871    4.5690469516   -0.5311217664
 H    2.3441321651    3.7255754330   -2.6360981236
 H    0.5428068204    3.6149534179   -1.0833757246