20

 C   -0.0831978081    1.3681852685    0.0057208126
 O    0.0853184314   -0.0345648248   -0.0060972053
 C    0.7165186493   -0.5426577992   -1.1403539841
 C   -0.0640454449   -0.4961519013   -2.5035434656
 C    0.2393712051   -1.9933308806   -2.6567028408
 C    0.7082849188   -2.0958291530   -1.2436173930
 N    1.6353792868   -2.3350777443   -2.3345226010
 C    2.6193759470   -1.2265410173   -2.4107961851
 C    2.1868093815   -0.1623759169   -1.3719141440
 H    0.8779958923    1.9002893297    0.0319075917
 H   -0.6511271199    1.7195442454   -0.8680462536
 H   -0.6442668599    1.6125523133    0.9106691050
 H   -1.1310208423   -0.3401961703   -2.3240284382
 H    0.2840799422    0.1913075142   -3.2821477877
 H   -0.3152425064   -2.7011019075   -3.2627732203
 H    0.5362812404   -2.8148724214   -0.4521365781
 H    3.6101401669   -1.6330490811   -2.1909620804
 H    2.6460034967   -0.8298076952   -3.4304264054
 H    2.3136176775    0.8581668964   -1.7453734598
 H    2.7464878857   -0.2594976847   -0.4350202070