16

 O    0.1569565006    1.3800814147   -0.1083650035
 C    0.0419059175    0.0529776671    0.3533432957
 C   -1.3586593537   -0.4931819432    0.0950971337
 N   -1.6167976937   -0.8138514287   -1.3196474810
 C   -1.5985888642   -1.9243058337   -0.3562064474
 C   -0.4943505608   -2.9207522025   -0.5035035540
 O   -0.5247587659   -4.0129099908    0.0034922056
 C   -2.4174726320    0.1183379234    0.8569318917
 C   -3.2992408377    0.6334325442    1.4915513112
 H   -0.0267202573    1.3627064304   -1.0549988022
 H    0.7831357821   -0.6055561841   -0.1182982786
 H    0.2395660513    0.0745237692    1.4284913275
 H   -2.5752272077   -0.5825893930   -1.5679792579
 H   -2.5381364999   -2.3580852183   -0.0249926211
 H    0.3540805420   -2.5846801170   -1.1364472160
 H   -4.0736506306    1.0934292325    2.0546957566