20

 C   -0.6782917680    1.2011658188    0.0782023477
 C    0.1321828669   -0.0779113447   -0.0541383786
 C    1.4935099875   -0.0572176512   -0.8002831105
 C    2.0287746622   -1.0840439132    0.2305475493
 C    0.8579039969   -0.7123400742    1.1843900619
 C    1.2232438997    0.2210674260    2.3704055377
 O    0.6584471363   -0.4316540562    3.5340831391
 C    0.1031549299   -1.5701016771    3.0608536946
 N    0.1516014592   -1.8311212206    1.8216444035
 H   -0.0689749288    2.0413735077    0.4298407360
 H   -1.0960936738    1.4916729197   -0.8918965569
 H   -1.5158588882    1.0758389211    0.7738211736
 H   -0.4985812186   -0.8697362612   -0.4705881750
 H    1.4963671455   -0.3465963518   -1.8532964453
 H    1.9902105354    0.9147155433   -0.7077995691
 H    1.9197508891   -2.1151012691   -0.1133794685
 H    3.0422374613   -0.9437811437    0.6171335000
 H    2.3027534844    0.3114577162    2.5256896781
 H    0.7883566158    1.2213490677    2.3073434477
 H   -0.3594876628   -2.1908232474    3.8205422346