19

 O   -0.5947324328    0.0835843383    0.3103352689
 C    0.0992714899    0.6624373458   -0.4801124533
 C    1.1552516828    1.6979916116   -0.0868304857
 C    1.2162091744    2.8075786458   -1.0269485772
 C    1.2179580761    3.7011059397   -1.8365793377
 C    1.2491845172    4.8039467771   -2.7748879464
 C    0.7152266916    6.2051494934   -2.3277724552
 C    1.8724885714    6.8574508616   -3.1286803048
 C    2.6141393777    5.4953037886   -3.1027341098
 H    0.0320186134    0.4745737343   -1.5738681362
 H    0.9473519489    2.0243300777    0.9376483277
 H    2.1200479717    1.1671626050   -0.0612521823
 H    0.7578285891    4.5098043343   -3.7092887844
 H   -0.3122005198    6.4551046163   -2.6002042265
 H    0.8394207823    6.3389429780   -1.2504116862
 H    1.5617326084    7.1311145385   -4.1411266333
 H    2.3767755521    7.7141378862   -2.6776851777
 H    3.2984692016    5.4199028941   -2.2540709890
 H    3.1324591138    5.1677310736   -4.0063828110