18

 C   -0.0546106195    1.5187621723    0.0210896185
 C   -0.0231689167    0.0144774627    0.0124256240
 C    0.7944725317   -0.9683558155   -0.8866557702
 C    1.9935325813   -1.0179282511    0.0632309486
 C    0.7487774057   -0.9701741269    0.9535370732
 N   -0.0064741572   -1.9478844971    0.0120472646
 C   -1.2001128490   -0.9777046894   -0.0311910274
 C   -2.1188651257   -1.0383206168    1.0864457049
 C   -2.8767453377   -1.0613525662    2.0204164973
 H    0.9559754980    1.9370748529    0.0803800415
 H   -0.5272995548    1.9076353515   -0.8874613269
 H   -0.6248182612    1.8861898071    0.8807960601
 H    0.7519176246   -1.0646832002   -1.9736362156
 H    2.5567002026   -1.9544865942    0.0763007337
 H    2.6540630682   -0.1478463752    0.0797326615
 H    0.6537230434   -1.0670104137    2.0351398313
 H   -1.7376975544   -1.0442588852   -0.9851110210
 H   -3.5491104993   -1.0948720651    2.8417336721