17

 C    0.0117890929    1.5581506843    0.0270122988
 C   -0.0171548221    0.0613804336    0.0169542216
 C   -1.1045405124   -0.7527105161    0.0323711549
 N   -2.4116469309   -0.3743796691    0.1037091196
 C   -0.7497160758   -2.2220898142    0.0183841914
 C    0.7884022283   -2.2312219455   -0.0150413135
 C    1.1980676737   -0.7466093037   -0.0162810303
 O    2.3446688145   -0.3428814425   -0.0462203540
 H    1.0487425631    1.8897125426   -0.0739575014
 H   -0.5654358649    1.9938782804   -0.7994837936
 H   -0.3868300117    1.9772704133    0.9596178260
 H   -2.6447406667    0.5888581567   -0.0776754769
 H   -3.1221746993   -1.0416917518   -0.1482817009
 H   -1.1597603317   -2.7234263434    0.9033879215
 H   -1.1952926344   -2.7181342509   -0.8535452292
 H    1.2294363256   -2.7312889870    0.8518572016
 H    1.1928455719   -2.7226414268   -0.9044078957