14

 O    0.0010212751   -0.1066112116    0.2094538431
 C    0.0591553455    1.0566642346   -0.0881640114
 C    1.2993336728    1.9120156908   -0.0119780499
 C    1.5077524753    2.8095296807    1.2188550233
 C    2.9525977477    2.5001843393    1.1486102732
 C    2.1434672330    1.8957729958    2.2928152923
 C    2.3872930914    0.5874857840    1.6173455335
 O    2.6100384941   -0.5272691775    1.9501861798
 N    2.6354535361    1.2606396380    0.2867042056
 H   -0.8414297629    1.6172173442   -0.4325195515
 H    1.3853248844    2.5025257570   -0.9313020952
 H    1.0165169610    3.7330983076    1.4999312613
 H    3.8844512002    3.0430337818    1.1481290348
 H    2.1453239662    2.1559413654    3.3424295911