16

 C   -0.0189855368    1.4649585214    0.0341048739
 C   -0.0001684880   -0.0276787354   -0.0170237391
 C   -0.0382910827   -0.8046862018   -1.1209288336
 C    0.0002538356   -2.2000783660   -0.7069372062
 N   -0.0087113434   -3.3748515202   -1.2811285864
 O    0.0531197605   -4.2748977379   -0.1989796281
 C    0.0950219773   -3.5861216784    0.9673394519
 C    0.0647429036   -2.2609695437    0.7170841366
 C    0.0690507064   -0.8657709990    1.2649012962
 H    0.8796597053    1.8561962871    0.5277236154
 H   -0.0736081274    1.8995072907   -0.9670363747
 H   -0.8763003008    1.8312892806    0.6129175338
 H   -0.0891314945   -0.4539516247   -2.1428220854
 H    0.1435468107   -4.1965687852    1.8556423551
 H    0.9705474748   -0.6266591356    1.8437892512
 H   -0.7839916407   -0.6519245218    1.9218455394