22

 C    0.2305113455    1.5709931322    0.0344893173
 C   -0.2047456501    0.1136894006   -0.1082372048
 N    0.5484404736   -0.5219134558   -1.1850106491
 C    1.7644147214   -1.2404745758   -0.8475911465
 C    0.5537885459   -1.9924716392   -1.3286996820
 C   -0.1966303426   -2.8917304050   -0.3547419883
 C    0.5116009101   -2.4570685629   -2.6980567558
 C    0.4643923172   -2.8816087326   -3.8243487083
 C    0.4133154874   -3.3739221370   -5.1934101186
 H    1.2890842070    1.6362804226    0.3068966679
 H    0.0917509437    2.1065180928   -0.9084766566
 H   -0.3512241388    2.0731679034    0.8138299791
 H   -0.0876822525   -0.3970241658    0.8615608520
 H   -1.2681707630    0.0658833012   -0.3705889806
 H    2.6141660641   -1.0906140715   -1.5078267691
 H    2.0165024139   -1.3579559166    0.2072840527
 H   -0.0797634790   -2.5672979770    0.6809877977
 H   -1.2644818594   -2.9153621372   -0.5948230108
 H    0.1833273136   -3.9143212162   -0.4336141657
 H   -0.5650211533   -3.8095584099   -5.4253747788
 H    0.5933824761   -2.5655791071   -5.9108381017
 H    1.1697253292   -4.1470383332   -5.3698104603