13

 N   -0.0383619159    1.3059531773    0.0105969471
 C   -0.0413895161    0.0308653637    0.0034091011
 N    1.1982330675   -0.6938138745   -0.0084413678
 N    1.2617809696   -1.9492061150   -0.0158568391
 N    0.1061416784   -2.6659647596   -0.0126073942
 C   -1.1403660838   -2.1123711616   -0.0017469860
 C   -1.2776668952   -0.7628507932    0.0066544278
 C   -2.5494991060   -0.1452257335    0.0180178966
 C   -3.6356062641    0.3742647552    0.0276603020
 H    0.9318847009    1.6300925570    0.0063561833
 H    0.2557319651   -3.6614200248   -0.0191067382
 H   -1.9773684571   -2.7991115785   -0.0003830118
 H   -4.5844189134    0.8507219275    0.0361750592