22

 C    0.0282552271    1.5881382998    0.1789573452
 C   -0.1132254373    0.0768709126    0.1496423865
 O    0.8740748745   -0.4791715271    1.0146446673
 C    0.8267243291   -1.8491823979    1.0987923569
 C   -0.1839508856   -2.5992944110    1.9344131891
 C    1.3042710494   -2.7207186258    2.2300141173
 N    2.0122631492   -3.6017632180    1.3021086046
 C    1.7361396549   -5.0251550886    1.3443967558
 C    1.5259665423   -2.8151215602    0.1299672395
 H    1.0242518570    1.8877272070   -0.1590975080
 H   -0.7154786223    2.0529729134   -0.4751494083
 H   -0.1162618504    1.9669117973    1.1947901315
 H   -1.1147504856   -0.2327775952    0.4839328088
 H    0.0237430154   -0.3058762925   -0.8735177406
 H   -0.7205678271   -1.9726962842    2.6404524634
 H   -0.7561181986   -3.4320286794    1.5337261008
 H    1.7309784542   -2.4610603452    3.1927576533
 H    0.6678870202   -5.2874829520    1.2388834190
 H    2.2871780975   -5.5263933613    0.5418861188
 H    2.0892704386   -5.4329399665    2.2974278261
 H    0.8735531823   -3.3628939970   -0.5633235303
 H    2.3525588053   -2.3617966883   -0.4272865867