15

 C    0.0537756925    1.4063362698   -0.1326246090
 O   -0.0017341538    0.0018239071   -0.0110599199
 C    0.6121477504   -0.6534206196   -1.0757049300
 C    0.5107799665   -2.1504969588   -0.8668020628
 O   -0.0033561445   -2.7183957882    0.0497436464
 O    1.1235252600   -2.7690250163   -1.9324715827
 C    1.1507555893   -4.1422284221   -1.9518199522
 N    1.7116227402   -4.7049562496   -2.9259949731
 H    1.0918285629    1.7724492323   -0.1577200904
 H   -0.4584695128    1.7572779316   -1.0418389820
 H   -0.4491832478    1.8230294305    0.7421048836
 H    0.1464671835   -0.4128383167   -2.0471375120
 H    1.6808222558   -0.3949056275   -1.1733585633
 H    0.6631247721   -4.5873494841   -1.0844089939
 H    1.6609107659   -5.7167081384   -2.8150331185