19

 O   -0.8309276314    0.9555429806   -0.8854891022
 C    0.0576755278    0.9824128564   -0.0694394552
 C    1.1900653246    1.9668916858   -0.0452104148
 C    1.1945176854    3.1784314002   -1.0235032167
 C    1.3952910159    4.1451884624    0.1859879705
 C    0.1676542836    4.8009772893    0.8612584840
 C   -1.0441781069    3.9202355963    0.8206517829
 C    0.0420075835    3.5953913913    1.8123434245
 C    1.2967492856    2.9544646936    1.1803312360
 H    0.0893054488    0.2378212756    0.7608883967
 H    2.1140852462    1.3775992855   -0.1050895393
 H    2.0268536184    3.1700412446   -1.7301191505
 H    0.2674536247    3.3012114770   -1.5861699499
 H    2.2906576756    4.7657639251    0.1700923742
 H    0.0914510697    5.8574823650    1.0900169778
 H   -1.9290392062    4.3577448059    1.2734181997
 H   -1.2673029156    3.2814722722   -0.0256672106
 H   -0.1630965804    3.5861937949    2.8763444391
 H    2.0953828307    2.7551231284    1.8945263237