14

 C   -0.0462603501    1.3738755894    0.0678915018
 O    0.0356095277   -0.0548320511   -0.0585781420
 C    0.6464975634   -0.5211677714   -1.1302590732
 N    1.1573274472    0.2444909628   -2.0404152569
 C    1.7535049345   -0.4176770785   -3.0826812168
 C    1.8270380221   -1.7667685294   -3.1948285558
 C    1.2544184170   -2.6040648002   -2.1746811314
 O    1.2089324137   -3.7933923888   -2.0787860287
 O    0.6453701175   -1.8488338029   -1.1108081621
 H    0.9535081280    1.8114589631    0.1031660703
 H   -0.5945501668    1.8004249466   -0.7745416061
 H   -0.5777647559    1.5454673037    1.0031824553
 H    2.1822490994    0.2245380190   -3.8467105177
 H    2.3046749423   -2.2588882324   -4.0303161467