19

 O   -0.1200741258    1.4799621274   -0.1678080749
 C    0.0387878406    0.0869881052    0.0791950048
 C   -1.3408625262   -0.5327408662   -0.0061419090
 C   -2.0453307986   -0.8247804413   -1.3685680641
 C   -1.0960611906   -2.0408437708   -1.5647057310
 C   -1.5347584942   -2.0924954728   -0.0601890418
 C   -2.9806558090   -1.7860933640   -0.5802371838
 C   -1.1451978646   -3.0494079773    0.9357294203
 C   -0.8105892074   -3.8441589025    1.7752295777
 H    0.7357578753    1.9031991007   -0.0533244899
 H    0.7397767013   -0.3614342186   -0.6379897546
 H    0.4446633186   -0.0960837515    1.0871147621
 H   -1.9889961876   -0.0390752790    0.7259952159
 H   -2.3402536570   -0.0929744561   -2.1184512915
 H   -1.4721798561   -2.8539346379   -2.1907164131
 H   -0.0437228815   -1.8468630505   -1.7728782295
 H   -3.6647790103   -1.3336227524    0.1419788607
 H   -3.4599906645   -2.5858754254   -1.1497384091
 H   -0.5199232625   -4.5483530568    2.5147855507