17

 O    0.4157268689    0.9436671692    0.8207776025
 C   -0.0625629229   -0.2223525020    0.2019369191
 C   -1.5046833948   -0.2184004530   -0.2808050627
 C   -1.8253726305    0.5453787130   -1.5580933984
 C   -1.4957727091   -0.9202325770   -1.6011690058
 O   -0.1837730909   -1.3099440904   -1.9513896554
 C    0.7413987035   -0.6504820065   -1.0886093010
 C    1.3810851503    0.4983248867   -1.7389413111
 C    1.9119851352    1.4474353135   -2.2537860323
 H    0.5106337770    1.6229454323    0.1411640556
 H    0.0500043076   -1.0109949174    0.9521233449
 H   -2.2839433596   -0.3753009790    0.4548931155
 H   -2.8632453381    0.8243778840   -1.7052398348
 H   -1.1075961454    1.2520381113   -1.9582956092
 H   -2.2243212627   -1.6593826433   -1.9107944052
 H    1.5186881425   -1.3786851182   -0.8345085031
 H    2.3925927291    2.2681883268   -2.7274963784