21

 C   -0.3609971140    1.4587713578    0.0462222142
 C    0.0925803178    0.0021107341    0.0753017998
 C    0.8590467036   -0.4521786059   -1.1739462051
 O    1.6332551300   -1.5833139862   -0.7785672005
 C    1.7472022649   -1.6402818631    0.6343965635
 C    1.2955177436   -2.9790603755    1.2728384654
 O    2.5718354538   -3.1362807079    1.9241439959
 C    3.1376741911   -2.0427658219    1.1730693806
 C    1.1166236106   -0.3505544388    1.1655222161
 H    0.4954682516    2.1336192232   -0.0644646195
 H   -1.0448335377    1.6463436727   -0.7884208577
 H   -0.8836553497    1.7299023148    0.9687881741
 H   -0.7843537549   -0.6478012702    0.1953757848
 H    0.2073301563   -0.7492464634   -2.0021195020
 H    1.5212721867    0.3517923023   -1.5334812932
 H    0.4648955153   -2.9484704281    1.9888420257
 H    1.1112129741   -3.7586619318    0.5224972321
 H    3.8161055327   -2.3851096863    0.3810836314
 H    3.6535143571   -1.3206155271    1.8175660256
 H    1.8785957036    0.4374353352    1.2274340992
 H    0.6826758335   -0.4716365039    2.1608815594