17

 C    0.0079433622    1.5000861214    0.1065932792
 C   -0.0422931136   -0.0054905746   -0.1006046250
 C    0.8092857953   -0.5015333133   -1.2651824483
 N    0.8737493558   -1.9573375920   -1.3224218253
 C    1.4136951100   -2.4871513144   -0.0752730503
 C    0.9682029914   -1.8186404774    1.2271976949
 O    1.1882677976   -2.3045928261    2.3033165706
 O    0.3653395541   -0.6088620154    1.1537697355
 H    1.0378529550    1.8312116641    0.2714589559
 H   -0.3893352674    2.0181328481   -0.7717545541
 H   -0.5873952874    1.7849741457    0.9773564079
 H   -1.0829952048   -0.3188869904   -0.2709754427
 H    0.4010110483   -0.1133825922   -2.2040160434
 H    1.8321416032   -0.1133358249   -1.1678897613
 H   -0.0589557451   -2.3291636604   -1.4755673961
 H    1.1934152910   -3.5530695423    0.0144235783
 H    2.5094701844   -2.4012463760   -0.0909970357