16

 C   -0.0486080435    1.5085481999   -0.0215957069
 C    0.0551007608   -0.0037415904    0.0772801121
 O    0.9087246763   -0.5314833430   -0.9909298037
 C    1.9184831034   -1.2536790358   -0.2743150480
 C    1.1089858938   -2.0130669590    0.8149854880
 C    0.7885510384   -0.5598715641    1.3141620693
 C    2.2513233170   -0.2805618182    0.8825578524
 O    3.2024801615    0.2794160530    1.3333019881
 H    0.9285353858    1.9831481143    0.1078583233
 H   -0.4408668810    1.7921024492   -1.0022403438
 H   -0.7282865316    1.8967830659    0.7443721266
 H   -0.9392435764   -0.4563974424   -0.0293094014
 H    2.6363443781   -1.7042264249   -0.9543120276
 H    0.2636868624   -2.5957973965    0.4439845244
 H    1.7239647774   -2.5895148135    1.5084009693
 H    0.3967026576   -0.3266499144    2.3009601980