17

 N   -0.2689843422    1.3263493454    0.3782590455
 C   -0.0051925168   -0.0741747821   -0.0187364114
 C    0.7734786401   -0.8075638177    1.0554249591
 C   -0.0106114852   -1.5951010211    1.7879517853
 C   -1.4444405290   -1.5678368939    1.3389846875
 C   -1.3834086848   -0.8578288153   -0.0416012210
 O   -2.4676771604   -0.0244143211   -0.3316733465
 C    0.6777616984   -0.1360799696   -1.3216452606
 N    1.2122506163   -0.1607392471   -2.3471556554
 H    0.5041692860    1.6889055864    0.9261054723
 H   -0.3595346304    1.9163588714   -0.4436561347
 H    1.8375201888   -0.6507062647    1.1885266951
 H    0.3326104472   -2.1869349497    2.6295592784
 H   -1.8914157798   -2.5644631458    1.2639944419
 H   -2.0717995470   -0.9957847607    2.0344362712
 H   -1.3428564695   -1.6094116943   -0.8342671352
 H   -2.3402986216    0.7633112099    0.2185240587