19

 O    0.0067597254    1.4358491819    0.0485289580
 C    0.0376803139    0.0220112372    0.0121301540
 C    0.7748776801   -0.6502766878    1.2008286912
 C    0.0895060509   -1.9977031432    1.3806747598
 C   -1.2318259181   -1.9984652349    2.1231884499
 C   -1.2391798533   -1.9749246891    0.6313785310
 O   -1.7685227999   -3.1009611275    0.0007603561
 C   -1.3869507282   -0.6135060101   -0.0412809857
 O   -2.3271079292    0.2020521118    0.6478352112
 H   -0.3639362891    1.6781572248    0.9052846743
 H    0.5589033731   -0.2324012069   -0.9171521140
 H    1.8439638664   -0.7484248376    0.9960137170
 H    0.6834332855   -0.0251924387    2.0988304239
 H    0.6798556233   -2.9064338979    1.4021476120
 H   -1.5396209444   -2.9385996324    2.5665799582
 H   -1.5393648798   -1.1072643885    2.6586486314
 H   -1.2706503866   -3.2571830288   -0.8092192751
 H   -1.7128826200   -0.7611339038   -1.0804821924
 H   -2.3405959603    1.0459695115    0.1802027191