21

 C    0.0376991771    1.5179605907   -0.1430583719
 C    1.3509428037    0.8002466209    0.0103050933
 C    1.9376067501    0.6376337001    1.4323271462
 C    0.8168939910   -0.0826269756    2.1739005784
 C    0.5654894167   -1.2671403469    3.1603082347
 C   -0.8224267473   -0.9584597947    2.4849581487
 C   -0.5170800878    0.5314844613    2.7446646559
 C   -0.0108060498   -0.8599759914    1.1376250458
 C    0.0286091752    0.0033220543   -0.1108693629
 H   -0.3382411198    2.1237081950    0.6690313364
 H   -0.1644946261    1.9486416124   -1.1193008264
 H    2.0523970490    0.8372258243   -0.8165670898
 H    2.8391984258    0.0156973062    1.3875592927
 H    2.2199686463    1.5955760139    1.8821899863
 H    1.0391803141   -2.2203011283    2.9082739628
 H    0.6308539463   -1.0539718464    4.2307577472
 H   -1.7602726514   -1.4821235598    2.6755038578
 H   -0.4823082838    0.8418304463    3.7934791332
 H   -1.0719666790    1.2502607173    2.1487952470
 H    0.4218178566   -1.8305627192    0.8612123519
 H   -0.2029247668   -0.4812628903   -1.0538889673