17

 C    0.1462471227    1.4325050358    0.0429109641
 O    0.0060883775    0.0171662216    0.0076110747
 C    0.5559709062   -0.6000522165   -1.0597739447
 C    0.5941510834   -1.9636381087   -1.2430478181
 C    0.0948126629   -3.1158368579   -0.4529773902
 O    1.0643467900   -4.1638682195   -0.5407656551
 N    1.2133816990   -2.1156919532   -2.4724915286
 C    1.5281354830   -0.8824583116   -2.9339919584
 N    1.1288871733    0.0651467832   -2.1051503656
 H    1.2007663557    1.7284091840    0.0459212726
 H   -0.3407486725    1.9018378193   -0.8179880646
 H   -0.3348434677    1.7563291318    0.9675733198
 H   -0.0673925556   -2.7844658419    0.5822966901
 H   -0.8757817049   -3.4759438861   -0.8356346733
 H    0.6807871010   -4.9535914338   -0.1468887253
 H    1.4890253252   -3.0048058609   -2.8554627906
 H    2.0490754606   -0.7233344657   -3.8656021267