20

 C    0.0341247400    1.5218394619    0.0181505123
 C    0.0295105116   -0.0098005750    0.1228543498
 C    0.6658916579   -0.4506869308    1.4506355213
 C   -1.3916503706   -0.5962376394   -0.0297165084
 C   -2.1678923103   -0.0853606882   -1.2677691451
 C   -1.3618087212   -2.1125078310   -0.1299384811
 O   -0.4206403838   -2.7821702283   -0.4723394298
 C   -2.6517824462   -2.7769756846    0.1886425203
 N   -3.6571969484   -3.2845597934    0.4513789654
 H    1.0432525353    1.9057702231    0.1963793231
 H   -0.2812382582    1.8765678408   -0.9663730496
 H   -0.6259589719    1.9737936817    0.7686034870
 H    0.6347888654   -0.4167095386   -0.6962299563
 H    0.0938416546   -0.0682959297    2.3047087732
 H    0.7230058781   -1.5383677913    1.5357912780
 H    1.6839989280   -0.0589075436    1.5352315633
 H   -1.9880386300   -0.3465679340    0.8595203690
 H   -1.5848237222   -0.2425918378   -2.1806725335
 H   -3.1243138749   -0.6050540980   -1.3792431088
 H   -2.3815270532    0.9803168263   -1.1699891100