16

 C   -0.1485129968    1.4294364790    0.0159006492
 N   -0.0232934321   -0.0115016851   -0.0027271967
 C    0.0911240986   -0.8527206165   -1.0496711984
 N    0.1805832298   -2.1016627625   -0.6350389727
 C    0.1170905235   -1.9704305747    0.7198820460
 C    0.1751372821   -3.1358128836    1.6682386559
 C    1.4912223892   -3.7681996187    1.7255571326
 C    2.5724448020   -4.2881298586    1.7806078781
 N   -0.0092322628   -0.7231617457    1.1507824600
 H    0.6853736207    1.8731376810    0.5653871302
 H   -0.1398389310    1.7952087943   -1.0123985793
 H   -1.0858136380    1.7206285354    0.4964624026
 H    0.1011300711   -0.5131525638   -2.0750012201
 H   -0.1119193790   -2.7801815594    2.6631773160
 H   -0.5709136968   -3.8786515289    1.3606866171
 H    3.5282366394   -4.7480821421    1.8228650696