16

 C    0.0159032026    1.5698143298    0.0227929610
 C    0.0319424362    0.0308784818    0.0246495094
 C    0.7306695807   -0.4890113679    1.1954778216
 C    1.2880453415   -0.8956292332    2.1789553770
 C   -1.4313089581   -0.5475218739   -0.0283334783
 C   -2.1759683739   -0.0676316462   -1.1930032796
 C   -2.7755270031    0.3324915379   -2.1528209589
 C   -1.4172466591   -2.0193415032   -0.0098393701
 N   -1.4074856782   -3.1738962844   -0.0022015527
 H    1.0397545951    1.9495711467    0.0394269069
 H   -0.4870570904    1.9474029383   -0.8699020859
 H   -0.5009890015    1.9518417675    0.9082882501
 H    0.5410393555   -0.3198551636   -0.8808105615
 H    1.7904597526   -1.2730459571    3.0354268933
 H   -1.9407008489   -0.2164911103    0.8866088827
 H   -3.3147094411    0.6783693479   -3.0005432649