16

 O   -0.6846723321    0.8275983221    0.5717338134
 C    0.1808162359    1.0045269075   -0.2481809542
 C    1.3236004881    1.9744313925   -0.1173468488
 C    1.1434849956    3.4708230483   -0.5867485423
 C    0.2708666646    3.7129647731    0.6783605529
 C    1.4907230989    2.8573561494    1.1608193326
 C    2.3857360952    3.7986368413    0.2888056201
 C    1.7689153543    2.3946731010    2.4969669068
 N    2.0103019245    2.0339405040    3.5685207799
 H    0.1912484331    0.4288813822   -1.2022176027
 H    2.2437924247    1.5084721025   -0.4881472962
 H    0.9467717624    3.8041082657   -1.6039398300
 H    0.2460606626    4.7394618054    1.0493045995
 H   -0.7034740839    3.2332119565    0.7317557090
 H    3.3472899019    3.3931118837   -0.0333606522
 H    2.4722125143    4.8275749848    0.6430676723