18

 O    0.0399025296    1.3977796684   -0.4431933631
 C   -0.0651964647    0.0974636669    0.1017200987
 C   -1.5100987757   -0.3636766088    0.1870079704
 O   -2.0076140810   -0.3838415440   -1.1566438059
 C   -3.3653396596   -0.6577787104   -1.2722591248
 C   -4.3615326075    0.4657763123   -1.0344010570
 C   -4.0695894341   -0.0048606469   -2.4338104421
 C   -3.7487666668   -2.0048471896   -0.8964885031
 N   -4.0374426847   -3.0792179261   -0.5799839286
 H   -0.3981830600    1.3663254085   -1.3008086467
 H    0.5126735995   -0.6355716034   -0.4819880332
 H    0.3609596475    0.1357300812    1.1091681336
 H   -1.5799712548   -1.3644342637    0.6349718279
 H   -2.1007999225    0.3387387757    0.7903763560
 H   -5.3169150849    0.2193366495   -0.5870645277
 H   -3.9273044942    1.4073651074   -0.7184527185
 H   -3.4376435685    0.6163259856   -3.0574681069
 H   -4.8197141076   -0.5819763326   -2.9603858590