22

 C   -0.2572561177    1.5010661307   -0.0127649357
 C   -0.1453426061   -0.0166407938   -0.1699078822
 C    0.9560951511   -0.4426266824   -1.1481532986
 O    2.2404167499    0.0394247853   -0.7545203931
 C    0.9741022215   -1.9483622265   -1.3331802848
 N    0.1061264576   -2.5086148279   -2.3843913789
 C    1.5752018690   -2.6446945210   -2.4993794963
 C    2.1930284940   -1.9575458680   -3.6942540926
 O    1.8597522471   -2.6386513460   -4.8938862713
 H    0.7012382972    1.9278922153    0.2940679306
 H   -0.5426938452    1.9729220632   -0.9592871307
 H   -1.0105763205    1.7682347073    0.7342569011
 H    0.0559601010   -0.4814396832    0.8075319916
 H   -1.0954058801   -0.4379802190   -0.5202944508
 H    0.7642268616    0.0273408667   -2.1174503606
 H    2.4507680224   -0.3488441075    0.1022616236
 H    1.0174047778   -2.4979819295   -0.3901414527
 H   -0.3118091286   -3.3816469984   -2.0756656425
 H    1.9854020914   -3.6350112969   -2.3062039980
 H    1.8855659254   -0.9046602623   -3.7366080745
 H    3.2847063978   -1.9797877493   -3.6173898109
 H    0.8961308835   -2.6596477868   -4.9269810028