18

 C   -0.0082818540    1.5272197663   -0.0033172997
 C    0.0366296046    0.0320725308    0.0350291712
 C    0.1448601339   -0.8218690306   -1.0306786315
 O    0.1406155627   -2.1371689039   -0.6516060191
 C    0.0605427486   -2.1105880570    0.7033901318
 C   -0.0235969477   -0.8448686880    1.1687781634
 N   -0.3017479049   -0.8047443357    2.5526314113
 C   -0.0331736543   -2.2060433513    3.0118557414
 C   -0.1917495532   -3.1330815834    1.7576766786
 H    0.8351286944    1.9744409811    0.5365319182
 H    0.0258461656    1.8959802811   -1.0322604106
 H   -0.9245895267    1.9113644905    0.4596862862
 H    0.2558199728   -0.6433639044   -2.0883336337
 H    0.2510786458   -0.1325840756    3.0723284452
 H    0.9949569839   -2.2958413215    3.3876699134
 H   -0.7167656976   -2.4777541609    3.8198071521
 H   -1.2050917090   -3.5548901802    1.6964462025
 H    0.5100033250   -3.9725146073    1.7887697194