19

 C    0.0964266766    1.6336646165   -0.0850526627
 C   -0.0946844387    0.1159900559   -0.0487342243
 C    0.7384268379   -0.6070625597   -1.1069590735
 C    0.5868313091   -2.1267951481   -1.0429174048
 O   -0.0135136569   -2.7012403373   -0.1714169942
 N    1.2155294050   -2.7733474752   -2.1134304978
 C    1.4250089526   -4.1594872659   -2.2599440448
 N    1.9087856256   -4.4648378229   -3.5266464872
 O    1.2692085111   -4.9767243111   -1.3902348854
 H    1.1424272238    1.9093861006    0.0910838509
 H   -0.1959677811    2.0530154168   -1.0546701034
 H   -0.5089792888    2.1236591492    0.6832286325
 H    0.1705905234   -0.2788827506    0.9367380496
 H   -1.1506686700   -0.1360129290   -0.1935273438
 H    0.4696176176   -0.2610450726   -2.1150944361
 H    1.8048987670   -0.3685318377   -0.9851675917
 H    1.6573638497   -2.1790114648   -2.7981324851
 H    1.5695173238   -3.9244928360   -4.3085606907
 H    1.9400703126   -5.4593678981   -3.6961555877