18

 C   -0.0346778860    1.4694618862    0.1894425614
 C    1.5001893170    1.4955415161   -0.1208556031
 C    1.2547181840    0.1340959236   -0.7849037614
 C    0.4080029189    0.1403986059   -2.1034411786
 C   -0.4563485473   -0.7864520793   -1.2310957985
 C    0.5169933610   -1.9955792098   -1.0138500390
 O    1.6337649264   -2.0742289815   -1.9172581487
 C    1.7831423636   -1.3100869804   -0.7130279162
 N   -0.0208526612   -0.0353791867    0.0261133844
 H   -0.3365467856    1.7525528599    1.1998121443
 H   -0.6347895778    2.0391833546   -0.5270175446
 H    1.8815814345    2.2981822804   -0.7545347207
 H    2.1019576577    1.4253369470    0.7886135003
 H   -0.0552254097    1.1065232326   -2.2923737209
 H    0.8497746548   -0.2602987206   -3.0134425121
 H   -1.5105046261   -1.0099163606   -1.4011752082
 H    0.1883034189   -2.9270150643   -0.5679685014
 H    2.5214534570   -1.6484997232    0.0047192132