21

 C   -0.0885190628    1.6700075821   -0.1382951934
 C    0.0369829461    0.1727132293   -0.0256037834
 O    1.3216311761   -0.4109123992   -0.2702209332
 C    0.7578924503   -0.5479595224    1.0412298098
 C    1.4946748395    0.1366034380    2.1451320088
 O    0.9275884171    0.0194000747    3.4572287509
 C    2.2231034626   -0.5641522012    3.2241809047
 C    2.2880556672   -2.0732111582    3.3153948153
 C    3.3646733661    0.1627228261    3.9045149485
 H    0.7468909940    2.1898343184    0.3340910950
 H   -0.1158216939    1.9646670589   -1.1925004454
 H   -1.0196242706    2.0079100355    0.3288592554
 H   -0.7803609695   -0.3796281945   -0.4951049818
 H    0.4074959659   -1.5517331084    1.2780653594
 H    1.8468657505    1.1371293746    1.8938739610
 H    1.4039337024   -2.5489237275    2.8892890863
 H    3.1742368572   -2.4530314875    2.7961568696
 H    2.3592828648   -2.3790149841    4.3648696035
 H    3.4032541664   -0.0983260279    4.9677477207
 H    4.3241832748   -0.1149809988    3.4554476905
 H    3.2415417357    1.2453733422    3.8231705879