18

 C   -0.0155424080    1.5111352924    0.0280245369
 C   -0.1564942961    0.0020351779    0.1094041939
 O    0.7924286225   -0.4786667668    1.0556028297
 C    0.8050346553   -1.8790602732    1.2106325646
 C    2.0771245812   -2.2171330386    2.0186040743
 C    3.2946896429   -1.8573939026    1.2960133621
 N    4.2602380563   -1.5938318802    0.7194952352
 C   -0.3877183523   -2.3872673112    1.9022374585
 C   -1.3575014888   -2.7991551289    2.4800290126
 H    0.9962227963    1.7865931085   -0.2815014946
 H   -0.7256983413    1.9165032741   -0.6986175336
 H   -0.2152066947    1.9686199496    1.0009411517
 H   -1.1718953069   -0.2826139793    0.4204938307
 H    0.0338236225   -0.4626965052   -0.8712482443
 H    0.8756416298   -2.3677469524    0.2248582756
 H    2.0403062436   -1.6718786532    2.9664446572
 H    2.0935927385   -3.2865047499    2.2479747502
 H   -2.2197737209   -3.1633182909    2.9829310492