23

 C   -0.0168192160    1.5552591946   -0.3004826890
 C   -0.0166563267    0.0670450602    0.0726607626
 C   -1.4154279984   -0.5480859641    0.1481008006
 C   -2.2849265732    0.1012635473    1.2228292776
 O   -2.0797858401   -0.4743078867   -1.1521025089
 C   -2.4558677051   -1.8609459248   -1.1057103372
 C   -1.5396944678   -2.1155179301    0.1162849959
 C   -0.2829249131   -2.9167650099   -0.1992580106
 O   -2.1675500284   -2.6164985096    1.2805698371
 H    1.0058098514    1.9076450090   -0.4656479748
 H   -0.5847648306    1.7156846802   -1.2212800178
 H   -0.4564602642    2.1784909539    0.4832551624
 H    0.5678764436   -0.4754232317   -0.6758540602
 H    0.4856118775   -0.0815183745    1.0372613423
 H   -2.4249987363    1.1610744049    0.9959387077
 H   -3.2655091421   -0.3736695914    1.2733765059
 H   -1.8188377387    0.0109098700    2.2087056008
 H   -3.5205597635   -2.0010354892   -0.8769065010
 H   -2.2095314760   -2.3863370151   -2.0366934684
 H    0.2035884172   -2.5741101489   -1.1152923573
 H    0.4372077947   -2.8633108947    0.6226949743
 H   -0.5497210777   -3.9708838716   -0.3523807506
 H   -2.1119086967   -3.5771549077    1.2654493084