18

 C    0.0084892631    1.4101297580    0.0784056662
 N   -0.0104675286   -0.0345185360    0.0126901780
 C   -0.1673206006   -0.8209681019   -1.1038970799
 N   -0.1524436190   -2.0964136540   -0.8138745863
 C    0.0277262233   -2.1669147167    0.5534321403
 C    0.0634941793   -3.4605575336    1.3037884945
 O    0.9510144580   -3.4108808655    2.4299062325
 C    0.1236571602   -0.8963615364    1.0795679351
 N    0.2184990506   -0.4311881412    2.3971740195
 H    1.0220815102    1.7992118289    0.2345622103
 H   -0.3736641042    1.8144514306   -0.8606952641
 H   -0.6282822270    1.7549990498    0.8981131125
 H   -0.2721276215   -0.3869508525   -2.0874163576
 H   -0.9120446706   -3.7131650749    1.7372668814
 H    0.3285622954   -4.2709199913    0.6114096323
 H    1.8282847949   -3.2198397130    2.0799060081
 H    0.3823812730   -1.2259590839    3.0079533133
 H    0.9730182035    0.2355251135    2.5288888040