18

 C   -0.0285810056    1.4758738879    0.0143399640
 C    0.0690103071   -0.0462775732   -0.1201934324
 C    0.8572351816   -0.5238141321   -1.3390941917
 C    0.7131338815   -2.0661308969   -1.6007523239
 N   -0.0806913300   -2.1718792940   -2.8310472247
 C   -0.2241109621   -0.9893903372   -3.2556832141
 O    0.3043077404    0.0493289550   -2.5588864344
 C    2.3283236693   -0.1402446691   -1.2918898552
 O    2.9563676459    0.0052381864   -0.2764207162
 H    0.9591682144    1.9251620829    0.1490958971
 H   -0.4903742800    1.9183801176   -0.8723100721
 H   -0.6373331965    1.7420471551    0.8830080719
 H    0.5607559255   -0.4722006511    0.7612119353
 H   -0.9333766719   -0.4866233418   -0.1757447890
 H    1.6773685888   -2.5677716865   -1.7431809540
 H    0.2088499044   -2.5597468416   -0.7646181780
 H   -0.7470115460   -0.7013829999   -4.1607012196
 H    2.7937848035   -0.0429982114   -2.2980050130