16

 O    0.0593518742   -0.0121888415    0.0704111076
 C    0.0137735814    1.1958743262    0.0809011964
 N   -1.1735893593    1.9612250144    0.0903435328
 C   -0.8528393031    3.3339990149   -0.1972883720
 C   -1.0123009806    4.6169098679    0.6727858326
 C   -0.2335012554    4.5742706709    1.9503231966
 C    0.5286767794    4.7778169368    0.6505388618
 C    0.6227779206    3.3991473200    0.0549173417
 C    1.1502330001    2.1796704747    0.1771348650
 H   -2.0075897491    1.5099668578   -0.2554148481
 H   -1.1008888258    3.6130198494   -1.2310133321
 H   -1.7652035217    5.3734137125    0.4879999413
 H   -0.3279235408    5.4589694837    2.5730949041
 H   -0.1138023869    3.6465014743    2.5005269848
 H    1.1370906759    5.6507918116    0.4582987060
 H    2.1501662609    1.8662290263    0.4412704115