29

 C    0.7573324083   -0.1462557186   -1.3106339685
 C    0.0970661004    0.0463877143    0.0623934822
 C    0.0385963496    1.5383999547    0.4206458299
 C   -1.3155358407   -0.5704838649    0.1229839941
 C   -1.4013794398   -2.1127960266    0.0626666540
 C   -0.9111133384   -2.7151301195    1.3903098749
 C   -2.8363064660   -2.5828763817   -0.3079802333
 C   -3.1990929578   -2.2313351608   -1.7605006990
 C   -3.0502141636   -4.0906326294   -0.0962508598
 H    1.7589625204    0.2963041818   -1.3288002239
 H    0.8600914165   -1.2022771160   -1.5771463438
 H    0.1667416062    0.3392708709   -2.0973050778
 H    0.7299629662   -0.4468552259    0.8124109432
 H   -0.3778093255    1.6930923598    1.4216520059
 H    1.0347797997    1.9928614238    0.3967276392
 H   -0.5922023605    2.0870187988   -0.2895539767
 H   -1.8031919680   -0.2441008666    1.0526580898
 H   -1.9012869573   -0.1265768330   -0.6906041360
 H   -0.7355331317   -2.4732376429   -0.7348761283
 H   -0.7982635373   -3.8005355310    1.3351001894
 H    0.0615056660   -2.3043430034    1.6764191800
 H   -1.6130779899   -2.4912290707    2.2032789028
 H   -3.5351975412   -2.0517662385    0.3563908939
 H   -4.2285100305   -2.5296490283   -1.9848416542
 H   -3.1156077537   -1.1630077164   -1.9749919905
 H   -2.5429397309   -2.7627165625   -2.4607533933
 H   -2.9566785814   -4.3837750539    0.9520872392
 H   -4.0501526504   -4.3849986007   -0.4318687717
 H   -2.3249939386   -4.6762209029   -0.6750052817