18

 C   -0.1322947305    1.4729323662    0.1114427544
 C    0.0342728183    0.0050488144   -0.0664142831
 N   -0.0656322336   -0.6464780739   -1.1679917163
 C   -0.0055819327   -2.0561145787   -0.7426059931
 C    1.1254088529   -3.1554402167   -0.7456561387
 C    2.0848460152   -2.1085376522   -0.1407325280
 C    0.7136755134   -1.9323199626    0.5765533132
 C    0.6387470807   -3.4687801012    0.7418251574
 O    0.3272602655   -0.6819790121    1.1201075129
 H    0.7881895752    1.9173299041    0.5027188966
 H   -0.3868737992    1.9304651027   -0.8439942934
 H   -0.9246768044    1.6741238936    0.8395609137
 H   -1.0170418975   -2.4779803568   -0.7485681210
 H    1.3509782349   -3.9076387747   -1.4993302740
 H    2.9080141876   -2.4898015802    0.4672540742
 H    2.3991724519   -1.2989674172   -0.7990560589
 H   -0.3550731567   -3.9086085372    0.8492323951
 H    1.3779253189   -3.9482734773    1.3867352290