16

 N   -0.2174314175   -1.1473723719   -0.3098031351
 C   -0.1387613763   -0.0113384717   -0.1161132957
 C   -0.0293158970    1.4284581482    0.1397487959
 C    1.3849598526    1.9276376829    0.0987601730
 C    1.9811335775    3.3310038446   -0.0040017944
 C    2.8607432526    3.1017113229    1.2251288581
 C    2.7230882944    1.5963025723    0.8806918742
 O    3.4436562013    1.4630099713   -0.3750939902
 C    2.3826310780    2.1982536968   -0.9736372807
 H   -0.6282090916    1.9616539067   -0.6085963440
 H   -0.4916526597    1.6412915763    1.1120562297
 H    1.4955654093    4.2385107126   -0.3404617488
 H    3.8786559850    3.5017846364    1.2341344867
 H    2.3353374680    3.3588262226    2.1483127518
 H    2.9201218471    0.7914310792    1.5849740224
 H    2.3069902463    2.2434775807   -2.0519867730