14

 C   -0.0596841446    1.5088905482   -0.0352318688
 C    0.0168254999    0.0096482120    0.0315351423
 N    0.1490662409   -0.6388559989   -1.1445334526
 C    0.2161698535   -1.9608566786   -1.0798060321
 N    0.1679054387   -2.7247771223    0.0161205300
 C    0.0375327834   -2.0693658366    1.1648100991
 O   -0.0157657938   -2.7915988191    2.2940679242
 C   -0.0445433227   -0.6768527550    1.2349604822
 H    0.8411178686    1.9082913155   -0.5117499917
 H   -0.9079563076    1.8126401715   -0.6566660826
 H   -0.1661793180    1.9564590234    0.9552891547
 H    0.3228205490   -2.4910731102   -2.0236752217
 H    0.0571946569   -3.7188768312    2.0246032146
 H   -0.1504562940   -0.1746784889    2.1879681424