15

 O    0.0694480852    0.1237905834    0.6694871923
 C   -0.0062594602    1.2585659348    0.2684176393
 C   -1.3406859528    1.9008091659   -0.1106214451
 O   -1.2983541014    3.3063878786   -0.2820530106
 C   -0.2201828851    3.8011124815   -1.0173705985
 C    1.0557647988    4.1606788258   -0.3157606932
 O    1.2284613199    3.3247257435    0.8284631864
 C    1.2074443610    2.1359525746   -0.0097192285
 C    1.0205879608    2.9788927548   -1.2768126304
 H   -1.6882922324    1.3928717804   -1.0258563517
 H   -2.0749104975    1.7006375317    0.6733414498
 H   -0.5191832386    4.4605318762   -1.8288616686
 H    1.5561715485    5.1213946316   -0.3266900981
 H    2.1361619671    1.5690657060    0.0801322646
 H    1.4592954069    2.7969027711   -2.2482709276