16

 C   -0.0212715783    1.5172570713    0.3215194509
 C   -0.0233339362    0.0463037351    0.0382665683
 C   -1.1610834553   -0.6547940820   -0.1743854380
 C   -1.2420781569   -2.0545355545   -0.5307813239
 N   -0.4323883063   -3.0236658002   -0.2580041850
 C    0.6999123934   -2.8120788989    0.5086281997
 N    1.4929617434   -1.8097532518    0.5871516146
 C    1.3064098768   -0.6095222444   -0.1082570374
 N    2.2310812593   -0.0021468790   -0.7410839967
 H    0.5870514227    2.0306122749   -0.4286836101
 H   -1.0317565058    1.9314890329    0.3309039350
 H    0.4516012106    1.7149795417    1.2908905052
 H   -2.1060914951   -0.1164274445   -0.1800426348
 H   -2.1408486438   -2.3414159658   -1.0830548515
 H    0.9650958921   -3.6869874303    1.1045975676
 H    3.0832152494   -0.5680881146   -0.7242419240