18

 C   -0.0257389792    1.5416850896    0.0144651822
 C    0.0436810431    0.0193575495    0.0571736022
 C    0.5639150573   -0.5306506696    1.3762456451
 O   -1.2926599540   -0.5348004435   -0.1082927723
 C   -1.7380845703   -0.6511586726   -1.3777512940
 O   -1.1393590083   -0.3504416153   -2.3722675487
 N   -3.0259807794   -1.1924119204   -1.3199608451
 C   -3.8675995766   -1.4787755769   -2.3867541777
 O   -3.6339421478   -1.3110383648   -3.5509193851
 H    0.9737606905    1.9644650069    0.1555389579
 H   -0.4065816634    1.8814143489   -0.9510241889
 H   -0.6751701904    1.9213129815    0.8098352480
 H    0.6478316727   -0.3433329944   -0.7788352879
 H   -0.0610280991   -0.1971907818    2.2106053201
 H    0.5740885361   -1.6237692249    1.3660288574
 H    1.5844787354   -0.1775973018    1.5497500877
 H   -3.3709534244   -1.3896446736   -0.3922047730
 H   -4.8214057322   -1.8988736469   -2.0076860579