16

 O    0.1357074374    0.0761984541    0.4989294108
 C    0.0662255485    1.2330969626    0.1473777484
 N    1.0927599226    1.9120567825   -0.4775654437
 C    2.5545596099    1.6829357976   -0.1903075495
 C    2.8361066485    2.9483181948   -1.0489953508
 C    1.6219675760    3.2770325699   -0.1186975840
 C    2.4381390516    2.6154119084    1.0531109594
 C    0.7835290988    4.5074319098   -0.0734171042
 O   -0.4152278106    4.5113066924   -0.1948500856
 H   -0.8541859072    1.8412412691    0.2026999197
 H    2.9984240144    0.6936718929   -0.2616777403
 H    3.7648163755    3.4813923390   -0.8446033522
 H    2.6020327437    2.8737534136   -2.1106457865
 H    1.8456807007    2.2371986621    1.8868398643
 H    3.3435146361    3.1321232809    1.3800723661
 H    1.3602523342    5.4436663101    0.0968775579