17

 C    0.0027790365    1.4501926140   -0.1997672253
 O    1.2840683493    1.4899754370    0.5379234640
 C    1.2366111061    0.1334806163    0.7528101921
 N    1.9261199452   -0.6096209380    1.4942392941
 C    1.3669942876   -1.9774370761    1.5087257850
 C   -0.1892283584   -2.0466588727    1.5202713716
 C   -0.8655536608   -1.1948214061    0.4508240442
 N   -0.3382083772   -1.1430394382   -0.9190561895
 C   -0.0183741976   -0.0632750234   -0.0040294668
 H   -0.7535311460    2.0424307293    0.3201018432
 H    0.1289693251    1.7880005137   -1.2305593044
 H    1.7629712633   -2.5516789344    0.6590434509
 H    1.7382126517   -2.4830414980    2.4043270172
 H   -0.4949561745   -3.0951397387    1.4247821945
 H   -0.5505050752   -1.6995095965    2.4963341226
 H   -1.9458077054   -1.0912924494    0.5118002906
 H    0.4531760404   -1.7664357590   -1.0609866339