19

 C    0.7913901457    1.3432187812    0.1965530661
 C   -0.0514231104    0.0675886978    0.0066973725
 C    0.1458959624   -0.9048995422    1.1852420058
 O   -1.4383217868    0.4125983274   -0.1158939636
 C    0.3208873348   -0.5943020426   -1.2501732067
 C    0.6694058809   -1.1432701232   -2.2613065418
 C    1.0710975046   -1.8099406857   -3.5019167398
 C    2.2554573579   -2.6581495193   -3.3528053913
 C    3.2268307034   -3.3550973126   -3.2437588505
 H    1.8587231495    1.1090566879    0.2347128067
 H    0.6110045552    2.0352485423   -0.6288426647
 H    0.5150429302    1.8359699565    1.1362269658
 H   -0.1299459453   -0.4118202481    2.1250584237
 H   -0.4856167486   -1.7857635498    1.0517394141
 H    1.1881824152   -1.2264163117    1.2614160675
 H   -1.6933433430    0.8437821087    0.7076868073
 H    0.2354605684   -2.4177472033   -3.8756425688
 H    1.2608356146   -1.0583793752   -4.2807044503
 H    4.0855759511   -3.9713613980   -3.1432849320