18

 C    0.3745298221    1.3926639008    0.7928884571
 C   -0.0314195382    0.1359447852    0.0546484326
 C    0.5650789858   -0.2101021136   -1.2425122947
 O    0.9802006167   -0.8709432599   -0.0400047108
 C   -1.4051746165   -0.3937416413    0.4104307272
 C   -2.6324590404    0.4374721798   -0.0361312646
 C   -3.0576723975   -0.8574811114   -0.7547122368
 O   -1.8250758201   -1.5169775094   -0.3918822065
 H    1.3963120025    1.6724934740    0.5267126850
 H   -0.2901869458    2.2297518889    0.5545797822
 H    0.3380913477    1.2315768965    1.8761616513
 H    0.0061769044   -0.8353439555   -1.9338559308
 H    1.3037650467    0.4564463821   -1.6867991972
 H   -1.4131295069   -0.6575274443    1.4784793606
 H   -3.2909488683    0.7931421232    0.7569238589
 H   -2.3894991828    1.2660937762   -0.7043644190
 H   -3.9291125814   -1.3641532855   -0.3218006994
 H   -3.1863633078   -0.7969771359   -1.8413786052