20

 C   -0.1181532398    1.6072471583    0.0745459505
 C    0.0325804019    0.0871878610   -0.0461215905
 C    0.7406339395   -0.5402453700    1.1487054282
 C   -0.0388942863   -0.6301969492    2.4830834563
 O   -1.1619216464   -1.4920498709    2.2680506226
 C    0.1155062559   -2.0929376454    2.5414219404
 C    0.8776699571   -2.0902286901    1.2297886294
 C    0.9284239093   -3.1005621824    0.1562711404
 N    2.1000829181   -2.8575182576    1.0305419666
 H    0.8570605185    2.1007415896    0.1559463868
 H   -0.6300888366    2.0241502684   -0.7979409917
 H   -0.7020599080    1.8783552531    0.9606320000
 H   -0.9515895323   -0.3825343456   -0.1472203888
 H    0.5899062498   -0.1538550214   -0.9609717542
 H    1.7212766984   -0.0754669960    1.3171355423
 H   -0.1149281872    0.0997014916    3.2803050013
 H    0.1910892987   -2.7750270684    3.3796043342
 H    0.4512220026   -4.0678174095    0.2869212218
 H    0.9653108229   -2.7480978023   -0.8715748332
 H    2.7927665337   -2.2966918433    0.5391488776