18

 C   -0.0007836361    1.5333187368    0.0256598363
 C    0.0382055353    0.0188697621    0.0694202028
 C   -1.1901529423   -0.6707119925   -0.5019575087
 C    1.3270352811   -0.7442478494   -0.1789274116
 O    2.4658629065   -0.0194936192    0.2998282169
 C    1.9711034893   -0.0789424723    1.6637726710
 C    0.6832875546   -0.7556364796    1.2009242153
 O   -0.0330744952   -1.6786315483    1.9343889284
 H    0.9725894601    1.9649602341    0.2682061252
 H   -0.2698415470    1.8760302307   -0.9796755673
 H   -0.7461226160    1.9318309652    0.7229566566
 H   -1.3660732507   -0.3398310097   -1.5311239695
 H   -1.0853560282   -1.7587286871   -0.5017682860
 H   -2.0811870622   -0.4318278000    0.0881477211
 H    1.4815647859   -1.4790644487   -0.9615466243
 H    2.6035346165   -0.7389661913    2.2729595312
 H    1.9054857750    0.9066377272    2.1379483551
 H    0.5527754433   -2.4080806781    2.1673584975