13

 O   -0.1289062052    1.4892496846    0.1687650002
 C   -0.0125455901    0.1087707658    0.0073478598
 C   -1.3259705281   -0.6720988112   -0.0036039522
 O   -2.0258425295   -0.3106063607   -1.1804274602
 C   -1.0146779544   -1.3535951722   -1.3013559660
 C   -1.3509631456   -2.6295795446   -1.8154776458
 C   -1.5697715105   -3.7175532838   -2.2775893914
 C    0.2742590317   -0.5188940299   -1.4028454022
 O    1.1713420410   -0.4312970045   -2.1807978700
 H    0.6808941474    1.8985208821   -0.1560316417
 H    0.7045139174   -0.3470157954    0.7135374435
 H   -1.8911340962   -1.0736524245    0.8284019885
 H   -1.7745074478   -4.6778521656   -2.6833214925