15

 O    0.0825859426   -0.0132449270    0.0146516904
 C    0.0279080557    1.1700265019    0.0946093593
 C   -1.0412913686    2.2909934984    0.0558922400
 C   -0.8121797219    3.0518930032    1.3758550740
 C    0.7316935052    3.1003393038    1.3085636718
 C    1.6136596494    4.0881177626    1.9239181711
 O    1.5191359868    2.7465303265    2.4335917219
 C    0.9750474642    2.3943103341   -0.0237991848
 O   -0.0964774158    2.9596143996   -0.8506144504
 H   -2.0451998846    2.1691230138   -0.3440361820
 H   -1.2724045975    4.0421850794    1.3431258724
 H   -1.1608184744    2.5164664729    2.2628503004
 H    2.5621637244    4.3423713287    1.4531922274
 H    1.1892549376    4.8590421426    2.5656730450
 H    1.9643530469    2.3868255694   -0.4741411165