14

 O   -0.0101108192    1.3911212723   -0.0248175584
 C   -0.0436184545    0.0084043210   -0.0078484219
 C   -0.4498522060   -0.7482955630    1.1908846971
 O   -1.4020173594    0.0004455143    1.9384698934
 C   -2.3721471894   -0.0713415145    0.8419247464
 C   -1.3722808467   -0.7746285613   -0.0604910158
 C   -1.6668699682   -1.8397706933   -1.0180516229
 O   -2.7858014290   -2.1909783648   -1.3153776138
 H   -0.3203155631    1.6843969679    0.8431514859
 H    0.7384107819   -0.4401258505   -0.6152784756
 H    0.0953427290   -1.5374814019    1.6975535235
 H   -3.2178201920   -0.7027279062    1.1230330201
 H   -2.7156755143    0.9191622288    0.5298520446
 H   -0.7694093290   -2.3171173687   -1.4739114226