20

 C   -0.2591373224    1.4878488148   -0.1165886460
 C    0.0668860625    0.0217297150    0.0468721570
 N    1.4710540141   -0.4062403401   -0.1118421179
 C    0.8111380078   -0.5726187036    1.1936395176
 C    1.4346251274    0.2351576346    2.3248048870
 O    2.2224111700    1.2806654177    1.8334215223
 C    0.4455714738    0.6359719927    3.4439896010
 O    0.9345096284   -0.4134296964    4.3042770891
 C    2.0670101103   -0.6454718270    3.4422184042
 H   -0.2857988317    1.7560335237   -1.1781724160
 H   -1.2464325100    1.7029611425    0.3063015403
 H    0.4758927944    2.1173098886    0.3860496476
 H   -0.6731734191   -0.6454193113   -0.3947169151
 H    1.5529416427   -1.2826384795   -0.6167734438
 H    0.5089765904   -1.5757888256    1.4873618873
 H    2.4876443997    1.0046131613    0.9392343448
 H    0.6559966625    1.6369695419    3.8420799739
 H   -0.6257793032    0.5352046965    3.2353861746
 H    2.2212850130   -1.7123086726    3.2401744690
 H    2.9907376192   -0.2027616934    3.8361396431