18

 C   -0.0459026942    1.5123314867    0.0215095004
 C    0.0329482876    0.0134949628   -0.0143660689
 C    0.8536608101   -0.8066984538   -1.0187225621
 C   -0.1178480069   -2.0023331854   -0.7576703263
 O    0.3889454517   -2.8906408217    0.2275511841
 C    0.5432816336   -2.1226475827    1.4270935184
 C   -0.2708528239   -0.8533479565    1.2025298976
 C   -1.0854622789   -1.0255237328   -0.0475954882
 H    0.8990979730    1.9521141786    0.3627152962
 H   -0.2602071772    1.9209323812   -0.9728860980
 H   -0.8337702845    1.8552495001    0.7006654345
 H    0.7415844078   -0.4086941918   -2.0323701545
 H    1.9154786051   -0.9884417135   -0.8180487009
 H   -0.4528931340   -2.5878004552   -1.6124494116
 H    0.1596633679   -2.7094034242    2.2702145759
 H    1.6067992745   -1.9162822840    1.6116873834
 H   -0.7111255273   -0.3494415084    2.0554567699
 H   -2.1602021545   -0.9338132595   -0.1319892199