16

 O    0.4270311808    0.1577032541    0.6231945571
 C    0.3079608469    1.2923936205    0.2338519248
 N    1.2857999279    2.0168727674   -0.4253314338
 C    1.8885478554    3.2792908317   -0.0943681926
 C    1.8340103089    3.7191999490    1.3690889376
 C    2.3689368351    2.5203545890    2.1853613220
 C    3.1772956199    1.6695860223    1.1945681013
 O    4.0891375849    0.9349013078    1.4640858513
 C    2.7155485878    2.0079958856   -0.2049451484
 H   -0.6397788719    1.8616842126    0.2905206072
 H    1.9027208291    4.0281234149   -0.8810918524
 H    2.4867800864    4.5894130293    1.4920939984
 H    0.8280773911    4.0308109170    1.6651971723
 H    3.0119920409    2.8165380479    3.0156039801
 H    1.5692092594    1.9012154265    2.6044591622
 H    3.3507648974    1.7570292342   -1.0474129971