18

 C   -0.4137425737    1.4181796230    0.0273552361
 C   -0.0354355209   -0.0462839823    0.0866744968
 C    1.3079832817   -0.5889868015   -0.3118509913
 O    2.3733145436    0.3484098175   -0.4434800377
 C    2.6405182648    0.9086483299    0.7653312218
 N    3.3868748349    1.9022589841    0.9847333576
 C    1.8628452916    0.2084429467    1.8794601807
 O    1.2753578254    1.1432031601    2.7565399089
 C    0.8812615859   -0.6676000760    1.1327006764
 H    0.4122874423    2.0791043951    0.2899238284
 H   -0.7533027322    1.6814966247   -0.9799422343
 H   -1.2277976519    1.6255540140    0.7277498210
 H   -0.8483816172   -0.7157884707   -0.1870852486
 H    1.4355698223   -1.4351406317   -0.9746515943
 H    3.7821831753    2.2838644436    0.1252678865
 H    2.5656057232   -0.4420109243    2.4262577030
 H    1.9078533057    1.8734798514    2.8175135232
 H    0.5936522390   -1.6092973636    1.5826313458