21

 C   -0.3554860531    1.3031592704   -0.7924914508
 O   -0.3073833349   -0.0975339271   -0.9287887836
 C    0.8500705872   -0.6681185037   -0.3621193803
 C    0.8173147637   -2.1808191562   -0.5839373508
 C    0.7666067967   -2.5156017846   -2.0896910225
 C    0.5415608425   -3.9249080370   -2.3840226236
 C    0.3385599316   -5.0838855072   -2.6327535961
 O    1.9915019342   -2.6881497294    0.0234386893
 C    1.8254254594   -3.8861490930    0.7570740253
 H   -0.3538608112    1.6093223482    0.2652639962
 H    0.4966781472    1.7907691408   -1.2914486395
 H   -1.2824049939    1.6459201123   -1.2583838503
 H    1.7636991886   -0.2510097763   -0.8188004825
 H    0.9032116370   -0.4692021555    0.7196854610
 H   -0.0802342805   -2.5858919573   -0.0966584200
 H   -0.0271730278   -1.9095120696   -2.5403220313
 H    1.7144920304   -2.1884803960   -2.5355045276
 H    0.1626849996   -6.1062071205   -2.8586319656
 H    2.8008695758   -4.1314252226    1.1851446668
 H    1.1031435916   -3.7600367081    1.5780876716
 H    1.4947540559   -4.7149861875    0.1205127543