13

 C    0.0979889967    1.4958187739    0.0442742136
 C    0.0014729676    0.0071141812    0.0013775681
 C   -0.1555219904   -0.7047971821   -1.1276507563
 N   -0.2427223108   -2.0998048295   -1.1355293577
 N   -0.1840062234   -2.7856087275   -0.1233891782
 O   -0.0123729903   -2.0984130990    1.1674810698
 C    0.0816232929   -0.7347047721    1.2625369018
 N    0.2297084462   -0.1447337694    2.3778343643
 H    1.0427085255    1.7978940529    0.5070700609
 H    0.0248598797    1.9293596608   -0.9554048627
 H   -0.6927015973    1.9054044691    0.6806475168
 H   -0.2258313910   -0.2546732259   -2.1096575868
 H    0.2645438247   -0.8189212225    3.1438736465