14

 O    0.0919082238    1.4680202693    0.2051178007
 C   -0.0038854359    0.0790453933    0.0526151732
 C    0.1895189328   -0.7127273250    1.3626318521
 N   -1.1507790102   -1.3948744551    1.2368934102
 C   -2.1409933648   -0.3165315336    1.2570435407
 C   -1.4134403429   -0.5478157443   -0.0159688508
 C   -2.0261479923   -1.0543684315   -1.2038207325
 N   -2.4938375149   -1.4222318473   -2.1966218216
 H   -0.0102328941    1.8861431570   -0.6568288099
 H    0.6305623702   -0.2931912922   -0.7594091686
 H    0.9936777796   -1.4477169059    1.3255193326
 H    0.2836750631   -0.0988036987    2.2622451846
 H   -3.1635188428   -0.6751833816    1.3064214248
 H   -1.9326234715    0.5978208054    1.8076689244