21

 C   -0.5798835358    1.4024906144   -0.1262550067
 C   -0.0573332894   -0.0236155482   -0.0562925173
 C    1.2236602982   -0.4069968451   -0.8449064657
 O    2.0654656091    0.7292310017   -0.9667440012
 C    1.6215084400   -1.3432834997    0.3288214093
 C    0.6080075444   -0.5891621355    1.2464975898
 C    1.2368940531    0.4648565017    2.1716837960
 C    1.9527806859   -0.1642854658    3.3430308809
 O    1.7471365028    0.0997781813    4.5007399315
 H    0.2017020644    2.1308410911    0.0988797289
 H   -0.9575894192    1.6239733702   -1.1300430319
 H   -1.4048909321    1.5501457224    0.5789557645
 H   -0.8509143091   -0.7184953973   -0.3529111082
 H    1.0710218814   -0.8800634722   -1.8243966298
 H    2.9165290337    0.4329515899   -1.3052160665
 H    1.3298351977   -2.3818028573    0.1502609800
 H    2.6774311794   -1.3199787538    0.6138935506
 H   -0.0482931723   -1.2373564985    1.8352781731
 H    1.9676201463    1.0494091028    1.5972202089
 H    0.4828172353    1.1517442268    2.5670473483
 H    2.7168480461   -0.9283380089    3.0661552653