24

 C    0.2631760642    1.2075956520    0.0153687353
 C   -0.1537053798   -0.1883575362    0.4862804372
 C   -1.4689243743   -0.6678417516   -0.1375401606
 C   -1.8924374970   -2.0651523897    0.3296865178
 C   -3.2115996619   -2.5123918900   -0.3141551178
 N   -3.7611505019   -3.8152692251    0.0178801246
 C   -3.1733462670   -4.5795156823    0.8224985407
 O   -3.7067407833   -5.7882854925    1.1156977432
 C   -2.9638043360   -6.5744906756    2.0360349088
 H    1.2043799173    1.5214377826    0.4775397203
 H    0.4009962224    1.2342273296   -1.0713303252
 H   -0.4973090937    1.9545984264    0.2688792734
 H    0.6414993078   -0.9078793668    0.2499286827
 H   -0.2501226484   -0.1928605646    1.5801765049
 H   -2.2650314609    0.0519880943    0.0983943763
 H   -1.3731281009   -0.6632747928   -1.2322593272
 H   -1.0966059824   -2.7831171582    0.0885131153
 H   -1.9917011665   -2.0653388133    1.4238218272
 H   -3.9896889953   -1.7702981481   -0.0857907338
 H   -3.1036234178   -2.4809497950   -1.4076034064
 H   -2.2297197689   -4.3756766308    1.3454638787
 H   -3.5190386564   -7.5044056469    2.1657799106
 H   -1.9619565071   -6.8079706462    1.6536593132
 H   -2.8687100721   -6.0773615692    3.0098121109