22

 C   -0.0727791089    1.5694412959   -0.0157744179
 C    0.0205931774    0.0364053522    0.0017173019
 C    0.8146285066   -0.5392543856   -1.1712181293
 N    2.2290270151   -0.0929625687   -1.2176097566
 C    1.8800371859   -1.4307406591   -0.6436380813
 C    2.3685296685   -2.6875129150   -1.3146514693
 C    1.7461286401   -1.3551327741    0.8451125921
 C    0.7529363567   -0.5400055904    1.2147832251
 C    0.3621665152   -0.1784266433    2.6128585641
 H    0.9295138429    2.0046008870   -0.0415148858
 H   -0.6180007704    1.9127454710   -0.9011994115
 H   -0.6000115413    1.9503756201    0.8644735777
 H   -1.0022459045   -0.3706470219   -0.0236354100
 H    0.3098754527   -0.7455273246   -2.1102626546
 H    2.5661999429   -0.2297663087   -2.1705963993
 H    2.2800708919   -2.6147316389   -2.4038835783
 H    3.4213988207   -2.8796852302   -1.0764792034
 H    1.7907563941   -3.5587359315   -0.9873411197
 H    2.4063054244   -1.8846709935    1.5242944651
 H    0.9442454937   -0.7406511126    3.3481460688
 H    0.5158293215    0.8897716947    2.8096599922
 H   -0.7022879253   -0.3780348626    2.7934715702