18

 C    0.5381209970    1.7470533652   -0.0976387645
 C    0.1906785994    0.2886501146    0.1427189413
 C    0.2177987850   -0.6170081798   -1.1180640916
 C    1.0135694025   -1.8786277225   -0.6607957898
 C    1.0838490691   -1.6720438493    0.8750743090
 O    1.1495046710   -0.2734621241    1.0401941222
 C    0.4367213193   -3.1508045458   -1.0611110663
 C   -0.0509494909   -4.2045605411   -1.3737440315
 H    1.5245933170    1.8318926265   -0.5642957332
 H   -0.2009700434    2.2121893664   -0.7571058263
 H    0.5540767039    2.2991212529    0.8461615897
 H   -0.8066686892    0.2200078282    0.6079786529
 H   -0.7898170718   -0.8812777646   -1.4439494930
 H    0.7214037526   -0.1241679886   -1.9536252849
 H    2.0342344082   -1.8110137067   -1.0526187153
 H    0.1848318757   -2.0951290675    1.3511308548
 H    1.9689621658   -2.1194582251    1.3322647863
 H   -0.4747632012   -5.1366162987   -1.6546409797