14

 C   -0.2050688021    1.5383315614    0.0419893300
 C    0.1029567286    0.0807249670    0.0224984119
 O   -0.7481884902   -0.8542956101    0.6903825673
 C    0.6353801189   -0.8667453513    1.0028988938
 C    1.3768476272   -1.6649985221   -0.1549291525
 O    0.4033116486   -2.0718586813   -1.1163566807
 C    0.8306199796   -0.7188621987   -1.1433567795
 C    2.6360333478   -2.3246083364   -0.0725352149
 N    3.6659187970   -2.8371093830    0.0505344162
 H    0.6719890499    2.1222864139   -0.2549903998
 H   -1.0184914546    1.7703214580   -0.6539446476
 H   -0.5092677935    1.8486077202    1.0445972860
 H    0.9586794710   -0.7695310827    2.0315117314
 H    1.2732568718   -0.3289290751   -2.0520493417