21

 C   -0.0072149233    1.5359188077    0.0173057315
 C   -0.0381683214   -0.0066458428    0.0029527575
 C    0.6744672030   -0.5422944831   -1.2660077067
 C    0.6770531998   -2.0744589661   -1.3314977090
 C    1.0578922133   -2.6916309464   -0.0130215120
 C    1.0702001814   -2.0148989346    1.1338113204
 C    0.6972862554   -0.5608951197    1.2541561092
 C   -1.4364190276   -0.4519850366    0.0110878282
 C   -2.5894457227   -0.7942032242    0.0096404184
 H    1.0269975345    1.8931867584   -0.0309600743
 H   -0.5546319452    1.9443771849   -0.8368421720
 H   -0.4647880534    1.9271552101    0.9308499277
 H    0.2026133791   -0.1208306560   -2.1595476787
 H    1.7082678469   -0.1751608856   -1.2415553249
 H   -0.3157449028   -2.4372519021   -1.6321259782
 H    1.3671034562   -2.4095144885   -2.1159678501
 H    1.3225456978   -3.7463318590   -0.0185989203
 H    1.3634477078   -2.5152310125    2.0537705141
 H    1.6027153925    0.0410561423    1.4216219536
 H    0.0694591034   -0.4055987094    2.1394950426
 H   -3.6055192846   -1.1025605270    0.0147505230