19

 C    0.3195118061    1.0065096162   -0.3915668949
 O   -0.2474126139    0.2624581166    0.6890503070
 C   -1.2992958776   -0.5218038725    0.3515440657
 C   -1.3906205503   -1.8302655947   -0.0391833283
 C   -0.2850439382   -2.8094838968   -0.2566478208
 N   -2.7235468318   -2.1623545834   -0.2076758188
 C   -3.4226555444   -1.0857535531    0.0751048058
 C   -4.9102220649   -0.9760393049    0.0428071769
 N   -2.6006438938   -0.0461145735    0.4160250811
 H    1.1634923645    1.5626789253    0.0215478214
 H    0.6713170480    0.3388475048   -1.1863584166
 H   -0.4071112964    1.7116210895   -0.8154428754
 H   -0.4392862334   -3.7124919133    0.3436293906
 H   -0.2262966405   -3.1263917478   -1.3042492876
 H    0.6767556076   -2.3720033507    0.0252055083
 H   -5.3244481772   -0.7138305127    1.0237085085
 H   -5.2521255538   -0.2184526384   -0.6724141111
 H   -5.3201583628   -1.9416598423   -0.2561900465
 H   -2.8693423074    0.8696187218    0.7354138948