16

 O    0.1119730764    1.2822432856   -0.4800486020
 C    0.1145512988   -0.0202662624    0.0798864999
 C   -1.2850291440   -0.5309899973    0.0772363944
 C   -1.9028372436   -1.8833373701    0.1947738584
 C   -2.6042143343   -1.8813590029    1.5791537945
 N   -3.2122876660   -0.5016289741    1.6458996644
 C   -2.6013905935    0.0664156040    0.6934222732
 O   -3.2157432601    0.3071653247   -0.5442391356
 C   -2.2896206451   -0.7977307110   -0.9450976116
 H    0.9920461081    1.6567181245   -0.3767551593
 H    0.7485620791   -0.7124647543   -0.4990263241
 H    0.4981671782   -0.0157039711    1.1124688592
 H   -1.4022448533   -2.7739293946   -0.1819558709
 H   -3.4556234591   -2.5655241047    1.6391004322
 H   -1.9016401807   -2.1343161675    2.3876419422
 H   -2.2396349209   -0.9873911689   -2.0105928549