23

 C    0.3038894287   -0.3837200840    1.3154910104
 C   -0.1486612678    0.0310090148   -0.0930690110
 C   -0.3192947522    1.5548679417   -0.1780797461
 C    0.7674272738   -0.5004704279   -1.2277004848
 C    2.2503958734   -0.1404717975   -1.0563609837
 C    0.5920622596   -2.0330496519   -1.4150766271
 O   -0.7773292720   -2.4115215911   -1.5536706423
 C    1.3789261575   -2.5414753137   -2.5437464031
 C    1.9779308524   -2.9442983112   -3.5057539042
 H    0.4011861723   -1.4691734494    1.4179884259
 H    1.2659647028    0.0667111253    1.5821801386
 H   -0.4286590759   -0.0538396113    2.0592957163
 H   -1.1311406999   -0.4204453940   -0.2684110902
 H    0.6179216737    2.0847076967    0.0256912799
 H   -0.6684365916    1.8639605597   -1.1693578792
 H   -1.0535522452    1.9015977013    0.5566266098
 H    0.4157104495   -0.0409628556   -2.1632421488
 H    2.3791827884    0.9326036774   -0.8907254205
 H    2.6957144633   -0.6644078673   -0.2039217321
 H    2.8229518451   -0.4132437912   -1.9458825268
 H    0.9265157468   -2.5380433055   -0.5006584781
 H   -1.0545858570   -2.1643490585   -2.4430596141
 H    2.5178524542   -3.3158526469   -4.3415568987