14

 O   -0.1410816072   -0.0298864705    0.0232890111
 C   -0.0761618465    1.1598704027    0.0466620972
 C   -1.0460617626    2.3304757160    0.2447495258
 O    0.0694503222    3.2435401932    0.1902017049
 C    1.0464817391    2.2064785434   -0.0573039296
 C    2.1594610052    2.1244689348    0.9930595952
 C    3.0898495519    3.2424223527    0.9171197175
 C    3.8494811715    4.1692032722    0.8334759090
 H   -1.7641609169    2.4788708829   -0.5719902896
 H   -1.5768017329    2.3542042641    1.2045476059
 H    1.4790273330    2.2919029243   -1.0631831551
 H    1.7052147156    2.0761909434    1.9899329235
 H    2.6900075146    1.1758477966    0.8382660520
 H    4.5227308230    4.9877750641    0.7693563720