16

 C   -0.2798796348    1.4342715820   -0.0932782341
 N   -0.0457773459    0.0066388258   -0.0586486737
 C    0.3530495151   -0.8230299614   -1.0417130183
 N    0.4369705817   -2.0629793400   -0.5966109256
 C    0.0666433931   -1.9371415976    0.7113577916
 C    0.0327583885   -3.0933932922    1.6565565505
 C    1.4165158632   -3.6928060324    1.8862493935
 O    1.8054434695   -4.0963135936    2.9497141081
 N   -0.2315063415   -0.6990801854    1.0833553681
 H   -0.0638715695    1.8008323455   -1.0982785689
 H   -1.3212706377    1.6513977795    0.1564737229
 H    0.3706812060    1.9386930876    0.6251174768
 H    0.5630337465   -0.4842932657   -2.0454849762
 H   -0.4004099357   -2.8076237180    2.6160848698
 H   -0.5814000601   -3.8936638013    1.2202618330
 H    2.0464480315   -3.7452521028    0.9720059526