19

 C   -0.1367367978    1.5471648655    0.1004511587
 C    0.0608681745    0.0404876330    0.0538665120
 C    0.9821783223   -0.5364601873   -1.1236796555
 C    1.6188091995    0.4650561129   -1.9669503041
 N    2.1286175425    1.2650718470   -2.6290479780
 C    1.9746691777   -1.3088185199   -0.2188184205
 C    0.9932603401   -1.9279937941    0.8035005690
 N    0.7426233915   -0.5056733086    1.2623819437
 C    2.2039970860   -0.2785857102    0.9115200889
 H    0.8079933015    2.0943293329    0.1505972696
 H   -0.6653772976    1.8916147630   -0.7931197457
 H   -0.7321766021    1.8074848095    0.9793919220
 H   -0.9195558442   -0.4402844387   -0.0125880407
 H    0.4155653385   -1.2132414792   -1.7700866229
 H    2.7740667889   -1.8596731238   -0.7159378535
 H    0.1086463803   -2.4624085367    0.4435979984
 H    1.4865660271   -2.4996917445    1.5918948813
 H    2.8392798919   -0.6479204228    1.7183895365
 H    2.4824063893    0.7449318219    0.6538073208