23

 C   -0.2094248203    1.4050740997   -0.1849995835
 C    1.2376829851    1.1098514394    0.1267514546
 C    0.2400951824   -0.0176147546    0.0374702266
 C   -0.1841262044   -0.7741972659    1.2771229944
 C   -1.5907658847   -1.4196081957    1.1722173198
 C   -1.5828598931   -2.5947241282    2.1756701575
 C   -0.1299502332   -3.0511600521    2.2253487431
 C    0.5844794741   -3.2348822082    0.9087201321
 C    0.7271124689   -1.9366245760    1.6691644836
 H   -0.8075158583    1.8732036341    0.5906506859
 H   -0.4674368343    1.7183289721   -1.1906491029
 H    1.9689576791    1.2198639927   -0.6664878462
 H    1.6084635609    1.3819058247    1.1100305636
 H    0.3090993356   -0.6379064331   -0.8534622747
 H   -0.1887167823   -0.0663707248    2.1192772945
 H   -2.3902343689   -0.7007850204    1.3691687381
 H   -1.7504176814   -1.7884160667    0.1529895865
 H   -1.8840262960   -2.2474423135    3.1717108162
 H   -2.2794637025   -3.3908609278    1.8897382843
 H    0.1988898527   -3.6421801040    3.0733358140
 H    1.4448179609   -3.8953135611    0.9013071724
 H    0.0079162400   -3.2616348703   -0.0106883577
 H    1.6959859896   -1.7022901402    2.0967743377