23

 C    0.6897286611    1.5373895800   -0.1667579925
 C   -0.0225771010    0.1983510792    0.1002430849
 C    0.1599665457   -0.8245627544   -1.0492456522
 C    1.3029167418   -1.7635880235   -0.6039594555
 C    1.1415357006   -3.2085400186   -1.0796549187
 O    2.5209060584   -1.2166694520   -1.1575468467
 C    1.2764769201   -1.5998014026    0.9014427101
 C    0.5697070760   -0.5376880962    1.2935966618
 C    0.3719213923   -0.0536451532    2.6959415160
 H    1.7435654075    1.3602984161   -0.3993888040
 H    0.2328178892    2.0538606786   -1.0173211332
 H    0.6308916363    2.2078199168    0.6971397634
 H   -1.0876387447    0.4056337816    0.2699044828
 H   -0.7564277675   -1.4085256984   -1.1768104571
 H    0.3988288212   -0.3585692493   -2.0087259864
 H    1.1261087293   -3.2489261919   -2.1731014348
 H    1.9780497327   -3.8264945691   -0.7315823262
 H    0.2166921128   -3.6521380182   -0.6971636506
 H    3.2603566793   -1.6383678806   -0.7065856087
 H    1.8219342864   -2.2662022202    1.5648374898
 H    0.8757476376   -0.6980137299    3.4214540803
 H    0.7556862234    0.9658872249    2.8247136659
 H   -0.6945381783   -0.0177212492    2.9533859017