21

 C    0.0145373503    1.5687305911   -0.3109282731
 C    1.2602718420    0.7563394974    0.0221650989
 C    2.0606020841    0.9144424176    1.3213686036
 C    1.7313250072   -0.0322079976    2.4947385418
 O    0.7330354106    0.3984493469    3.4198968926
 C   -0.3756977381    1.1040556114    2.9202986581
 C   -1.3310905932    0.2764969223    2.0514343983
 O   -0.7085178461   -0.5053330185    1.0499660639
 C   -0.0972472092    0.0912589727   -0.0553106372
 H   -0.3502517999    2.2654596048    0.4324200083
 H   -0.1222048634    1.9174854637   -1.3291593146
 H    1.8925677634    0.5481495832   -0.8361650012
 H    3.1062118408    0.7071412153    1.0690066246
 H    2.0551687974    1.9515370261    1.6776648706
 H    1.4800118150   -1.0241738324    2.1016798146
 H    2.6303756046   -0.1341694311    3.1124280368
 H   -0.9375575531    1.4417205702    3.7997271255
 H   -0.0534337367    2.0108235922    2.3924456266
 H   -1.8425475181   -0.4577980718    2.6816524472
 H   -2.0931806435    0.9454651401    1.6200713806
 H   -0.2698461941   -0.5359685735   -0.9257127457