21

 C    0.0395395193    1.5164871725   -0.0316105603
 C    1.3198131806    0.7190885564   -0.0478424221
 C   -0.0163462082    0.0094111420    0.0045990567
 C   -0.4333180907   -0.6972277604    1.2848263920
 C   -0.0133040284   -2.1730650289    1.2449464255
 C   -0.6941340306   -2.9386464122    0.0948941529
 C   -0.7619400465   -2.1457987341   -1.2003837695
 O   -1.8007103829   -1.1562879325   -1.2812676544
 C   -0.4414464113   -0.7073361709   -1.2383731843
 H   -0.2194932473    2.0505708753    0.8766719965
 H   -0.2616446053    2.0205288069   -0.9441180748
 H    1.8877467787    0.6841477993   -0.9722258607
 H    1.9323207738    0.7089753719    0.8475860759
 H    0.0191186328   -0.1944568344    2.1464795611
 H   -1.5211178720   -0.6232136095    1.4019036306
 H    1.0756577802   -2.2224878208    1.1178718267
 H   -0.2404707498   -2.6621880880    2.1980564682
 H   -0.1667529720   -3.8813744554   -0.0883552686
 H   -1.7212303380   -3.2058528971    0.3724253192
 H   -0.6452055338   -2.7208272149   -2.1197535580
 H   -0.0841927386   -0.2740571054   -2.1750255226