18

 C   -0.0305699316    1.4082594457    0.0760163281
 N    0.0208176487   -0.0398429724    0.0003057275
 C    0.6398792878   -0.6632355905    0.9112951071
 O    1.2648873319   -0.0928633118    2.0166720978
 C    1.7713003576   -1.1116296819    2.7950532914
 N    2.5094185838   -0.6960572234    3.8935547721
 C    1.5018489072   -2.2946655184    2.2252993054
 N    0.8287985781   -2.0200587595    1.0171889766
 C    0.2511615241   -2.9813529590    0.1116938915
 H    0.9646432254    1.8706618625   -0.0030752148
 H   -0.6388803860    1.7864265115   -0.7501968845
 H   -0.4770251710    1.7698714771    1.0143863494
 H    2.0309600912    0.0203105492    4.4295641593
 H    2.7641905047   -1.4673357394    4.4963620575
 H    1.7389964869   -3.2973319995    2.5332419597
 H   -0.5832637990   -3.5267587604    0.5720872451
 H   -0.1225120993   -2.4300433354   -0.7520720536
 H    1.0040874195   -3.7055256843   -0.2183703952