19

 O   -0.0551586501    1.4281126601   -0.3902888423
 C    0.0803406027    0.1100458564    0.1261618854
 C   -1.2674610500   -0.5798984903    0.1831567835
 C   -1.8589267794   -1.2278125511   -1.0377009689
 O   -0.9528107152   -1.4925043106   -2.0810472122
 C   -0.3363253487   -2.7614536157   -1.8443176683
 C   -0.4070783238   -3.0408338633   -0.3301042169
 O    0.8835978719   -2.8338713842    0.2334453481
 C   -1.5068282730   -2.0903527797    0.1449823960
 H   -0.3088440021    1.3363684813   -1.3149901230
 H    0.7995022297   -0.4781232063   -0.4487925253
 H    0.4862578665    0.2266451005    1.1365615495
 H   -1.9864115971   -0.0498044666    0.8042592712
 H   -2.8770130525   -1.0338762652   -1.3624847585
 H   -0.8711112885   -3.5415908244   -2.4039982909
 H    0.6996253652   -2.7195944685   -2.1902779615
 H   -0.7229160757   -4.0783896873   -0.1506761608
 H    0.7966576548   -2.8558789239    1.1918482617
 H   -2.2759040249   -2.4911953812    0.7952470431