16

 C   -0.0029960392    1.5202251547    0.0570155780
 C    0.0192448045    0.0316464845   -0.0032426112
 C    0.0345717452   -0.8201770211   -1.0803460406
 O    0.0319157830   -0.4334824161   -2.3836106628
 C    0.0536856736   -2.1729203118   -0.6000499230
 C    0.0491228339   -2.0949727301    0.7844031144
 N    0.0286476387   -0.7780909656    1.1243623323
 C    0.0726726789   -3.3079490443   -1.4356863064
 C    0.0880334173   -4.2224846234   -2.2232653062
 H    0.8758366495    1.9324577891    0.5694028070
 H   -0.0089454499    1.9174491645   -0.9603384085
 H   -0.8937966816    1.9058559876    0.5694175419
 H    0.0449689684   -1.2336935983   -2.9230790295
 H    0.0589435307   -2.8771432741    1.5247363505
 H    0.0211244150   -0.4311489639    2.0673361151
 H    0.1015437521   -5.0469575415   -2.8915897509