21

 C    0.4065156057    1.5115100818    0.1363436054
 C    0.2863986433   -0.0110851749    0.0401830654
 C    0.6719982634   -0.5538731705   -1.3413500518
 O    2.0393572348   -0.2379206473   -1.6491918770
 C    2.7838938444   -1.4265099049   -1.9580111487
 C    3.9831389444   -1.4998632945   -1.0073346121
 O    4.7721852657   -0.3324905054   -1.0999322371
 C    1.7884814592   -2.5424408473   -1.8153240296
 C    0.6048852370   -2.0527127261   -1.4663924020
 H    1.4286948500    1.8328819878   -0.0812153686
 H   -0.2584093383    2.0062657624   -0.5804457735
 H    0.1428881459    1.8659953828    1.1371232017
 H    0.9234571887   -0.4936540982    0.7909151303
 H   -0.7453910846   -0.3206529032    0.2520020369
 H    0.0299474213   -0.0661241953   -2.0955196427
 H    3.1694673185   -1.3382661979   -2.9865155037
 H    3.6126783253   -1.6631307798    0.0178214545
 H    4.6256246842   -2.3463835416   -1.2750264852
 H    4.1551944264    0.4046431108   -1.0143409150
 H    2.0403814419   -3.5825774240   -1.9795097026
 H   -0.3044380370   -2.6132256846   -1.2882140947