15

 C   -0.0103196966    1.4495709446    0.1139469647
 C   -0.0518941235   -0.0331417428   -0.0669408410
 C    0.6402444217   -0.9542026834   -1.0970366910
 C    0.0251702949   -1.8455493662   -0.0039366187
 O    0.5272619519   -0.8932880073    1.0242845571
 C   -1.2791778583   -1.0050205331   -0.0616449775
 O   -2.1066450716   -0.9914952211    1.0509213470
 H    1.0130270863    1.7933018093    0.2911084887
 H   -0.3951200960    1.9480028635   -0.7813394842
 H   -0.6327576928    1.7441332094    0.9646391291
 H    0.2201711592   -1.0039998081   -2.1054028995
 H    1.7293689365   -0.9115279744   -1.0882271975
 H    0.1688544442   -2.9076833844    0.1937056843
 H   -1.8938020623   -1.0622636534   -0.9630795886
 H   -1.4991814635   -0.9576446827    1.8055892772