21

 C    0.7384639205    1.0446407905   -0.6757139382
 C   -0.1605848131    0.2743704694    0.2671057653
 C    0.1317648920   -1.1397134730    0.6417374146
 N    0.2189565349   -0.0757792491    1.6384315893
 C    1.5475317895    0.2733651795    2.1382583090
 C    1.8497482298   -0.5169198142    3.3890560905
 C    0.9344555877   -0.3932635300    4.5734290628
 N    2.9000433840   -1.2435604435    3.3344559223
 O    3.1367639554   -1.9205192731    4.5424807183
 H    1.7682188178    0.6799123500   -0.6664591450
 H    0.3642852440    0.9500321756   -1.7005847770
 H    0.7521238892    2.1120691292   -0.4282267324
 H   -1.2088905046    0.5637599550    0.1965670065
 H   -0.6670633774   -1.8635622196    0.7811937384
 H    1.0666832076   -1.5626981983    0.2751854692
 H    2.3621817465    0.0983348980    1.4230654060
 H    1.5367107081    1.3445553460    2.3838505651
 H   -0.0543119167   -0.0699096494    4.2442693012
 H    0.8595379850   -1.3437018043    5.1051678678
 H    1.3274509533    0.3447688605    5.2836753747
 H    3.9195569365   -2.4393984392    4.3305079219