18

 N   -0.0154940807    1.1974641083   -0.3695613131
 C   -0.0028093994   -0.0163244405   -0.0518622605
 O    1.0172473426   -0.8063801513    0.4412645811
 C    0.1312909665   -1.9671895138    0.5216695791
 C   -1.0323983363   -1.1271326832   -0.0400950802
 C   -2.3927757829   -1.0205872139    0.7199702117
 C   -3.1249980835   -1.4399868919   -0.5612945328
 C   -2.7872751448   -0.4937431909   -1.6774673697
 C   -1.7907485742   -1.5565204976   -1.2999125334
 H    0.8994008305    1.6310103657   -0.2323218360
 H    0.4937826535   -2.7796125068   -0.1144481597
 H    0.0274109930   -2.3088626285    1.5554170215
 H   -2.4550342617   -1.7645451011    1.5185433673
 H   -2.6424045109   -0.0360241979    1.1263291368
 H   -3.9843002237   -2.0970356763   -0.6029665291
 H   -3.3088910997   -0.6745039457   -2.6118586989
 H   -2.5643667024    0.5500009895   -1.4763309224
 H   -1.4430557557   -2.3060462943   -2.0010250718