20

 C    0.2460432474    1.0123546901   -0.4295063592
 O   -0.1300643074    0.1617886960    0.6315467515
 C   -1.2627564492   -0.5884345194    0.3645593196
 C   -1.5187947056   -1.6103023542   -0.7296369225
 C   -0.3937402176   -2.6400331660   -0.9907875764
 N    0.8185706600   -2.2607033722   -0.2248373217
 C   -0.3091432456   -2.9715355942    0.4403245987
 C   -1.4823172432   -2.0005253556    0.7816771998
 C   -2.5904242108   -2.4567348747    1.6872778062
 H    1.1021423775    1.5955557764   -0.0820554002
 H    0.5400091022    0.4345720960   -1.3155137520
 H   -0.5643014842    1.7042949813   -0.7088425637
 H   -2.1819933496   -0.0046080972    0.5046986953
 H   -2.3858046959   -1.5253423627   -1.3749502431
 H   -0.3412258344   -3.2805513814   -1.8616222801
 H    1.5183952143   -2.9783815745   -0.4222218104
 H   -0.1610851908   -3.9252634930    0.9308795775
 H   -2.2553607246   -2.4926752744    2.7315967108
 H   -3.4471044514   -1.7777759439    1.6350232199
 H   -2.9408489911   -3.4602829364    1.4176203199