16

 O    0.0448552480   -0.0545069675    0.2019840218
 C   -0.0153724586    1.1319907450   -0.0047797066
 C   -1.3274596172    1.9012945363   -0.0775290652
 C   -1.2877253608    3.0627790699   -1.0843851611
 C    0.0204917415    3.8508413685   -0.9093044915
 O    1.1412484519    3.0080738976   -1.1145934468
 C    1.2480428839    1.9863263741   -0.1329734885
 C    0.1159510721    4.9598986591   -1.8676845108
 N    0.1472164269    5.8434471458   -2.6099785251
 H   -2.1378473985    1.1994349840   -0.2864934504
 H   -1.5020954637    2.3018114715    0.9323617536
 H   -1.3172909892    2.6834190406   -2.1104572206
 H   -2.1484995132    3.7247407885   -0.9502782418
 H    0.0551660778    4.2855252122    0.1055816199
 H    1.4671974968    2.4219345803    0.8590107335
 H    2.0864970722    1.3513087241   -0.4218473404