20

 N   -0.6509347620    1.3167778796    0.9492485143
 C   -0.0867569797    0.4268971878    0.0815308196
 O    1.0881061069    0.4846735649   -0.2346668831
 C   -1.0166575233   -0.6395005466   -0.4645597176
 C   -1.0160436807   -0.8094526532   -2.0182904129
 C   -0.9131382606   -2.3242335979   -1.8105062247
 C   -1.9084473381   -3.3382058912   -2.2956351559
 C   -0.4704704745   -3.3809914021   -2.7708811699
 C   -0.5032516413   -2.1112982280   -0.3493314998
 H   -0.0704755046    2.0423508070    1.3373835746
 H   -1.6184764850    1.2737802579    1.2139671448
 H   -2.0325583840   -0.5380811593   -0.0732849665
 H   -1.8874508119   -0.4264581810   -2.5560954103
 H   -0.1034487921   -0.3834409590   -2.4442949153
 H   -2.2399176980   -4.1061143440   -1.6030591272
 H   -2.6692881392   -3.0160820221   -3.0003175073
 H   -0.2619608901   -3.0878198324   -3.7951648125
 H    0.1670538056   -4.1770472860   -2.3987986834
 H    0.5817932006   -2.1232225677   -0.2139732661
 H   -0.9762812082   -2.7399667164    0.4098023890