16

 C    0.1713907812   -1.2364606670   -0.1445197863
 C    0.1028610627   -0.0431229288   -0.0196714633
 C    0.0387698919    1.3830374700    0.1109766868
 C    0.1979664976    2.2800387905   -1.1012209644
 C    1.2795936611    2.2359077639   -0.0517975329
 C    1.4655292689    3.3823748242    0.9271238470
 N    0.3358532759    3.6654873261    1.8003438268
 C   -0.6600596075    2.8927033720    1.8121623392
 O   -0.9203809877    1.7792320721    1.0762973198
 H    0.2263549333   -2.2919183811   -0.2494469102
 H    0.3758592026    1.8061783847   -2.0589348887
 H   -0.4496636391    3.1508707060   -1.1256535365
 H    2.1817302203    1.6929804678   -0.3127914997
 H    2.3255704341    3.1606512843    1.5711318371
 H    1.7209898833    4.3072285997    0.3934817097
 H   -1.4997397888    3.0762030356    2.4791963956