15

 C   -0.0201120447    1.4822211196    0.0581219803
 C   -0.0098028925   -0.0109375160   -0.0349300865
 N   -0.1185574759   -0.6357436754   -1.1512153531
 C   -0.1022146279   -2.0307275777   -1.1691771351
 O   -0.1596506451   -2.6741654449   -2.2016321403
 C    0.0038290258   -2.7181826437    0.1402492921
 N   -0.0678218564   -4.0911725250    0.0907464306
 C    0.1299927889   -1.9560835142    1.2450067370
 O    0.1274966001   -0.5870997105    1.1743710899
 H    0.9017168369    1.8411513977    0.5265514673
 H   -0.1148457374    1.9038777194   -0.9410558646
 H   -0.8547488264    1.8182745204    0.6816785970
 H    0.0788247438   -4.4342155788   -0.8506078895
 H    0.3980694272   -4.6155688716    0.8143272770
 H    0.2368887233   -2.3049609793    2.2629607779