15

 O    0.0121802808    1.4607428153   -0.0344226850
 C    0.0262312498    0.0816620379    0.0228295020
 C    0.1031066858   -0.4956026143    1.4680595414
 N   -1.3390804177   -0.8133109566    1.4285758398
 C   -1.4018655979   -0.6276150515   -0.0308244867
 C   -2.5082625615    0.1879296045   -0.5229555076
 N   -3.3821974320    0.8180947758   -0.9396730361
 C    1.0025846325   -0.4873823364   -0.9836645119
 O    1.6003686854    0.2225619843   -1.7523142669
 H    0.5228860110    1.7080461012   -0.8226492254
 H    0.7738884294   -1.3612806144    1.5564412981
 H    0.3756030717    0.2547578182    2.2147103582
 H   -1.6122566170   -1.7308454050    1.7589046713
 H   -1.3710621174   -1.5573515762   -0.6175995104
 H    1.1271558471   -1.5895302428   -0.9819737208