14

 N    1.6078575746   -0.3156469526    0.7509146391
 C    0.7893054375    0.4010626217    0.3638891185
 C   -0.2778780172    1.2867512306   -0.1319781940
 O   -0.2981372062    2.5437940344    0.5130535750
 C    0.6787866024    3.4037656833    0.1238338643
 C    1.7540771649    3.3465921951   -0.7230046384
 N    2.3934716608    4.5728737052   -0.7304145845
 C    1.7215695666    5.3364554087    0.0900285748
 N    0.6565290415    4.6712542143    0.6444189648
 H   -0.1716116119    1.4068967489   -1.2181616919
 H   -1.2454601815    0.8228372864    0.0740879976
 H    2.1181100782    2.5142076777   -1.3025736271
 H    1.9406251487    6.3652735260    0.3314999947
 H   -0.0199898885    5.0184948702    1.3037509971