19

 C   -0.1716620537    1.4552818701   -0.0267219349
 C    0.0409647087   -0.0554647494   -0.0071064877
 C    1.2093170198   -0.5627197752   -0.9156321070
 O    1.9625156023   -0.9581217880    0.2695948674
 C    0.9522649762   -0.5488563702    1.1168047073
 N    0.8679274133   -0.5830372475    2.3650145036
 N   -1.2563409696   -0.7091192064   -0.0268887526
 C   -1.8437192564   -1.0854060081   -1.3070042158
 C   -1.3729791793   -2.1233552681   -0.3453198856
 H    0.7799502104    1.9905695471    0.0347157367
 H   -0.6797755661    1.7535538383   -0.9497604452
 H   -0.7941821509    1.7445940471    0.8224513263
 H    1.0104758116   -1.4245490657   -1.5567087232
 H    1.7407013588    0.2077950172   -1.4794087655
 H    1.7034810507   -0.9935507179    2.7859081466
 H   -2.9029423833   -0.8735840273   -1.4223270278
 H   -1.2532699926   -0.9438580423   -2.2113173019
 H   -0.4810786976   -2.6878032652   -0.6099134873
 H   -2.0841758523   -2.6730579387    0.2640893865