20

 C   -0.5568874379    1.0862192766   -1.4151233053
 C    0.2892695700   -0.0877131089   -0.9594743597
 N    1.7366808830    0.0202347191   -1.2503969414
 C    2.0935236583   -0.5678289533    0.0603470123
 C    3.2845247572    0.0639626226    0.7561266591
 C    0.6427567105   -0.2328942307    0.5656467985
 N    0.5692926920    1.0294203003    1.2892848275
 C   -0.0414573838   -1.3293396995    1.2598699897
 N   -0.5898689063   -2.1709789238    1.8345140909
 H   -0.1512071753    2.0229166470   -1.0284366291
 H   -0.5581669732    1.1376190038   -2.5089686638
 H   -1.5969236624    0.9748167016   -1.0878675571
 H   -0.1529449808   -1.0317928099   -1.3088323919
 H    2.0537875902   -0.5045014014   -2.0584567738
 H    2.2101987336   -1.6606002345    0.0267336088
 H    3.1508798873    1.1442163610    0.8378558192
 H    3.4318310979   -0.3633834448    1.7545540231
 H    4.1941809525   -0.1271642084    0.1772171266
 H   -0.4018263724    1.2920566731    1.4318899050
 H    0.9796344495    0.9246672502    2.2128762814