18

 O    0.1054911212    1.1956204062    0.5850247182
 C    0.0475333164    0.0192076572   -0.2033889341
 C   -1.3293955973   -0.6166530832   -0.1662511683
 C   -1.6163123621   -2.0973027727   -0.1305175455
 C   -0.4921267989   -3.0723670609    0.2218511102
 N   -0.0924720015   -2.6605360162    1.5584238447
 C   -0.8224627557   -1.6397031202    2.1109476165
 O   -0.6255280925   -1.1287768503    3.1955391981
 C   -1.8735541890   -1.2568490591    1.1005964421
 H   -0.0801925085    0.9408331762    1.4972482142
 H    0.2793724141    0.3307815092   -1.2272660885
 H    0.8229286395   -0.6991625731    0.0971385723
 H   -2.0794851687   -0.0369450587   -0.6976999363
 H   -2.4301749839   -2.4783503674   -0.7348374422
 H   -0.8668116753   -4.1039326932    0.2175208617
 H    0.3487644421   -3.0225082393   -0.4813651092
 H    0.7380391161   -2.9979394428    2.0187344161
 H   -2.8519168562   -0.9827718018    1.4721936798