16

 C   -0.0381759421    1.5679551867    0.1007722930
 C    0.0668275745    0.0757887515    0.0981697183
 N   -1.1924007932   -0.7694999949    0.1097360562
 C   -0.3471447293   -1.8052265503    0.7496318641
 C    0.7591052699   -0.8886597109    1.1491955619
 C    0.9548667657   -1.8734058512   -0.0546136020
 O    1.7801826231   -2.9641669108   -0.0627505077
 C    0.9145637675   -0.6810887383   -0.9602914701
 O    1.5070781518   -0.3323786014   -1.9414209613
 H    0.9539804675    2.0224984955    0.0273086159
 H   -0.6229236196    1.8949237847   -0.7648407178
 H   -0.5247472245    1.9396750618    1.0083847011
 H   -1.7967625513   -0.3881244211    0.8402938360
 H   -0.7306132940   -2.6972009570    1.2307378653
 H    1.4191123763   -0.7628286827    1.9963589900
 H    1.3451381478   -3.6814130616   -0.5375666829