18

 N   -0.1078322433    1.4951845640    0.1490106581
 C    0.0300897287    0.0440427059    0.0088293515
 C    0.7234573884   -0.4722643965   -1.2779249454
 C   -0.0303955868   -0.0871645232   -2.5521447954
 C    0.6256603082   -0.6389649501   -3.8121724919
 O   -0.1381030774   -0.1962082964   -4.9218122463
 C    0.7440525085   -0.4788007808    1.1870177064
 N    1.3331506916   -0.9048696760    2.0847836983
 H    0.7993161949    1.9441284152    0.0589367033
 H   -0.6975563862    1.8553358604   -0.5937675699
 H   -0.9840714473   -0.3759019636    0.0424072721
 H    1.7472516611   -0.0774459161   -1.3037148307
 H    0.8118763680   -1.5634914837   -1.2094097457
 H   -1.0629769180   -0.4563725288   -2.5088549618
 H   -0.0880276212    1.0028588783   -2.6519127204
 H    1.6673555918   -0.2833187395   -3.8742113747
 H    0.6607417778   -1.7393590069   -3.7617932094
 H    0.2603565613   -0.5474895320   -5.7233604682