15

 O   -0.6137443213    1.4042116165    0.4445889722
 C   -0.0092122643    0.1994178556    0.0013106055
 C    0.8497645791   -0.4617634489    1.0821436699
 O   -0.0617858590   -1.1016474454    1.9726234991
 C   -1.3082730509   -1.3151335029    1.3104766818
 C   -1.1320745304   -0.8272249453   -0.1481041612
 C   -1.6856951176   -2.7343763907    1.3914561463
 N   -1.9979738140   -3.8454901015    1.4420798201
 H    0.0797894470    2.0201578332    0.7014952994
 H    0.5482375738    0.3484036198   -0.9334291074
 H    1.5395962954   -1.1939842220    0.6365114533
 H    1.4382073503    0.2598304964    1.6593097519
 H   -2.0796672303   -0.7272220792    1.8223876148
 H   -2.0420329064   -0.3832624221   -0.5522328850
 H   -0.8163637514   -1.6492547135   -0.7942416207