20

 C   -0.0421292574    1.5789202944   -0.1314728612
 C    0.0035847609    0.0612842540   -0.0070335471
 C    1.0569122373   -0.6782847532   -0.8976068817
 N    1.7629436372   -1.1654918400    0.3314772727
 C    0.7193872070   -0.5689515554    1.2366585704
 C    1.8246289417    0.1875474533    2.0200426671
 C    2.1215232883   -0.3000472863    3.4360653897
 C    2.7548937050   -0.3111136534    0.8824264755
 O    3.8525107360   -0.0359937072    0.4906788325
 H    0.9557444838    2.0254244469   -0.0713400138
 H   -0.4715026915    1.8704869237   -1.0957668397
 H   -0.6591136369    2.0234113085    0.6569702057
 H   -1.0039752467   -0.3454688974   -0.1302191980
 H    0.6598833738   -1.5031182281   -1.4939811087
 H    1.6896938188   -0.0494638722   -1.5309148193
 H    0.1204901658   -1.2744428096    1.8181083464
 H    1.7423425238    1.2781159276    2.0023976096
 H    2.1853355865   -1.3920778760    3.4733713003
 H    3.0745166041    0.1058936758    3.7877100042
 H    1.3386865824    0.0188673846    4.1318196154