22

 C   -0.2509229088    1.4868083713   -0.0185865381
 C    0.0175045131   -0.0202346515   -0.0190621465
 C    0.9514811209   -0.4386142663   -1.1485035889
 O    0.6404196564   -0.4496318652    1.1932197077
 C   -0.2011994278   -0.5093765478    2.3176283565
 C    0.6161572532   -1.1441436122    3.4584415355
 C    1.8428254405   -0.2938133324    3.8381235525
 C   -0.2519841544   -1.3716787252    4.6164696140
 N   -0.9426009053   -1.5380200564    5.5281843546
 H    0.6867389435    2.0376925848    0.1072784961
 H   -0.7054041902    1.7907074576   -0.9666742514
 H   -0.9341664271    1.7813511803    0.7829262896
 H   -0.9408064387   -0.5555010907   -0.1259288269
 H    1.9165574586    0.0685605771   -1.0502619450
 H    1.1265684367   -1.5171394934   -1.1207986034
 H    0.5218160735   -0.1780723336   -2.1199989537
 H   -0.5482179337    0.4869679138    2.6311622170
 H   -1.0925880157   -1.1217214623    2.1098495204
 H    0.9585602782   -2.1237261761    3.1030914180
 H    2.4422999277   -0.7924833772    4.6031358231
 H    2.4540490564   -0.1365971996    2.9482159654
 H    1.5315335629    0.6801084852    4.2271114936