17

 C   -0.0169448527    1.5303615119   -0.0258469157
 C   -0.0167110272   -0.0203377241   -0.0121105632
 C    0.7576153996   -0.5384083215    1.2274609779
 C   -1.3910720282   -0.5173110700    0.0169067248
 C   -2.5271517172   -0.9004159029    0.0867689751
 C    0.6927203509   -0.5282738300   -1.2904066130
 O    0.1626825281   -1.2272534093   -2.1201609107
 C    2.0788929340   -0.1073651986   -1.4497005878
 C    3.2253852959    0.2235061211   -1.6101727802
 H    1.0062540737    1.9134829443   -0.0597856467
 H   -0.5663227835    1.9128165686   -0.8898409021
 H   -0.5012884558    1.9024338894    0.8805017292
 H    0.2752282722   -0.1722814368    2.1372657624
 H    0.7607686651   -1.6309762590    1.2570405333
 H    1.7909723325   -0.1824181820    1.2102677645
 H   -3.5291986644   -1.2495159086    0.1298567271
 H    4.2380740571    0.5082561774   -1.7645556449