24

 C    0.0234981423    1.4230483585   -0.2487257678
 C   -0.1669977618   -0.0933991284   -0.1662546152
 C   -1.4631889353   -0.4778646479    0.5582424904
 N   -1.6631175020   -1.9136255337    0.6616238696
 C   -2.5143661326   -2.6029744571   -0.1552685386
 O   -3.2252736803   -2.0542197370   -0.9804476432
 C   -2.5043184452   -4.1188928211    0.0324044093
 C   -3.8990133196   -4.7313385272   -0.1357689923
 C   -3.8833460967   -6.2608968285   -0.1176925983
 H    0.9515840889    1.6784891331   -0.7683453086
 H   -0.8029457331    1.8956747064   -0.7903233088
 H    0.0660342436    1.8743339526    0.7490536670
 H   -0.1889646309   -0.5272996229   -1.1725108010
 H    0.6880139495   -0.5482266178    0.3516505993
 H   -1.4740051461   -0.0412668028    1.5651914047
 H   -2.3277786289   -0.0880894757    0.0153901123
 H   -1.0717841188   -2.4358401942    1.2872257051
 H   -1.8305855687   -4.5324216023   -0.7310066296
 H   -2.0744080454   -4.3901621161    1.0047453617
 H   -4.5546266752   -4.3565999565    0.6598862957
 H   -4.3190979620   -4.3597705059   -1.0748129886
 H   -4.8921290465   -6.6671221543   -0.2400394364
 H   -3.2633863733   -6.6610865862   -0.9280567946
 H   -3.4822625219   -6.6488071847    0.8258038278