19

 O   -0.0797502594    1.2731393665   -0.7084291926
 C    0.0036518422    0.0967406008    0.0897882942
 C   -1.3527807249   -0.5571026999    0.0896523887
 C   -1.7748945935   -1.4232557054   -1.0828644659
 C   -1.4855508544   -2.0434554204    0.2644234514
 O   -0.2896458683   -2.7527513127    0.4263457007
 C   -2.6294173339   -2.5988682901    1.0902801174
 C   -2.9340050585   -4.0496868298    0.7949243755
 O   -2.2431798053   -4.7730546269    0.1160660396
 H    0.7824711230    1.6991597824   -0.6941059534
 H    0.7491603772   -0.6081970619   -0.2996792661
 H    0.2945651537    0.3436994503    1.1235259913
 H   -2.1327896615    0.0497178137    0.5427557336
 H   -2.7987274974   -1.3626524259   -1.4366324722
 H   -1.0344629026   -1.5902971063   -1.8572007246
 H   -0.4707541079   -3.6424730566    0.0910761371
 H   -2.3979247431   -2.5419466731    2.1659811154
 H   -3.5512972895   -2.0191015014    0.9545220834
 H   -3.8593310958   -4.4435539834    1.2706399465