19

 C    0.0839744846    1.5043012828   -0.0930094118
 C   -0.0176674177   -0.0148983221   -0.0001663085
 O    0.7015806701   -0.5226573331    1.1113162576
 C   -1.4938209433   -0.5264407745    0.0663158083
 C   -2.2804168152   -0.0117939397   -1.0549544008
 N   -2.8848435980    0.3701877937   -1.9638990596
 C   -1.5453514327   -2.0541396375    0.1262984841
 C   -2.7698656457   -2.8157686693   -0.2107231530
 N   -1.5840578572   -2.8776070578   -1.0875883798
 H    1.1354989424    1.8021606965   -0.1017698198
 H   -0.3953532101    1.8854597943   -0.9981919210
 H   -0.4019183544    1.9800974642    0.7689438780
 H    0.4524051967   -0.4732130599   -0.8771072358
 H    0.4913349733    0.0212533344    1.8790567243
 H   -1.9328742287   -0.1249247289    0.9916619388
 H   -0.8786659952   -2.4365388407    0.8929545958
 H   -2.9972548742   -3.7341866813    0.3225067046
 H   -3.6377283302   -2.2629058264   -0.5604020440
 H   -1.7459277644   -2.2951025746   -1.9076331674