18

 C   -0.1149114661    1.2984300581    0.1449837615
 N   -0.1102175558   -0.1314768952   -0.1269425235
 C   -0.0519681585   -1.0134421597    1.0270819099
 C   -1.3897537015   -1.1063817028    1.7485206040
 O   -1.5063415538   -1.2294365690    2.9378804952
 C   -0.0058569950   -0.6702896224   -1.3757287882
 O    0.0657845486   -1.8774991497   -1.5696529354
 C    0.0218095252    0.2662021148   -2.5915414825
 O    0.1427481784   -0.4876233327   -3.7585032464
 H    0.8698917003    1.6473439413    0.4823861914
 H   -0.4018286531    1.8643736982   -0.7399330117
 H   -0.8408715056    1.5236666038    0.9328705003
 H    0.1992545881   -2.0140602923    0.6584205327
 H    0.7188204551   -0.6927153904    1.7364133251
 H   -2.2709610777   -1.0657574548    1.0674567400
 H   -0.9005443730    0.8691712005   -2.6082662793
 H    0.8619085974    0.9711613851   -2.4881355495
 H    0.1684010069   -1.4103736127   -3.4517925735