17

 O   -0.0184090871    0.4899813105   -0.9822178259
 C   -0.0214617098    1.4412245529   -0.2489617135
 C   -1.2796147180    2.1203899104    0.3252191412
 C   -0.7876824197    3.3425606461    1.0693442674
 C    0.7279693290    3.3633609511    1.0486705595
 C    1.2327734197    2.1548693909    0.2909486169
 C   -0.0552226205    4.4129225923    0.2658075519
 C   -0.0748012513    4.4155225878   -1.1669310486
 C   -0.0910310300    4.4023773189   -2.3703150385
 H   -1.9789418554    2.3352655633   -0.4881249351
 H   -1.7746973156    1.4142409765    1.0020237717
 H   -1.3327594031    3.6799103422    1.9428114062
 H    1.2872021187    3.7158644775    1.9070751880
 H    1.7653189903    1.4628235297    0.9537345159
 H    1.9034993657    2.3885487761   -0.5410845755
 H   -0.0625756461    5.3998031202    0.7197172388
 H   -0.1054048466    4.3950562635   -3.4320964605