17

 O    0.0237368245    1.3949480031    0.1872616481
 C   -0.0038274317    0.0082586771    0.0170506406
 C   -1.3196007819   -0.6953410460    0.0315576735
 C   -2.5632455975    0.1634053066   -0.2268951015
 C   -2.3187567494    0.8962135525   -1.5673732640
 C   -1.2413572548    0.0773330604   -2.2579536729
 O   -1.0599432890   -0.0686540124   -3.4478456775
 C   -0.4634759842   -0.6950763391   -1.2489339413
 O    0.2693061628   -1.7593406049   -1.7380053083
 H    0.8100289327    1.7369986461   -0.2520171897
 H    0.8154077581   -0.5333212625    0.4914342725
 H   -1.4142928902   -1.5903658021    0.6362221596
 H   -3.4356460737   -0.4915298771   -0.3113842145
 H   -2.7504088637    0.8579048848    0.5962637642
 H   -3.2050482214    0.9701599223   -2.2003198996
 H   -1.9300907055    1.9064509883   -1.4041315400
 H    0.1767274150   -1.6974107772   -2.7023686893