17

 O   -0.2160969526    0.3232179141   -0.5810527905
 C    0.1094068431    1.1862020916    0.2023032458
 C    1.3720412430    1.9507055059    0.1561254931
 C    1.6797153593    3.1762676247    1.1031069047
 C    2.6482762694    3.5460477999   -0.0296348507
 C    3.9002693684    3.0572481919    0.0817951751
 C    3.9995774851    1.7270062823   -0.6573502207
 C    2.5019182651    1.4470054435   -0.8733544023
 C    1.8430564365    2.7440835095   -1.0654374967
 H   -0.5631134837    1.4764856509    1.0419130422
 H    0.7725899856    3.7849104059    1.2006653437
 H    2.1223736746    2.9988132658    2.0868631779
 H    4.5105090002    3.2335709636    0.9628994955
 H    4.5260730749    1.7085843282   -1.6224471644
 H    4.5075427983    1.0066644078   -0.0054903862
 H    2.1622533074    0.5709661127   -1.4177900469
 H    1.2236757454    3.1041007317   -1.8763788995