24

 C    1.7041581799    2.2143510165   -0.5686848136
 C    1.9864163871    0.8189580485   -0.0120172887
 N    1.6733085864   -0.1964664552   -1.0127894299
 C    1.7855492021   -1.6193844263   -0.6888493172
 C    2.2103980946   -2.1295120769    0.6728548801
 C    0.4455830932   -1.0071667934   -0.9499646771
 C   -0.6245098632   -0.8874062624    0.1172855985
 C   -1.7219567140    0.1051497302   -0.2561314685
 O   -2.7057001548    0.0606874374    0.7663397367
 H    2.2714845102    2.3795264388   -1.4887261791
 H    0.6424538020    2.3378283906   -0.8051795773
 H    1.9795324558    2.9849157025    0.1587220055
 H    3.0555017329    0.7302007966    0.2168219654
 H    1.4547892159    0.6909615042    0.9430285492
 H    2.2260563361   -2.1961108294   -1.5037554240
 H    1.7334484806   -1.6020440557    1.5005513325
 H    1.9616546152   -3.1920677195    0.7675818555
 H    3.2950873300   -2.0361987331    0.7973834202
 H    0.0203981236   -1.1771155912   -1.9410504385
 H   -1.0943848628   -1.8692836801    0.2576408950
 H   -0.2167261148   -0.6023913087    1.0901191748
 H   -1.2984097345    1.1163592510   -0.3579749822
 H   -2.1493048234   -0.1678174754   -1.2349058565
 H   -3.3985469281    0.6896057710    0.5451930093