19

 C    0.2411155390    1.5774427021    0.0334603211
 C    0.1254247931    0.0650400381    0.0011368504
 C    1.1724102146   -0.7413758846   -0.7231607204
 C    1.1371081860   -0.7388614914    0.7862036873
 N   -1.1892977471   -0.5596998697   -0.0170335047
 C   -2.3981823964    0.1819738733    0.2567627098
 C   -2.1385256226   -0.3619963850   -1.1203768951
 C   -1.8785909772    0.5464769062   -2.2106105263
 N   -1.6720633619    1.2397893149   -3.1138444026
 H    1.2966210732    1.8622838463    0.0379527144
 H   -0.2213932158    2.0529958250   -0.8358531351
 H   -0.2104529282    1.9932504805    0.9413662345
 H    0.8426770312   -1.6412577351   -1.2291986631
 H    1.9642739313   -0.2014078024   -1.2296054750
 H    1.9086154900   -0.1972049453    1.3226562925
 H    0.7745434204   -1.6330134375    1.2782250929
 H   -3.1347097126   -0.3108213122    0.8862944685
 H   -2.3472262603    1.2620780358    0.3669215442
 H   -2.6456301866   -1.2698087890   -1.4370241835