20

 C   -0.1050910705    1.5966081111   -0.0269646865
 C    0.0435241452    0.0765793361   -0.0100627571
 C    0.8261887270   -0.5321287604   -1.1847878544
 C    2.3490379465   -0.2734112308   -1.0466150807
 N    2.5600229997   -1.5903274895   -0.3502066380
 C    1.1550656476   -1.9734484834   -0.7223078233
 C    1.5024546016   -1.7319949918    0.6941754064
 C    0.7891058213   -0.5039550608    1.2387945623
 O    1.7467983821    0.3711436693    1.8276466075
 H    0.8666790672    2.0977607642   -0.0308333702
 H   -0.6552493201    1.9223629602   -0.9154571916
 H   -0.6639687572    1.9530390096    0.8469301273
 H   -0.9585007210   -0.3738825507   -0.0164175557
 H    0.3762433542   -0.3756684193   -2.1658753402
 H    2.8751946225   -0.3132662630   -2.0034154400
 H    2.6789108420    0.5967935062   -0.4752911978
 H    0.8961080923   -2.9223631669   -1.1776289912
 H    1.7158915139   -2.5564254300    1.3654577519
 H    0.0618592857   -0.8165092038    2.0025780724
 H    1.2694680399    1.0833639139    2.2645435090