21

 C    0.9340744963    1.3796971442    0.3236410771
 C    0.9445830832    0.2720091436   -0.6969289945
 C   -0.2350249161    0.4135025207    0.2282797890
 C   -0.5142420719   -0.5437580854    1.3331060945
 C   -0.0636267778   -1.7985194451    1.3893525169
 C   -0.3256444670   -2.6946998482    2.5707384334
 C   -0.8173905182   -1.8654788260    3.7582305741
 O   -1.8408909402   -0.9710842609    3.3583489691
 C   -1.3736395525    0.0062977117    2.4511560582
 H    1.5956665362    1.2767501312    1.1769439347
 H    0.7875243557    2.4002728655   -0.0124830791
 H    0.8024599778    0.5287601458   -1.7406616247
 H    1.6284998460   -0.5523238059   -0.5322524724
 H   -1.1301148406    0.8431537680   -0.2190259616
 H    0.5145170826   -2.2056479248    0.5640538431
 H   -1.0703203461   -3.4601648873    2.3114920357
 H    0.5865644164   -3.2378298143    2.8509821731
 H   -1.2487350794   -2.4965798117    4.5403047846
 H    0.0266540797   -1.3076707535    4.1981320482
 H   -0.8163285557    0.7982117139    2.9859794033
 H   -2.2689295084    0.4834213185    2.0331976073