21

 C   -0.1722599419    1.6594712472   -0.0670281384
 C   -0.0022987181    0.1519919431   -0.0189126683
 C    1.1719255643   -0.5719370090   -0.7746844575
 C    2.4017032801    0.0229162411   -0.0976541544
 C    2.0816792317    0.0292519535    1.2051556902
 C    2.8518169321    0.4522427456    2.4080706306
 C    0.6681409919   -0.5665411684    1.2108946312
 C    0.9164459167   -1.7686484056    0.2358564322
 O   -0.2312886891   -2.5567658002    0.0406671149
 H    0.7577956719    2.1847565093    0.1660710246
 H   -0.5000284213    1.9789129005   -1.0629000654
 H   -0.9372557659    1.9856035079    0.6468804311
 H   -0.9471967497   -0.3437992917   -0.2544960937
 H    1.1737414971   -0.7132872714   -1.8566947020
 H    3.3245861882    0.3245473183   -0.5745327527
 H    3.8456380324    0.8194736556    2.1351753668
 H    2.3340801951    1.2496885925    2.9568427954
 H    2.9794667131   -0.3767873956    3.1161270155
 H    0.1557193463   -0.7038145634    2.1641213867
 H    1.7991350209   -2.3824041626    0.4567225774
 H   -0.0339165758   -3.2099466066   -0.6378641043