13

 O   -0.2148422334   -0.0854115514    0.0069166569
 C   -0.0962209111    1.1039832379    0.0997248534
 O   -1.1400010950    2.0226173932   -0.0825866567
 C   -0.6963035959    3.3218137826    0.1588621141
 C    0.6099814384    3.2496982555    0.4330103830
 C    1.9881608341    3.6736314171    0.9135330550
 C    2.3339990738    2.1313158366    0.8993227299
 N    0.9774340968    1.9166321824    0.3602299803
 H   -1.4309967129    4.1037914590    0.0955370376
 H    2.5672191255    4.2709174408    0.2069038736
 H    2.0205007514    4.1446491608    1.8971154442
 H    3.1318182173    1.8243758040    0.2203748473
 H    2.4872216009    1.6839689314    1.8840581016