13

 N    0.0456661144   -1.1742528399   -0.1388075640
 C    0.0119130718   -0.0226397309   -0.0529652265
 C   -0.0431370527    1.4245954532    0.0680390287
 C   -0.2353925912    2.0467368324    1.5071310022
 C    1.0980775533    2.7775422314    1.3244324653
 O    2.1004651959    1.7889948598    1.0971316771
 C    1.3088990723    2.1840473084   -0.0171791443
 C    1.9424426045    2.6845498495   -1.1958732469
 N    2.4121170059    3.0895672913   -2.1714189870
 H   -0.7704226478    1.8328777399   -0.6370968302
 H   -1.1024124237    2.7069467992    1.5483627841
 H   -0.2579777706    1.3378832566    2.3350618912
 H    1.4192487178    3.7377356291    1.7079119603