18

 C    0.0291063819    1.4080106828    0.0097929542
 O    0.0207863041   -0.0013632237   -0.0092746237
 C    0.6780260031   -0.5647351317    1.0963813598
 C    0.6067247859   -2.0505904482    0.9721690702
 C    0.0455670820   -2.8715068914    0.0218464459
 N    0.2598854731   -4.1668179290    0.3804649098
 N    0.9216579047   -4.1954256473    1.4983998140
 N    1.1417765935   -2.9117085907    1.8739660374
 C    1.8650474689   -2.6311022873    3.0951321525
 H    1.0543901067    1.8092625983   -0.0094925291
 H   -0.5008026464    1.7456646220   -0.8830499111
 H   -0.4812376548    1.8059875102    0.9007150905
 H    1.7311537683   -0.2288517473    1.1389735741
 H    0.2103039021   -0.2313792905    2.0418137254
 H   -0.4853486235   -2.5989203867   -0.8740984340
 H    2.7810443645   -2.0692371359    2.8874459126
 H    1.2460134480   -2.0599764300    3.7939739144
 H    2.1233369779   -3.5909015336    3.5421592771