27

 C    0.2856002521    1.2959053092    1.1632277254
 C    0.1459209348   -0.1926130209    0.8319667041
 C   -1.1478327527   -0.5101696989    0.0664399752
 C   -1.3757509654   -1.9948892095   -0.1928468078
 C   -0.3182194466   -2.6956793404   -1.0417386180
 C   -0.1977442479   -2.1530701090   -2.4714155033
 C   -2.0001776585   -2.8148626219    0.9178499240
 C   -2.7904203737   -2.5286759554   -0.3389534558
 C   -4.0400381345   -1.6743216462   -0.3145245709
 H    1.2155144762    1.5005372326    1.7032026709
 H    0.2886515912    1.9064327807    0.2530733766
 H   -0.5453147728    1.6428684884    1.7879916466
 H    1.0161474495   -0.5137430097    0.2470451426
 H    0.1678588654   -0.7814700718    1.7579192218
 H   -1.9899108776   -0.1068686345    0.6396215676
 H   -1.1467005773    0.0405584307   -0.8842267107
 H    0.6583502018   -2.6348254318   -0.5446324425
 H   -0.5621169266   -3.7642136009   -1.0853539227
 H    0.5315905498   -2.7304297037   -3.0483326147
 H   -1.1583496052   -2.2064527602   -2.9951497190
 H    0.1283402991   -1.1082767631   -2.4834956276
 H   -1.6367090032   -3.8224216490    1.0943370086
 H   -2.2988320012   -2.2909020849    1.8215938979
 H   -2.8686335466   -3.3691370230   -1.0262270955
 H   -3.9868233836   -0.8789387454    0.4336998055
 H   -4.2253238613   -1.2033556911   -1.2868703184
 H   -4.9164185151   -2.2861003203   -0.0719610401