19

 C   -0.3153030177    1.3706134911   -0.0378402055
 C    0.0873658951   -0.0868466028   -0.0051212784
 O    0.3799252459   -0.6779557108    1.0164381085
 C    0.0886156571   -0.7987091442   -1.3018473755
 C    0.9089672871   -2.0264140480   -1.6080041484
 C   -0.5881806971   -2.1291860349   -1.6718200798
 C   -1.4040039419   -3.0578501094   -0.8241455060
 C   -1.0747208228   -1.3526793534   -2.8969668889
 O   -0.3328578831   -0.1625858065   -2.5112205118
 H    0.3585481140    1.9320546590   -0.6944728901
 H   -1.3168569245    1.4760259432   -0.4673997853
 H   -0.2880135984    1.7811703058    0.9718340082
 H    1.5098252395   -2.0126072561   -2.5133775976
 H    1.3621917795   -2.4871589802   -0.7371371338
 H   -0.9848306277   -3.1149001113    0.1846203850
 H   -2.4404741929   -2.7141734420   -0.7397251747
 H   -1.4171115320   -4.0704971731   -1.2438769203
 H   -0.7774903598   -1.7231335876   -3.8849485944
 H   -2.1528029102   -1.1542602789   -2.8834581113