15

 O   -0.0437354314    1.0762666010    1.3228558712
 C    0.0585062399    1.3849033426    0.1666210183
 C    1.3969896947    1.6602002400   -0.5101410953
 C    1.2786388703    2.7476350707   -1.5564021391
 O    0.3708973050    2.8378984877   -2.3456073860
 O    2.3118361222    3.6057524744   -1.4914991004
 C    2.2722972719    4.6732926117   -2.4685662386
 C    3.4580253362    5.4943164927   -2.3077949449
 C    4.4277580644    6.1935393341   -2.2011224894
 H   -0.8187713073    1.4790885638   -0.5053074764
 H    2.1662537493    1.8729816506    0.2320490968
 H    1.6755445095    0.7383671217   -1.0404756830
 H    2.2178534926    4.2373774776   -3.4714167876
 H    1.3574487972    5.2566847110   -2.3209222346
 H    5.2865024355    6.8113470604   -2.1046822410