17

 C   -0.2937920936   -1.2331608087   -0.5384630743
 C   -0.1764615589   -0.0663613344   -0.2712160923
 C   -0.0215118865    1.3288288466    0.0754349674
 C   -0.0143999793    1.7075156254    1.5988931113
 C    1.3686044760    2.3970158926    1.4309799229
 O    2.4722340337    1.7475765674    2.0304750043
 C    2.7976545088    0.6650443905    1.1841576606
 O    2.5109983262    1.0751892617   -0.1402518016
 C    1.4218355604    1.9600489883   -0.0639745201
 H   -0.3999495525   -2.2600460084   -0.7870051663
 H   -0.7440367927    1.9337180889   -0.4818773480
 H   -0.8272279221    2.3695822639    1.9031355352
 H    0.0141965973    0.8488827737    2.2714721959
 H    1.4202833418    3.4576620502    1.6789578208
 H    3.8667392078    0.4541122891    1.2690058092
 H    2.2066685295   -0.2287165173    1.4408649974
 H    1.5262432040    2.7071805606   -0.8517408027