13

 N   -0.1380726763    1.4430831036    0.1021082389
 C    0.0141166519   -0.0061536161   -0.0182645274
 C    0.7527025503   -0.4377736199   -1.2313858867
 N    1.3080978924   -0.7234209288   -2.2036878771
 C    0.6729753389   -0.5530741238    1.2153369731
 C    0.2974183927   -1.4736975459    2.1399770644
 N    1.3156223299   -1.5421248694    3.0625229903
 N    2.2441415410   -0.7552503154    2.7691907299
 O    1.8682873976   -0.0759856707    1.5472913477
 H    0.7769951952    1.8800713662    0.1655162839
 H   -0.5908593951    1.8118077000   -0.7287484469
 H   -0.9854104388   -0.4508357903   -0.0750205575
 H   -0.5928713396   -2.0731082996    2.2183520874