18

 O    0.0426794381    1.4441559519    0.1052338615
 C    0.0179236878    0.0377670576    0.0889159731
 C   -1.4184969110   -0.5358459508   -0.0000156716
 C   -2.0489871747   -0.0519916863   -1.2326032083
 N   -2.5044995801    0.3437139106   -2.2190811118
 C   -1.4379593212   -2.0680076005    0.0617357111
 C   -1.1602991623   -2.7104573664    1.4414151045
 O   -2.4462408763   -3.3547780066    1.4517306999
 C   -2.8141502779   -2.7599317390    0.1905963283
 H   -0.2585963661    1.7622255235   -0.7537428208
 H    0.6225153363   -0.3800985174   -0.7300952509
 H    0.4615438801   -0.2906339519    1.0337455230
 H   -1.9918847637   -0.1294869289    0.8430110642
 H   -0.8223230163   -2.4764992740   -0.7431420157
 H   -0.3356082858   -3.4316048091    1.4779526918
 H   -1.0477844585   -2.0017793302    2.2739725876
 H   -3.6703908739   -2.0798783068    0.2877670007
 H   -3.0445152743   -3.5136486057   -0.5702638367