20

 C   -0.0153916794    1.2394452671   -0.3594231488
 C    1.4022390376    1.5463591610    0.1561755795
 C    1.3298142671    0.1461342879    0.8034239371
 C    2.2163518461   -0.9741514305    0.2543043148
 C    1.9125309427   -2.1401409546    1.2051249158
 C    1.8709744657   -1.4704389181    2.5990918018
 C    1.4380559563   -0.0004812778    2.3324916379
 O   -0.0503803674   -0.0164492151    0.3433094607
 H   -0.8098794564    1.9179872042   -0.0262205109
 H   -0.1008167814    1.1061174202   -1.4457326446
 H    2.1755476825    1.6726013226   -0.6043698304
 H    1.4618534769    2.3716686926    0.8688218987
 H    2.0045829556   -1.1848795336   -0.7973719447
 H    3.2699782189   -0.6737752769    0.3379741922
 H    0.9290781739   -2.5525207475    0.9557675423
 H    2.6392708107   -2.9545416538    1.1437478443
 H    1.1938998293   -1.9869124975    3.2839526673
 H    2.8643962958   -1.4948189346    3.0590995960
 H    2.1777525796    0.7067401508    2.7225934097
 H    0.4761708657    0.2497343336    2.7866786610