21

 C   -0.0516997550    1.5159431915   -0.1773138494
 C   -0.0012630420    0.0311499208    0.0807360601
 O    1.2681793488   -0.6257250683   -0.0330271322
 C    0.6200826113   -0.6073992573    1.2523289759
 C    1.3363924206    0.1533482939    2.3529603580
 C    2.3527286868   -0.7732834893    3.0425688703
 C    1.6790844754   -2.0831885506    3.4546570870
 O    1.0955243407   -2.7380358047    2.3404420334
 C    0.0942114298   -1.9542150363    1.7179072991
 H    0.7526408852    2.0492432547    0.3323589640
 H    0.0396597893    1.7120765223   -1.2507516277
 H   -1.0109135065    1.9268922017    0.1561489427
 H   -0.8139727402   -0.5248666045   -0.3953857408
 H    1.8314948605    1.0387216360    1.9486201318
 H    0.5944996938    0.4949061093    3.0881246088
 H    3.1686218176   -1.0001554693    2.3473624240
 H    2.7893408725   -0.2837434926    3.9201575282
 H    2.4020565981   -2.7873424920    3.8760640950
 H    0.9102512304   -1.8867171185    4.2241167745
 H   -0.7500624906   -1.7916461663    2.4128243755
 H   -0.2649466365   -2.5311202306    0.8620484118