17

 O    0.3469880370    1.4028519621   -0.0067530428
 C    0.1460738661    0.0526915369    0.0098182837
 C   -0.0856041809   -0.7026557814   -1.1031788448
 O   -0.2415981856   -2.0117015721   -0.7219195453
 C   -0.1069122948   -2.0692913949    0.6260088852
 C    0.1326942544   -0.8335270055    1.1368055447
 C   -0.1858804913   -0.3655645402   -2.5249380979
 C    0.3253028227   -1.3088831328   -3.5967918587
 C   -1.1544829981   -1.0892346753   -3.4403275330
 H    0.4881654066    1.7053691076    0.8942905613
 H   -0.2064081622   -3.0460552142    1.0690828796
 H    0.2811010348   -0.5796851135    2.1756396406
 H   -0.0473041127    0.6949199076   -2.7036504678
 H    0.8288030618   -0.8754885968   -4.4538331439
 H    0.7304169670   -2.2575252314   -3.2636469257
 H   -1.7379271085   -1.8911469595   -3.0026688613
 H   -1.6764935864   -0.5036445567   -4.1889600040