21

 C   -0.6396701584    1.3914409530    0.0294759604
 C    0.0151128387    0.0120078855    0.0105045705
 C    0.8636641725   -0.2928843656   -1.2486746221
 C    1.7047646201   -1.5134774331   -0.8375002195
 C    3.2351912033   -1.3869890207   -0.6459832430
 O    3.1236886319   -1.5895432522    0.7805175692
 C    1.6914110384   -1.5736302041    0.7105055463
 C    0.9997415388   -0.2637506442    1.1730537133
 O    1.9934220694    0.7435443396    1.2777823508
 H    0.1118237803    2.1856072245   -0.0449704324
 H   -1.3227107245    1.5144406900   -0.8170291412
 H   -1.2198230263    1.5518329821    0.9455575449
 H   -0.7743284549   -0.7511921844    0.0813690244
 H    0.2414425499   -0.4753899403   -2.1291245074
 H    1.5055870583    0.5659095043   -1.4727113366
 H    1.4031186353   -2.4316477587   -1.3434018248
 H    3.8493906564   -2.1650221290   -1.1136888547
 H    3.6493865095   -0.3997009481   -0.8852324506
 H    1.2484105599   -2.4476475972    1.2010166679
 H    0.4760922224   -0.3912900119    2.1316583138
 H    1.5610526091    1.5496809104    1.5750771209