19

 C    0.2588257703    1.0578284754    0.3227070015
 O   -0.4138105428    0.0318800474   -0.3821974751
 C    0.3755477098   -0.5827646063   -1.3393551532
 C    1.4455353837   -1.6319279335   -0.9830670622
 C    1.3838659404   -2.2326636916    0.3766328883
 C    0.2298932013   -2.8718667004    0.5852664576
 C   -0.6630506959   -2.8396308197   -0.6333672617
 C    0.1346509456   -2.0217469525   -1.6577683721
 O    0.1401409615   -2.4405564110   -2.9891400780
 H    1.1268384099    0.6636773729    0.8682564020
 H    0.6018520520    1.8544002250   -0.3543804702
 H   -0.4540964444    1.4795229763    1.0348787388
 H    0.6433027573    0.0481898354   -2.1902009049
 H    2.3754350770   -1.5885796211   -1.5393653483
 H    2.1848379040   -2.1266334666    1.0991964230
 H   -0.0648792058   -3.3541730080    1.5100362705
 H   -0.8535827556   -3.8429241612   -1.0356889040
 H   -1.6352941818   -2.3821110473   -0.4143091456
 H   -0.6654088066   -2.1161190131   -3.4070760364