15

 C   -0.3129541973   -0.9396667230    0.9296495761
 C   -0.0900545787    0.0124529459    0.2307385751
 C    0.1834280418    1.1693709603   -0.6165808880
 C    1.4931466260    1.8586126390   -0.3188587702
 C    2.4154994822    1.5096599825    0.6397784475
 N    3.4567722285    2.4009152751    0.5682315655
 C    3.2168187789    3.3174034827   -0.4225835735
 C    2.0050335509    3.0077150198   -0.9923656163
 H   -0.5194182489   -1.7822101150    1.5415808923
 H    0.1615495385    0.8496604855   -1.6680798021
 H   -0.6451788940    1.8845704475   -0.5152970672
 H    2.4059331400    0.7049755209    1.3558989930
 H    4.2715907875    2.3824713963    1.1551110749
 H    3.9213696417    4.1048739443   -0.6368027911
 H    1.5320682128    3.5418868782   -1.8029935361