13

 O   -0.2376912399    0.3114232716    0.6688552072
 C    0.1116417624    1.1379307793   -0.1366308179
 C    1.3023465060    2.0263859552    0.0158735447
 C    1.4972440741    2.8926279903    1.2116784406
 C    0.9757610516    2.2808886519    2.5100099874
 C    1.8929254272    1.0959205127    2.1619467113
 O    2.2783961588    0.1167307479    2.7060196520
 N    2.4324293577    1.7253393185    0.9359813409
 H   -0.4618539004    1.3136468431   -1.0718443079
 H    1.6590797327    2.4445601259   -0.9228009311
 H    1.8531861490    3.9100472994    1.1011137460
 H    1.3250669795    2.8099118638    3.4002944009
 H   -0.0900968287    2.0712380704    2.5992773359