20

 N    0.4095576979    0.4257219141    1.3013630731
 C    0.0052132943   -0.1793998617    0.2690373054
 O   -0.9432335553   -1.1267508517    0.3673636080
 C   -1.2799055240   -1.8182011249   -0.8443163403
 C   -2.5335305824   -2.6092582869   -0.5926126452
 C   -2.9314982322   -3.8530041634   -1.3437876518
 C   -1.7287928843   -4.7537162496   -1.6612106140
 C   -1.3781409559   -4.8004755679   -0.1379971401
 C   -2.5953714986   -3.9140345633    0.1537248876
 H    1.1127086613    1.1151361165    1.0435881594
 H    0.3521700920   -0.0079112210   -0.7606036533
 H   -1.4449755076   -1.0905921172   -1.6510443519
 H   -0.4434773326   -2.4612659522   -1.1398583600
 H   -3.3849430422   -1.9707793926   -0.3675207333
 H   -3.8973942449   -3.9188928951   -1.8308365456
 H   -2.0381654956   -5.7321859603   -2.0345205104
 H   -0.9733659219   -4.3541851210   -2.3458544398
 H   -1.4822531399   -5.8059483072    0.2741068100
 H   -0.4051431731   -4.4047110314    0.1697380403
 H   -3.2632621250   -4.0335293932    0.9980073018