20

 O    0.0794500732    1.4711382629    0.6585174361
 C   -0.0142988904    0.1413865553    0.1675236023
 C   -1.4219599575   -0.4280568932    0.2355601765
 C   -2.4170094205    0.2565122758   -0.6944345051
 C   -3.8460936987   -0.3040606591   -0.6440839042
 C   -4.8419840538    0.6432740459   -1.2675698470
 O   -5.6241828639    0.3580070603   -2.1370204028
 C   -1.5408886131   -1.8601345765    0.6186752707
 N   -1.9419024121   -0.7994245461    1.5582017903
 H   -0.2779929647    2.0674861491   -0.0056627934
 H    0.3679340601    0.0689076755   -0.8626958923
 H    0.6491832497   -0.4555836433    0.8034532192
 H   -2.4484045266    1.3208119715   -0.4187828386
 H   -2.0359841154    0.2103591742   -1.7229575581
 H   -3.9300630156   -1.2719437125   -1.1446101035
 H   -4.1192752668   -0.4299459637    0.4130656628
 H   -4.8070054604    1.6776947180   -0.8476667629
 H   -2.3571464322   -2.4688855170    0.2418105034
 H   -0.6242920369   -2.4130818244    0.8104234978
 H   -1.2324271643   -0.6523875625    2.2718038390