19

 C   -0.0803809175    1.6012485069    0.0928676593
 C    1.4469706380    1.4058103479   -0.0480611368
 O    1.8062623324    0.7763412670    1.1902668505
 C    0.8165891056   -0.2984215651    1.2666692904
 C    1.4871286198   -1.6394033458    1.1150698244
 C    2.1108827754   -1.9178778378   -0.0275713267
 C    2.1502249094   -0.9303796355   -1.1663413381
 C    1.1400748283    0.2133686626   -0.9994974192
 C   -0.0345740766    0.0498583481    0.0266961656
 H   -0.4281954560    2.0718138400    1.0154378743
 H   -0.5562315279    2.0487046522   -0.7819608053
 H    2.1561116607    2.2017010697   -0.2748695486
 H    0.2726111283   -0.2078330390    2.2111449563
 H    1.4518859655   -2.3472490884    1.9367864448
 H    2.6124068952   -2.8707153722   -0.1757277691
 H    3.1640147830   -0.5143344186   -1.2626802648
 H    1.9636303453   -1.4613616786   -2.1090750423
 H    0.7718432270    0.5691580261   -1.9643978959
 H   -0.9072715158   -0.5735447596   -0.1620112188