14

 O    0.2927451043    1.2212850108   -0.5400360700
 C    0.0523386775   -0.0497830233   -0.0186334135
 C    0.1138344798   -0.3081998891    1.5280073191
 C   -1.2971010309   -0.9234564510    1.4670992523
 O   -2.3184054731    0.0953361492    1.7362477814
 C   -2.4383743667    0.3929860218    0.3983284291
 O   -3.1178078297    1.2349215002   -0.0970765390
 C   -1.4054435526   -0.6332729089   -0.0509744473
 H   -0.3899178794    1.8299829700   -0.2346925700
 H    0.7312202190   -0.7223751087   -0.5478398919
 H    0.9055501858   -1.0000635208    1.8225246594
 H    0.1673924389    0.5862047798    2.1521117044
 H   -1.5349435609   -1.8660896588    1.9538781775
 H   -1.6885569517   -1.3285583612   -0.8377795017