17

 C    0.1919469898    1.3377720464   -0.4435284255
 C    0.0253534850   -0.0522531288    0.1804152628
 O    0.5300816630   -0.0783997567    1.5086232257
 C   -1.4083111521   -0.5610061947    0.1086893625
 C   -2.0804552593   -1.0492992531    1.2282540850
 N   -3.3383954568   -1.4986345003    1.1857966894
 C   -3.9279524881   -1.4677227832   -0.0079124993
 N   -3.3917101755   -1.0466858548   -1.1554149805
 C   -2.1380847473   -0.5993552201   -1.0812050198
 H    1.2353725046    1.6529859897   -0.3617964636
 H   -0.0898635044    1.3466304156   -1.4999383768
 H   -0.4391671026    2.0699249886    0.0741606863
 H    0.6648948707   -0.7585867258   -0.3645855478
 H    0.1495994329    0.6681490076    1.9855677215
 H   -1.5774330871   -1.0861136241    2.1897457640
 H   -4.9530424222   -1.8274015916   -0.0550379802
 H   -1.6969368106   -0.2618891546   -2.0177602438