18

 C   -0.0810442599    1.5398512307    0.0403362546
 C    0.0553982309    0.0167457280   -0.0396196950
 N    0.8702757042   -0.4297419420   -1.1725676797
 C    1.8304223217   -1.1170804658   -0.6736109665
 N    2.8813525013   -1.6495288119   -1.3844690647
 N    1.8218433936   -1.2651896925    0.7188600177
 C    2.8088046573   -1.9104824572    1.5550450290
 C    0.7282095188   -0.5604622226    1.2133403558
 O    0.4348036028   -0.4463350139    2.3804894664
 H    0.9041509240    2.0119062931    0.1002375786
 H   -0.5866319172    1.9164136078   -0.8519512615
 H   -0.6565602168    1.8179822234    0.9273550449
 H   -0.9483428810   -0.4234374793   -0.1163795181
 H    2.7149379173   -1.6281485292   -2.3810094466
 H    3.2359827993   -2.5374306699   -1.0602799930
 H    2.8128015577   -2.9983297002    1.4163844054
 H    3.8120103865   -1.5210123781    1.3551722051
 H    2.5331440594   -1.6944051505    2.5896578277