20

 C    0.3349683635    1.4964500614   -0.1558271466
 C    0.0859812587    0.0198226624    0.0375801223
 O    0.9093314073   -0.8210236639   -0.8352162669
 C    1.3039046542   -1.6733371052    0.2713320350
 C    0.9693683887   -3.1128271996   -0.0311375766
 O    1.6008218602   -3.5134435076   -1.2345168936
 C    2.6662630906   -1.2605623840    0.8695435076
 N    1.9830708802   -0.2089473632    1.6835904996
 C    0.6442687599   -0.7052787047    1.2841414641
 H    1.3603136891    1.7457386610    0.1243565058
 H    0.1661472457    1.7730181973   -1.2011715615
 H   -0.3531453373    2.0801034392    0.4658024960
 H   -0.9737325351   -0.2262192373   -0.1225495866
 H    1.3349971224   -3.7756551722    0.7602694429
 H   -0.1251955517   -3.2289590032   -0.0907955287
 H    1.3629108945   -2.8438756844   -1.8885246971
 H    3.1260533000   -2.0612855463    1.4624464730
 H    3.3987287586   -0.8680854047    0.1586212820
 H    2.1612097649   -0.2827427373    2.6770202402
 H   -0.0455823344   -0.9835549775    2.0828634791