25

 C   -0.0079840483    1.6300627008    0.0990007542
 C   -0.0039701753    0.1024450644    0.0373262398
 O    0.7111585725   -0.3261409597    1.1847265959
 C   -1.4278217411   -0.5121803503   -0.0423994782
 C   -2.1985401371    0.0533106299   -1.2482382106
 C   -1.4341947344   -2.0764887195   -0.0160932984
 C   -2.8607595397   -2.6433745167   -0.0707010396
 C   -0.5709852799   -2.7097639123   -1.1106158674
 O   -0.8348485250   -2.5403802209    1.2223315249
 H    1.0064360682    1.9687190022    0.3255782920
 H   -0.3174180570    2.0864712018   -0.8441711873
 H   -0.6670818569    1.9857339483    0.8986960298
 H    0.5379795555   -0.1950765984   -0.8787047109
 H    0.4844007402   -1.2565108608    1.3315427474
 H   -1.9550708621   -0.1976455386    0.8727883251
 H   -1.6783822794   -0.1551986339   -2.1897017950
 H   -3.2048712599   -0.3640040009   -1.3227287381
 H   -2.3066712868    1.1366825095   -1.1662801627
 H   -3.3129580314   -2.5379367685   -1.0596173216
 H   -2.8283075376   -3.7080829860    0.1766558806
 H   -3.5148760763   -2.1421424144    0.6531004754
 H    0.4802508459   -2.4384855893   -0.9899578280
 H   -0.6451647722   -3.7992635911   -1.0548547629
 H   -0.9000597948   -2.3935323329   -2.1036303288
 H   -1.3887860871   -2.2306616624    1.9488606445