19

 C   -0.0261462514    1.4921756927    0.0510533731
 C   -0.0137327830   -0.0012584948   -0.0118194046
 C    0.0441496704   -0.7795405905   -1.0967794110
 C    0.0067748795   -2.2568864351   -0.7744553042
 C    0.0517503094   -2.2923377733    0.7507043515
 C    1.2293829690   -1.6783476660    1.4449513625
 C   -0.0347741202   -0.8396597795    1.2432070911
 C   -0.8130823314   -0.4351268095    2.3744813369
 C   -1.4668367247   -0.0775188890    3.3199431607
 H    0.8465079633    1.8734897131    0.5960958607
 H   -0.0282899557    1.9334180278   -0.9488343252
 H   -0.9093727085    1.8509393391    0.5919861514
 H    0.1286431496   -0.4085996964   -2.1125895149
 H   -0.9083554612   -2.7283620218   -1.1572469335
 H    0.8462997580   -2.8041423742   -1.2231620539
 H   -0.4965986376   -3.0620933408    1.2794390439
 H    1.4351106096   -2.0121640209    2.4559824909
 H    2.1009644227   -1.3950205394    0.8635190399
 H   -2.0451993977    0.2322482384    4.1544494246