15

 C    0.0650398771    1.3852038503    0.5612543519
 C   -0.0711235614   -0.0590592755    0.1302391838
 C   -1.3437659516   -0.6068975993   -0.3508891950
 O   -0.2921346371   -0.2802724895   -1.2632783630
 C    1.3674191787    1.9775649143    0.1294162646
 C    2.1759744292    1.7676999578   -0.9468266230
 N    3.2458373768    2.6198059476   -0.8148656465
 N    3.1459889442    3.3093772022    0.2285709020
 O    1.9221347110    2.9212767110    0.8880127798
 H   -0.7589912504    1.9701185843    0.1352401399
 H   -0.0172877225    1.4603078242    1.6508775427
 H    0.6488676518   -0.7445420988    0.5785612152
 H   -1.5511991345   -1.6693364513   -0.2378034157
 H   -2.2211793171    0.0363421094   -0.4006854200
 H    2.0664387357    1.0942964634   -1.7784729066