21

 C   -0.2406308785    1.6207971884   -0.1310922695
 C    0.0142324198    0.1223716880   -0.0391758899
 C    1.1709759161   -0.5870585033   -0.8161528228
 C    2.4352979495    0.0935815853   -0.2595877810
 C    2.0809973552    0.0769564506    1.2712889496
 O    2.0193045698    1.3522735918    1.8912185517
 C    0.6931072493   -0.5688436659    1.1930906946
 C    1.0148686090   -1.7534134981    0.2148686023
 O    0.0238416907   -2.7228235367   -0.0054845200
 H    0.6415978331    2.2109523410    0.1141135042
 H   -0.5776593654    1.8869450566   -1.1398512052
 H   -1.0309327362    1.9161027045    0.5678539431
 H   -0.9326655320   -0.3869054308   -0.2562844657
 H    1.1204121956   -0.7648293750   -1.8917524351
 H    3.3453538248   -0.4695618261   -0.4881295944
 H    2.5662329669    1.1177108209   -0.6194138032
 H    2.7721074309   -0.5699462129    1.8305027035
 H    2.9117908046    1.7117482691    1.9180113382
 H    0.1709819305   -0.7297662467    2.1367123017
 H    1.9240326339   -2.3223980330    0.4332282244
 H   -0.8146427775   -2.2869848779   -0.1868416365