19

 O    0.0186071846    1.4331458600    0.0312078037
 C    0.0300143421    0.0003718232    0.0118214876
 C    0.9509991546   -0.5640942482    1.0670966107
 C    0.5230809135   -1.3364171161    2.0654593486
 C   -0.9380094345   -1.6467368307    2.2280650572
 C   -1.8176658976   -0.3797596174    2.5620434484
 C   -2.4054408686   -0.4396382992    1.1529081146
 C   -1.7184333618   -1.7795301518    0.8956290891
 C   -1.3718516117   -0.5930532948    0.0499273931
 H   -0.3782908811    1.6984760138    0.8680398394
 H    0.4605435811   -0.2324012389   -0.9709696831
 H    1.9989534843   -0.2930558832    0.9725587166
 H    1.2180362630   -1.7042282037    2.8161442501
 H   -1.1078249190   -2.4686951997    2.9239265493
 H   -2.5749397071   -0.6081208069    3.3168533594
 H   -1.2777678636    0.5221152513    2.8691609168
 H   -3.4154812915   -0.1422373407    0.8963671104
 H   -2.1194449162   -2.7039934509    0.4979083670
 H   -1.8540308106   -0.5970441160   -0.9244910290