21

 C    0.0191831354    1.3899791751    0.2483614494
 C   -0.0321806270   -0.1301337428    0.0898272507
 C   -1.4559022319   -0.6552708193    0.0756795094
 O   -2.4449649578    0.0353757553    0.0775449138
 C    0.7026140157   -0.6050011967   -1.1749200188
 C    2.2438571495   -0.4069143208   -1.2664543383
 C    2.3449663309   -1.8033075156   -1.9381735720
 C    0.9201725394   -2.1286272652   -1.4122737111
 O    0.9169568072   -2.8003489335   -0.1626530797
 H    1.0538458328    1.7424458799    0.2909462348
 H   -0.4811507386    1.8861183124   -0.5885493881
 H   -0.4906449368    1.7038025194    1.1627109782
 H    0.4578468856   -0.6223626512    0.9417123637
 H   -1.5308496730   -1.7644161978    0.0587273346
 H    0.2189007287   -0.1736838994   -2.0589808137
 H    2.6070606387    0.4524381988   -1.8333878039
 H    2.7056542917   -0.3960752494   -0.2756186027
 H    2.3723778422   -1.7415624463   -3.0297170892
 H    3.1432191749   -2.4701628104   -1.6014986875
 H    0.2346945892   -2.6182174362   -2.1166169086
 H    1.2339358233   -3.6980318163   -0.3040942408