19

 C   -0.1027013245    1.5033249718   -0.0014970217
 C   -0.0128576697    0.0028300459   -0.0261959869
 C   -0.0692123941   -0.7031415796   -1.1572905915
 C    0.0702191538   -2.2060487730   -1.2231401779
 O    1.3356843612   -2.6809087731   -0.7738984443
 C    1.4669298393   -2.8306245069    0.6223021912
 C    1.4123432046   -1.5333326624    1.4436623501
 O    2.3095681282   -1.2473669215    2.2005661115
 C    0.1563539301   -0.6703147509    1.3304118637
 H    0.8052628978    1.9421816030    0.4309369944
 H   -0.2400631340    1.9159614004   -1.0040314236
 H   -0.9383859051    1.8363419847    0.6272852686
 H   -0.1945921586   -0.1798121527   -2.1014408317
 H   -0.7332790698   -2.7013797060   -0.6499092624
 H   -0.0162164212   -2.5425665801   -2.2596108347
 H    0.6817004378   -3.5034985640    1.0166047298
 H    2.4404774681   -3.2912702567    0.8023136010
 H    0.2077151454    0.0727651047    2.1284540353
 H   -0.7145183593   -1.3131025836    1.5258918092