18

 C    0.0126632823    1.5086005430   -0.0443037156
 C    0.0040060971    0.0150658389   -0.0381712475
 N   -0.1277290089   -0.6849414280   -1.0973934911
 C   -0.1047057204   -2.1024007884   -0.7289195176
 C    0.1458969771   -2.1573395478    0.8022469828
 N    0.1558188807   -0.7314321284    1.1532691443
 C    0.2150623505   -0.2305250823    2.4463771528
 N    0.3562874289   -1.2045979741    3.4195881421
 O    0.1082035323    0.9489330768    2.7249851357
 H    0.9316198147    1.8972300637    0.4009208688
 H   -0.0763778461    1.8401148139   -1.0791550551
 H   -0.8075652280    1.9060484961    0.5565092831
 H   -1.0572151487   -2.5693367598   -1.0035721507
 H    0.6777740223   -2.6224269173   -1.2906949847
 H   -0.6405209863   -2.6860039619    1.3493944754
 H    1.1078720309   -2.6281227529    1.0436213112
 H    0.8162984001   -2.0732501294    3.2006262598
 H    0.5730197117   -0.8184106722    4.3253909965