15

 O   -0.0484744261    0.4469166730    1.0856788877
 C   -0.0498227419    1.3472593136    0.2938676983
 C   -1.3053798981    2.0500029589   -0.2576692125
 C   -0.7893066453    3.2771248636   -0.9689322925
 N    0.0246018333    4.1369893952   -0.1032406375
 C    0.7160560282    3.2146500885   -1.0372487037
 C    1.2115576617    1.9600314430   -0.3468198268
 C    1.4249852049    3.7582054481   -2.1608637212
 N    2.0062980598    4.2021103664   -3.0574768397
 H   -1.8162756132    1.3689888014   -0.9487001519
 H   -1.9942030923    2.2783413363    0.5593106533
 H   -1.3491083179    3.7230047232   -1.7834208750
 H    0.0532810288    5.0862250924   -0.4688683794
 H    1.9659761514    2.1578303214    0.4176563807
 H    1.6318209265    1.2446759851   -1.0626094697