16

 C   -0.0215789445    1.4542092893    0.0367014863
 C    0.0002256664   -0.0367884100   -0.0220702769
 C   -0.0390975947   -0.8134487587   -1.1171946353
 N    0.0021575383   -2.1632867992   -0.7178763585
 N   -0.0070496168   -3.3642899214   -1.3285949961
 C    0.0563291209   -4.1777099639   -0.2746120671
 N    0.1050633474   -3.5734715279    0.9542036417
 C    0.0682549852   -2.2970985705    0.6243599634
 C    0.0742173307   -0.9233416534    1.2250675325
 H    0.8764081238    1.8488532344    0.5280102964
 H   -0.0761977174    1.8890301732   -0.9647231922
 H   -0.8816080944    1.8198597859    0.6112992054
 H   -0.0931436407   -0.5544174916   -2.1631230186
 H    0.0681636320   -5.2503246923   -0.3971920057
 H    0.9795552592   -0.7285076584    1.8121213977
 H   -0.7771659238   -0.7574526355    1.8957815871