14

 N    0.0148098066    1.2879341604   -0.1381124233
 C   -0.0301370471   -0.0537326829   -0.0636660778
 N   -1.1514643174   -0.7101624090   -0.0372260857
 C   -1.0768956751   -2.0807893233    0.0404565083
 O   -2.2668762838   -2.7301832800    0.0658963797
 C    0.0843389775   -2.7545680325    0.0890615495
 O    1.2826028502   -2.0611677370    0.0610931336
 C    1.2997284170   -0.7152071292   -0.0144170239
 N    2.3639917747   -0.0141703106   -0.0443296661
 H    0.9216605837    1.7258822876   -0.1557392133
 H   -0.8360603814    1.8201495666   -0.1772950926
 H   -2.9406599008   -2.0402841354    0.0211355949
 H    0.2161632568   -3.8218030597    0.1502787282
 H    3.1972996492   -0.6001517752   -0.0039334215