19

 O    0.2485294206    1.0925649351   -0.3462985887
 C    0.0132279287   -0.2365637972    0.0612212901
 C   -1.4799432696   -0.6000182800    0.1406653924
 C   -2.1982231865    0.1493053731    1.2653127744
 O   -2.1903515221    1.5548180927    1.0256305322
 O   -2.2239628665   -0.2462620891   -1.0211996919
 C   -1.6652202332   -0.6527087105   -2.2625502611
 C   -2.6303292827   -0.4079950586   -3.3259922776
 C   -3.4032404389   -0.2125176600   -4.2238817728
 H   -0.3469592010    1.6462956190    0.1796507134
 H    0.5254258479   -0.8833296023   -0.6596778764
 H    0.4563518589   -0.4584425756    1.0475794303
 H   -1.5539836459   -1.6863301914    0.3264856354
 H   -3.2278457602   -0.2230513399    1.3536731190
 H   -1.6890654022   -0.0143000067    2.2193680025
 H   -2.6043434021    1.6643784786    0.1590917420
 H   -0.7410804425   -0.0946417016   -2.4650523872
 H   -1.4108071523   -1.7248881045   -2.2363509944
 H   -4.0892233502   -0.0376425610   -5.0154970116