23

 C    0.2057939729    1.2985026583   -0.2777407246
 O   -0.2082103146    0.0290051363    0.1855985162
 C    0.5950301103   -0.5088282965    1.2051632786
 C    1.8972784607   -1.1283861297    0.7654616300
 C    0.7152576326   -2.0081067869    1.1451304574
 C    0.7488238148   -2.8470567854    2.4226242582
 C    0.2884285845   -2.0729773297    3.6683341872
 C    0.9256252354   -0.6808605738    3.7327936066
 C    0.4632835427    0.1857873011    2.5509706523
 H    1.2551626013    1.2895402440   -0.6066835901
 H   -0.4307492694    1.5486131754   -1.1302618218
 H    0.0891959478    2.0812210214    0.4850963008
 H    2.1485334814   -1.0555913968   -0.2868543465
 H    2.7499369763   -1.1023158366    1.4378259434
 H    0.2002931550   -2.4519570165    0.2995358838
 H    0.1190488225   -3.7329593274    2.2905772479
 H    1.7672645175   -3.2226504634    2.5867986581
 H   -0.8035497037   -1.9588706647    3.6462615213
 H    0.5258656856   -2.6480547138    4.5701593195
 H    0.6603216238   -0.1793844928    4.6697106223
 H    2.0199976519   -0.7736426120    3.7353904308
 H    1.0031789387    1.1405715721    2.5490360121
 H   -0.6005018381    0.4244476372    2.6819160264