17

 C   -0.1697743708    1.5454998381   -0.0607456434
 C    0.0206081653    0.0409580555    0.0364131880
 O    0.8016318120   -0.4335194326   -1.0863039350
 C    1.9166887105   -1.2020407792   -0.5628432304
 C    2.8486151976   -0.2969996249    0.1968208444
 C    2.1823478768    0.1187037416    1.2918810088
 C    0.8027621354   -0.4912163779    1.2773429201
 C    1.2253879730   -1.8593879441    0.6564173831
 O    1.0627259521   -2.9857592966    1.0063456802
 H    0.7876706404    2.0678245148    0.0078005647
 H   -0.6276416610    1.7973951489   -1.0217312091
 H   -0.8293270949    1.9020733723    0.7376802783
 H   -0.9586096500   -0.4583361814    0.0082377339
 H    2.3108416745   -1.8389943347   -1.3496520902
 H    3.8572317641   -0.0411053300   -0.0988510143
 H    2.5490278806    0.7787165220    2.0674461156
 H    0.2410252847   -0.5169960018    2.2080004755