17

 O   -0.1151151558    1.4342036647   -0.0339041400
 C   -0.0567154677    0.0417429214    0.0104028855
 C   -0.4670256743   -0.6822420962    1.2467023883
 C   -1.3985540778   -0.6683400308    0.0313034412
 C   -2.7069871469    0.0220141702   -0.0305153808
 C   -3.5896317823   -0.6738454147   -0.7539123954
 C   -3.0040815516   -1.9516549907   -1.2989934624
 C   -1.5609879260   -1.9310293275   -0.7695356436
 O   -0.7097317695   -2.7668396291   -0.9537955237
 H    0.6163966516    1.7789122628    0.4893219107
 H    0.7016986018   -0.4249103140   -0.6182043309
 H    0.0080277831   -1.6323312972    1.4685647494
 H   -0.7812063441   -0.0868781394    2.0973222242
 H   -2.8866591045    0.9762827340    0.4467974736
 H   -4.6114331390   -0.3698836443   -0.9458772474
 H   -3.5167364822   -2.8585344281   -0.9535665878
 H   -3.0005089248   -2.0029867611   -2.3954183210