20

 C   -0.0184095808    1.4034378900    0.2308582704
 C   -0.0863141657   -0.0448958356   -0.2647036340
 C   -1.4910909048   -0.6051325955   -0.1982998159
 C   -1.6945072555   -2.0524232155    0.0310895002
 N   -1.8786449995   -1.0655059709    1.1558632873
 C   -3.3382892806   -1.4778178037    1.2102301316
 C   -4.1513545900   -1.3966503116   -0.0695193306
 C   -3.1681149764   -2.5146774819    0.1406471648
 O   -3.5099199464   -3.8517608393    0.1741777774
 H    1.0054860715    1.7870480532    0.1921022021
 H   -0.6445816516    2.0624274551   -0.3810203994
 H   -0.3705563436    1.4679517930    1.2643489664
 H    0.2698372633   -0.1098276702   -1.3008654420
 H    0.5744345273   -0.6755381790    0.3402423056
 H   -2.2136323918   -0.0452740792   -0.7849382165
 H   -0.8798569666   -2.7706535025    0.0652551626
 H   -3.8021728797   -1.5169687332    2.1871300988
 H   -5.1747835347   -1.7192193275    0.1012568288
 H   -4.0580306837   -0.6202706322   -0.8210492011
 H   -3.7332671908   -4.1294136934   -0.7216457465