17

 C   -0.3488934534    1.3476010526    0.1799140827
 C   -0.0259303559   -0.0668683944    0.0667993298
 C    0.2520539328   -1.2369319063   -0.0040212287
 C    0.5432471243   -2.6617687450   -0.1431855572
 O   -0.5767776842   -3.4862084842    0.1688377145
 C    1.0558436373   -2.9677898577   -1.5623656637
 O    1.4710818327   -4.3257215384   -1.6550196676
 C    0.5487209699   -5.2390977674   -2.0306896272
 O    0.7790085890   -6.4091497775   -2.0521743591
 H    0.5174753142    1.9204608114    0.5273912864
 H   -0.6615555436    1.7651073733   -0.7830384047
 H   -1.1622132619    1.5089946277    0.8954344349
 H    1.3278412266   -2.9617403745    0.5617762710
 H   -1.3681311976   -3.0317814776   -0.1406121634
 H    0.2689531738   -2.7462384413   -2.2950811324
 H    1.9300311838   -2.3551188754   -1.7935737761
 H   -0.4100557078   -4.7800176653   -2.3330443892