15

 N   -0.2471689882    1.0229572634    0.6574336934
 C   -0.1224340064   -0.1219495264    0.1458888498
 C   -1.1513204492   -0.8211397855   -0.7180297225
 C   -0.6892663100   -2.2940193288   -0.7355065895
 C    0.8244822183   -2.1382013109   -0.4592839219
 O    0.9733247818   -0.9299618130    0.2939006580
 C   -1.3591034633   -3.0945999461    0.3634308942
 O   -2.0039310384   -4.0932468001    0.1796542789
 H    0.5919059744    1.2801712254    1.1798359759
 H   -2.1583079439   -0.6663799066   -0.3267295073
 H   -1.1254532693   -0.3993427962   -1.7277500785
 H   -0.8826360715   -2.7973380959   -1.6839915955
 H    1.2508065871   -2.9551668971    0.1297681809
 H    1.3851054029   -2.0567003674   -1.3979625447
 H   -1.2087493842   -2.6852620449    1.3897993289