24

 C   -0.0222204762    1.3884921571   -0.0451969683
 N    0.0506358182   -0.0569352620   -0.0537261278
 C   -1.0351046696   -0.6891876110    0.0132503469
 O   -1.0528982131   -2.0341002978    0.0497350751
 C   -2.3377149819   -2.6796170106   -0.0371007049
 C   -2.7064556997   -2.8484689999   -1.5098228167
 C   -2.2226368613   -3.9950848544    0.7506644030
 C   -1.8200870209   -3.7295340097    2.2079613456
 C   -3.5213329856   -4.8117661017    0.6872389005
 H    0.4578517233    1.7877254313   -0.9461932093
 H   -1.0496178447    1.7872000692    0.0031708108
 H    0.5367835679    1.7823318834    0.8117355005
 H   -2.0310351570   -0.2185363223    0.0656047797
 H   -3.0840469731   -2.0382384575    0.4578454745
 H   -1.9958109245   -3.5152534333   -2.0081224265
 H   -3.7128091026   -3.2589527142   -1.6238421738
 H   -2.6787543735   -1.8815900376   -2.0211446788
 H   -1.4219331286   -4.5762440515    0.2733624664
 H   -2.5984876570   -3.1597233579    2.7307571787
 H   -1.6844149013   -4.6722250335    2.7471465719
 H   -0.8881409770   -3.1641072174    2.2647710132
 H   -3.4300150693   -5.7127884711    1.3012518847
 H   -4.3703132731   -4.2358292829    1.0756486321
 H   -3.7666838294   -5.1299377347   -0.3293135573