20

 C   -0.1785789179    1.4850532773   -0.0371480564
 C   -0.0431771146   -0.0340352164   -0.0094289995
 C    1.1509419989   -0.5826810759   -0.8208768775
 C    1.2842144706   -2.0848587223   -0.5464547308
 C    2.3882595848   -1.8374501834    0.4410382926
 N    2.0965720648   -0.3449042355    0.3810242568
 C    0.7896213934   -0.5796364532    1.1710947656
 C    1.0088410040   -2.0903365692    0.9771805358
 C    0.4394696574   -3.2506416910    1.7334012513
 H    0.7889782356    1.9649233596    0.1372290762
 H   -0.5585951583    1.8281313904   -1.0054977510
 H   -0.8740625788    1.8320856580    0.7346031377
 H   -1.0065453649   -0.5254219338   -0.1846364749
 H    1.4381748883   -0.1770639571   -1.7925216482
 H    1.0878462677   -2.9424987448   -1.1772235650
 H    3.3569774215   -2.2909499109    0.6115336915
 H    0.7166572396   -0.1719850886    2.1816089055
 H   -0.6513645332   -3.2993431686    1.6329787791
 H    0.8461404419   -4.1983321663    1.3641777490
 H    0.6735946293   -3.1853231985    2.8021624922