18

 C   -0.0693470428    1.5171096762    0.0144271348
 C   -0.0092775850    0.0213131439    0.0053143333
 C    0.6696624724   -0.8340389901   -1.1018513678
 C    2.0422976169   -1.2323706122   -0.5518637965
 O    1.8978834685   -1.1873178062    0.8813684296
 C    0.5518298766   -0.8477600895    1.1545273926
 C   -0.5147247861   -1.8511093025    0.7198049120
 C   -0.4449514011   -1.8263584364   -0.7720569829
 N   -1.3074150488   -0.8324460009   -0.0572589909
 H    0.9387551521    1.9387997141    0.0971316539
 H   -0.5269257929    1.8987973225   -0.9040286301
 H   -0.6610867979    1.8777736679    0.8619896597
 H    0.6555862036   -0.4297589414   -2.1139715326
 H    2.3366811928   -2.2425521939   -0.8634898123
 H    2.8368045681   -0.5358557026   -0.8496267131
 H    0.4714826923   -0.4677571437    2.1730110720
 H   -0.9974632020   -2.6402822179    1.2833063691
 H   -0.8697748668   -2.6049390073   -1.3946034108