16

 O   -0.5407293184    1.0203367691    0.9353855580
 C    0.1002927823    1.2274390434   -0.0628093892
 C    1.4292245938    1.9365048486   -0.1238284914
 N    1.5453158749    3.0560353332   -1.1863058702
 C    1.2578149386    4.5117526173   -0.6706290092
 C    0.4953506389    4.8917832807    0.6126070879
 C    0.8321903947    3.6816069163    1.4720228550
 C    1.8478881178    2.9994236886    0.8942772552
 C    2.4615722795    3.7887351446   -0.2674214963
 H   -0.2544576644    0.8940805914   -1.0645728767
 H    2.1934677136    1.2045612398   -0.4220907483
 H    1.2394253180    5.1603170715   -1.5416771055
 H    0.8334665845    5.8856732955    0.9399441130
 H   -0.5938999808    4.9473424839    0.5055011091
 H    0.0478936042    3.1689681055    2.0158646384
 H    3.5060448429    3.9676557108   -0.4969508298