11

 O   -0.0510376127   -0.0367010309    0.0036997457
 C   -0.0381146621    1.1619178844    0.0097448587
 N   -1.2484009438    1.9151169568    0.0308718107
 C   -1.1566275918    3.1773139157    0.0354369236
 O   -0.0066852158    3.9063130317    0.0222706782
 C    1.1456589515    3.1565708925    0.0025837215
 N    1.1873652326    1.8834036447   -0.0040327780
 C    2.3115254741    3.9736632015   -0.0102120581
 C    3.2970563067    4.6603904359   -0.0210543484
 H   -2.0227970046    3.8333936457    0.0510064406
 H    4.1757960759    5.2592386121   -0.0307642646