19

 O   -0.8431044496    1.0778379792    1.0009268686
 C   -0.1749950959    1.8757266842    0.3863997312
 N    1.1092925632    1.6555812088   -0.0499938396
 C    1.8153476060    0.4750061758    0.1630840536
 N    2.9929320457    0.3500069474   -0.2808021532
 C    3.7093088313   -0.8775320076   -0.0426666517
 C    3.0373406129   -2.2106529184    0.4109699028
 C    4.0404715758   -2.9547723925   -0.5114723212
 C    4.2641089653   -1.6273070164   -1.2839614989
 H   -0.5322508577    2.8846494625    0.1060606343
 H    1.5941033997    2.3808224101   -0.5598680037
 H    1.2439432291   -0.2636205502    0.7275573612
 H    4.5455140157   -0.6438666691    0.6288287339
 H    3.0303836663   -2.4514967983    1.4764983388
 H    2.0169530830   -2.2946961022    0.0234525540
 H    4.9372858012   -3.2642955030    0.0323595947
 H    3.6640140569   -3.8095454266   -1.0763227627
 H    3.5710265499   -1.5308503147   -2.1248084985
 H    5.2721375912   -1.3794716690   -1.6233292336