15

 C   -0.6059371145    1.3984518604    0.0411358632
 C   -0.0368012039   -0.0056151561   -0.0209897960
 O    1.1890061216   -0.0904417423   -0.8217812360
 C    1.9779901497   -0.5820804625    0.2820396163
 C    3.0918313175    0.3025040831    0.6342626591
 N    3.9678920705    1.0045524096    0.9066024713
 C    0.7423082764   -0.5150973455    1.1678869437
 N    0.4365547987   -0.7680142227    2.3633945079
 O    1.5384710926   -1.2287305401    3.0844117787
 H    0.1362752230    2.1035461386    0.4235627157
 H   -0.9141985377    1.7182038404   -0.9584045252
 H   -1.4811112124    1.4148977316    0.6979171211
 H   -0.7817939599   -0.7171777768   -0.3991443407
 H    2.3602937838   -1.5956923676    0.1059015236
 H    1.1785526647   -1.3519748501    3.9702646772