18

 O   -0.0119603504   -0.0686302240   -0.3007233140
 C    0.0038658190    1.1337832912   -0.1196304542
 C   -1.2863483787    1.9511289094   -0.0407709487
 O   -1.1559105444    3.1739111515    0.6606555019
 C   -0.1606941752    4.0013155968    0.0944067702
 C    0.3532549718    4.9785072701    1.1727780834
 C    1.4801876664    3.9623740136    1.5154019490
 C    1.2176580822    3.2933218886    0.1306126729
 N    1.1537132368    1.8575553288    0.0056777484
 H   -1.6515418226    2.1156661998   -1.0684028840
 H   -2.0281742835    1.3485681098    0.4858832180
 H   -0.4950054544    4.4030221105   -0.8729765002
 H    0.7357314491    5.9034479210    0.7346744586
 H   -0.3676469933    5.2183390218    1.9550802384
 H    2.4824946104    4.3540753435    1.6982083244
 H    1.1939666464    3.2968640653    2.3316442192
 H    1.8863968201    3.7097549255   -0.6312005590
 H    2.0065327203    1.3169095368   -0.0347294543