11

 N   -0.1795088468   -1.1697245933   -0.2196164943
 C   -0.0980520987   -0.0219141380   -0.1084827498
 C    0.0159525778    1.4162511490    0.0438651794
 C   -0.0921112761    2.0121285434    1.4759496930
 O    1.1498251032    2.7178620960    1.3135219336
 C    1.4404203069    2.0384882090    0.0802926736
 H   -0.6425718392    1.9150194367   -0.6698226007
 H   -0.9363833502    2.6859602247    1.6505613760
 H   -0.0458867673    1.2617839315    2.2738150059
 H    2.2444810764    1.3011772903    0.1880046643
 H    1.6801818440    2.7309645906   -0.7323109610