20

 C   -0.1390342470    1.3530520549   -0.1138056090
 C    0.0283413486   -0.1655266714   -0.0115239785
 C    0.7719484078   -0.5869625249    1.2589272061
 C    0.9188148662   -2.1182799606    1.4127529961
 N    1.6803376067   -2.7218841904    0.3169454076
 C    1.1037450915   -3.5202244185   -0.6223046374
 O   -0.0845849705   -3.7431894320   -0.7155564803
 C    1.5288782990   -2.4632345364    2.6977559040
 C    2.0565965818   -2.7129352102    3.7482530362
 H    0.8321227588    1.8607647659   -0.1214799199
 H   -0.6669003691    1.6313699605   -1.0309199235
 H   -0.7108458149    1.7486987841    0.7328776754
 H   -0.9545204458   -0.6515276389   -0.0353104631
 H    0.5695129081   -0.5358516785   -0.8894339514
 H    1.7707086754   -0.1321483764    1.2847857094
 H    0.2426419253   -0.2167106468    2.1448974905
 H   -0.0757519376   -2.5737331655    1.3449053260
 H    2.6862271367   -2.6630197536    0.3515570479
 H    1.8558180439   -3.9447327737   -1.3159647012
 H    2.5044855551   -2.9495884374    4.6817695151