23

 C   -0.0173005893    1.5707994811    0.1492938567
 C   -0.0884662753    0.0475252109    0.0146296555
 C    0.6529420217   -0.5408772267   -1.2079359810
 C    0.5553792515   -2.0755102576   -1.1847844396
 C    0.0574839724    0.0064306762   -2.5247187165
 C    0.6970437387   -0.5758030729   -3.7665471596
 O    0.0813286652   -1.0267763972   -4.7001370438
 O    2.0174821389   -0.0929145834   -1.2520624011
 C    2.8985654480   -0.5567002742   -0.2510467492
 H    1.0184143262    1.9188480171    0.1086203773
 H   -0.5705170367    2.0782851588   -0.6467791513
 H   -0.4495896912    1.8924932538    1.1013619592
 H    0.3205268095   -0.4171163309    0.9201261523
 H   -1.1341739039   -0.2790819749   -0.0354411189
 H   -0.4809067163   -2.3881016538   -1.3426337116
 H    1.1655619634   -2.5203994686   -1.9766982471
 H    0.8818673325   -2.4886828875   -0.2264013363
 H   -1.0206297088   -0.1683616851   -2.5714610164
 H    0.2378759221    1.0884033268   -2.5529232489
 H    1.8070006512   -0.5453701366   -3.7674320638
 H    3.8578463028   -0.0671736123   -0.4375625452
 H    2.5680820799   -0.2909247545    0.7623848446
 H    3.0510467973   -1.6431848884   -0.2933962353