18

 C   -0.0801150275    1.5321388258   -0.0807703654
 C   -0.0703717300    0.0352780138    0.0904681610
 O    1.2168076548   -0.6210146271   -0.0057137209
 C    0.5412618380   -0.6328536497    1.2378873786
 C    1.2158414998   -0.1749978935    2.4992412729
 C    0.4393005264   -0.7501558656    3.6433861108
 C   -0.7343285529   -1.5516108924    3.1002044121
 C    0.2552336666   -1.9321755785    1.9809481173
 N    1.4550521440   -1.6015826018    2.9434615581
 H    0.7186797640    1.9979630311    0.5017529501
 H    0.0613238944    1.8005505718   -1.1327571260
 H   -1.0393915687    1.9477005301    0.2464415047
 H   -0.8627753948   -0.4994116329   -0.4377038877
 H    1.9746266924    0.5881932459    2.6215867932
 H    0.6014557713   -0.4118044695    4.6611448032
 H   -0.9544426658   -2.4016144594    3.7508118745
 H   -1.6631220302   -1.0422402690    2.8229167544
 H    0.2250358481   -2.8841617291    1.4558140089