15

 C   -0.1337088279    1.4545460731   -0.0613889965
 C    1.2641381610    0.9488401424    0.1264025459
 C    0.1153577861   -0.0412626903    0.0335661484
 C   -0.3150160735   -0.7920202270    1.2160780146
 C   -0.7949526516   -2.0571601240    1.3900455851
 C   -1.0137331648   -2.1408407993    2.7893661698
 N   -0.6983532553   -1.0338026032    3.4138159390
 O   -0.2513818723   -0.1701529183    2.4090894424
 H   -0.6191938670    1.9228173739    0.7865954025
 H   -0.4215552295    1.8473997657   -1.0297541229
 H    1.9512432127    0.9889607050   -0.7109716446
 H    1.7203290486    1.0763928330    1.1009149015
 H    0.0331475448   -0.6099059843   -0.8855616441
 H   -0.9645509574   -2.8082831510    0.6373440042
 H   -1.3919571937   -2.9737778459    3.3657139646