13

 C   -0.0368322436    1.3787390756    0.0492053321
 O    0.0237293025   -0.0529036394   -0.0367460694
 C    0.6257254777   -0.5758973689   -1.0913130619
 N    1.1301829571    0.2024511787   -1.9927288535
 O    1.7464546745   -0.4504139735   -3.0702953552
 C    1.7722146174   -1.7844989032   -3.0960014252
 N    1.2965098966   -2.6103731786   -2.2445674160
 C    0.6562494979   -2.0774801973   -1.1232007774
 O    0.1667409614   -2.7457338355   -0.2490728882
 H    0.9701328317    1.8040539189    0.0710260548
 H   -0.5780993912    1.7912448553   -0.8064914502
 H   -0.5651392275    1.5883675656    0.9782552165
 H    2.2848845554   -2.1207644078   -3.9952912864