15

 C    0.0344313280    1.5104080764    0.0587594316
 C   -0.0736215041    0.0174828299    0.0309103257
 C   -1.2003570710   -0.6951357433    0.0651787498
 C   -1.0889787421   -2.1881032441    0.0719843614
 O    0.0852406096   -2.6540256948   -0.6294190101
 C    1.2483728003   -1.9795652689   -0.5207224487
 O    2.2964031506   -2.4704076611   -0.8496352788
 N    1.1416319793   -0.6801311148   -0.0455622972
 H    0.6394937086    1.8420814970    0.9115177917
 H    0.5160018320    1.8907557437   -0.8501309960
 H   -0.9528432894    1.9669556949    0.1441867494
 H   -2.1730328805   -0.2240825372    0.1015352993
 H   -1.0511026849   -2.5920433369    1.0957237161
 H   -1.9288605460   -2.6659196270   -0.4384893958
 H    2.0068529097   -0.1661726438   -0.1002792883