20

 C   -0.1077703252    1.4846996635    0.0644579706
 C   -0.0343946280   -0.0481915915    0.0041652115
 C   -1.4092559037   -0.6804220670    0.2116145374
 C    0.7853769575   -0.5682998694   -1.2327093637
 O    0.8991715420    0.3688573163   -2.2750583948
 C    2.0273479538   -0.8139167359   -0.3163797581
 C    1.0995292355   -0.6020085318    0.8589433025
 N    1.1155773926   -0.8688831857    2.0958742334
 O    2.3504345468   -1.4320705626    2.4787870171
 H    0.8726828638    1.9465708873   -0.0740286029
 H   -0.7667783972    1.8649898452   -0.7212740857
 H   -0.5008048209    1.7972279893    1.0364590657
 H   -2.1089838974   -0.3399818857   -0.5595486722
 H   -1.3560474051   -1.7726641370    0.1704708087
 H   -1.8171123730   -0.4047897000    1.1889139727
 H    0.3698262231   -1.5187714689   -1.5951740750
 H    1.4298198810   -0.0204171242   -2.9770124221
 H    2.5330607276   -1.7806843176   -0.3736308171
 H    2.7705211417   -0.0156017145   -0.4166826183
 H    2.2135868452   -1.5963416300    3.4179109104