17

 O    0.0468202996    1.5379139468   -0.0799460508
 C    0.1129262980    0.1204340538   -0.1259225574
 C   -1.2673548167   -0.5104999034   -0.0009429134
 C   -1.5097585062   -2.0401550691    0.1344138941
 C   -0.6549034234   -2.4976939547    1.3312915389
 C   -1.0399973172   -1.3194720737    2.2557310079
 O   -0.6507603752   -1.0391827806    3.3545793141
 C   -2.0423769150   -0.5850353933    1.3482393537
 O   -2.7762155187   -1.7302725280    0.8094327209
 H   -0.1447426276    1.7987485837    0.8266050520
 H    0.5347727171   -0.1288165407   -1.1059260389
 H    0.8088090864   -0.2678963806    0.6313408810
 H   -1.9384749841   -0.1005517201   -0.7591615585
 H   -1.6134208413   -2.7009901093   -0.7251034100
 H   -1.0045217541   -3.4527866242    1.7306725107
 H    0.4239506148   -2.5551193574    1.1648435505
 H   -2.6541806165    0.2115227108    1.7664274555