19

 C   -0.2470947626    1.4662123582   -0.7192069500
 O   -0.2810646380    0.0762013313   -0.9435623458
 C    0.7798876496   -0.6066929985   -0.3091956381
 C    0.6585800750   -2.0694452591   -0.6045415672
 C   -0.5268422215   -3.0401649872   -0.2561139578
 C    0.4914792525   -3.9746304820   -0.9951570264
 C    0.6841278150   -2.7885626635   -2.0013743166
 C    1.5487373095   -3.2443560401   -0.1560102330
 O    2.5275804379   -3.4535028282    0.4919848351
 H   -0.3266737453    1.7092377511    0.3522219457
 H    0.6798756493    1.9197485429   -1.1044135878
 H   -1.0994217086    1.9029260091   -1.2450561277
 H    1.7545402276   -0.2319228341   -0.6666358017
 H    0.7537289531   -0.4414446249    0.7817573939
 H   -0.7252569202   -3.2385030747    0.7989868291
 H   -1.4420233806   -2.8375984527   -0.8156854452
 H    0.3857047053   -5.0324410310   -1.2210882868
 H   -0.1883264047   -2.5771921438   -2.6225602336
 H    1.6139976364   -2.7524671527   -2.5723285261