13

 O    0.0760350836    1.3942188649   -0.1027603297
 C    0.0535794864   -0.0217089084   -0.0490267765
 C    0.7011305688   -0.5732092283    1.2179485967
 C   -0.1456763681   -1.3024967806    1.9463551949
 C   -1.4865506730   -1.3479146867    1.2796157832
 O   -2.0918961586   -0.0320075423    1.1435710131
 C   -1.3711939829   -0.5864851637    0.0340216807
 H   -0.5191010569    1.6866583318    0.6006253004
 H    0.5661861754   -0.3652997009   -0.9545980640
 H    1.7139825440   -0.3018630447    1.4924415553
 H    0.0610562921   -1.7681774531    2.9022078461
 H   -2.1907423188   -2.1597337288    1.4292848192
 H   -1.9556975420   -0.7788509293   -0.8605674394