22

 C   -0.1210836591    1.4428624526   -0.0443567733
 C   -0.2478796120   -0.0697954945    0.1617778277
 C    0.7819207603   -0.6246765395    1.1469851201
 C    0.4561006594   -0.3539371741    2.6482594095
 C   -0.1049470419   -1.7971950300    2.7693227884
 C    0.6505787278   -2.1534102996    1.4647452969
 N    0.0191902395   -3.0391438338    0.5171837065
 C    0.6531968288   -4.0875464097   -0.0782266093
 O    1.8077702060   -4.4083795457    0.1056405129
 H    0.8650332776    1.7012528214   -0.4452166804
 H   -0.8745715306    1.8124619417   -0.7466839170
 H   -0.2481169930    1.9883838310    0.8966499839
 H   -1.2644791110   -0.3029630527    0.5103206633
 H   -0.1297995726   -0.5794330178   -0.8028817228
 H    1.7830567213   -0.3218737192    0.8229719974
 H    1.3559943146   -0.2071497871    3.2503533242
 H   -0.2375566587    0.4634275671    2.8596828847
 H    0.1386851686   -2.3761090270    3.6629381964
 H   -1.1903139807   -1.8245464106    2.6279074169
 H    1.6297308490   -2.5864246107    1.6727847403
 H   -0.9445077568   -2.8758871886    0.2710107554
 H   -0.0223622965   -4.6346982832   -0.7663744316