20

 C    0.0122398149    1.4846907135    0.0157114631
 C    1.3117919425    0.7600149775    0.0522296598
 C    2.2003645420    0.7181072532    1.2787130265
 C    2.8822514016   -0.6508023267    1.4178032375
 C    1.9671722689   -1.8338506281    1.6735140087
 O    1.1620579716   -1.8341057146    2.8544862486
 C    0.4937839861   -1.8496404756    1.5834215747
 C   -0.3598300110   -0.6296815843    1.2633074559
 N    0.0441617451    0.0202381532    0.0167914951
 H   -0.3067153536    1.9827475684    0.9307350587
 H   -0.3382157484    1.9537243450   -0.8997452264
 H    1.8643001103    0.6778390886   -0.8844941015
 H    2.9696649791    1.4937347153    1.1886294053
 H    1.6383951844    0.9478860001    2.1878106891
 H    3.4412954455   -0.8679482702    0.4976566349
 H    3.6253841887   -0.6214152808    2.2249576623
 H    2.4612712667   -2.7932496019    1.4993707406
 H    0.0357154647   -2.8110361436    1.3481768912
 H   -1.4049091608   -0.9373058571    1.1470233942
 H   -0.3230823186    0.0377066984    2.1365177118