25

 C    0.0275397370    1.6006843507    0.0054403724
 C    0.1273902705    0.0728852623   -0.0038528876
 C    0.6426417629   -0.5078647355    1.3186907047
 C    0.7532062345   -2.0265963641    1.3158673822
 C    1.8440450368   -2.7075766131    0.4359570983
 C    2.0821994497   -3.7258555694    1.5835310938
 C    3.5044059130   -4.1446935178    1.8871420867
 O    3.4826521569   -4.9725333439    3.0424610223
 C    1.3686895259   -2.7430954402    2.5507282494
 H    1.0049298021    2.0601895589    0.1911145543
 H   -0.3439884534    1.9845352674   -0.9500085806
 H   -0.6529407689    1.9477571345    0.7911234458
 H   -0.8580921092   -0.3576597182   -0.2265000184
 H    0.7877148065   -0.2458479684   -0.8209936448
 H    1.6278462374   -0.0758107755    1.5470179456
 H   -0.0220298714   -0.1947657857    2.1366466411
 H   -0.2261566893   -2.4641700431    1.0854608643
 H    1.5534975003   -3.0984014255   -0.5423680780
 H    2.7097379268   -2.0470707587    0.3022367123
 H    1.4744600734   -4.6250744476    1.4369378610
 H    3.9292231569   -4.6786838938    1.0201729669
 H    4.1236974184   -3.2467578088    2.0527322624
 H    4.3874325224   -5.2213621585    3.2521859904
 H    2.0925689999   -2.1000283346    3.0648025001
 H    0.6884247708   -3.1615587612    3.2955231854