21

 C    0.0953276115    1.2936114435    0.2540164306
 O    0.0280099526   -0.0737927281   -0.0723962596
 C    0.6643396038   -0.5289674987   -1.2393516489
 C    0.4095372834    0.1159549241   -2.5787483919
 C    1.7734020241    0.2370006161   -1.9171089724
 C    0.7662940716   -2.0313760354   -1.1783886962
 C    1.3718919932   -2.6744710187    0.0920231088
 O    0.1992107790   -3.4887862525    0.2915073064
 C   -0.4973558213   -2.8375943485   -0.7904454886
 H    1.1195161191    1.6154379036    0.4873110638
 H   -0.3053288730    1.9405135507   -0.5396447243
 H   -0.5216831486    1.4256188665    1.1458815322
 H    0.2978873587   -0.5258161907   -3.4459720248
 H   -0.2010869998    1.0114305969   -2.6111295704
 H    2.0477816352    1.2138250447   -1.5376316182
 H    2.6075291461   -0.3250420593   -2.3235260014
 H    1.2308861295   -2.3947340226   -2.0975737275
 H    2.2745680166   -3.2809564941   -0.0490087846
 H    1.5280997377   -1.9711283340    0.9181540791
 H   -1.3297866170   -2.2221742214   -0.4315530139
 H   -0.8649104125   -3.5555422723   -1.5333294983