20

 C   -0.2674196021    1.4061226075    0.1920148095
 C   -0.0079231798   -0.0572712384   -0.0471644700
 C    0.1405045581   -0.9974430625    1.1239816540
 C    1.3961493913   -0.7292161039    1.9395771377
 C    1.4040464970    0.2698511773    3.0844163651
 C    1.5000296600   -1.2104951620    3.3576507403
 O    0.3890451719   -1.8868588498    3.8732160184
 N    0.1122952538   -0.5911643443   -1.2033812497
 O   -0.0064660226    0.3514336845   -2.2417044287
 H    0.6746917894    1.9648778636    0.2368631978
 H   -0.8583201452    1.8283420544   -0.6224464107
 H   -0.7859792776    1.5585871404    1.1415704624
 H   -0.7346761576   -0.9201498281    1.7781819516
 H    0.1685119184   -2.0203617245    0.7370762331
 H    2.3139203679   -0.7916103460    1.3609110636
 H    2.2767455177    0.8956136339    3.2371242284
 H    0.4583909049    0.7400123742    3.3349564021
 H    2.4624178975   -1.6069338905    3.6813131335
 H    0.2859987263   -1.6295116984    4.7950613887
 H    0.0487347608   -0.2082588074   -3.0229499572