22

 C    0.0283392637    1.3913909931   -0.0342379423
 O    0.1240740954   -0.0109548985   -0.0513225643
 C    0.5392541502   -0.5510964142    1.1860298732
 C    0.6351608064   -2.0552870298    1.0523187297
 C    1.7571552180   -2.6586596517    0.1650200846
 C    1.9545875080   -3.7726412156    1.2322806040
 C    3.3617925291   -4.2464902406    1.5594973087
 C    1.2058049201   -2.8634142254    2.2496095297
 H    0.9967299054    1.8663880859    0.1925703569
 H   -0.2963106983    1.7118655311   -1.0274960971
 H   -0.7047889666    1.7440336529    0.7094282514
 H    1.5198789024   -0.1322353514    1.4767207471
 H   -0.1751231210   -0.2786203656    1.9841747508
 H   -0.3418397362   -2.4470185669    0.7506245581
 H    1.4999295505   -2.9585955682   -0.8531282069
 H    2.6265339878   -1.9921156293    0.1211977319
 H    1.3232882379   -4.6334249182    0.9826186938
 H    4.0111805838   -3.4010594507    1.8150018717
 H    3.3640498110   -4.9371927354    2.4105788856
 H    3.8144634872   -4.7674380545    0.7081008780
 H    1.9126514690   -2.2627819558    2.8347839064
 H    0.4979059661   -3.3322135712    2.9380420792