18

 O    0.0103381862    0.0357485081   -0.0109134232
 C   -0.0283607999    1.2314417339    0.0104890870
 C   -1.1857574357    2.2394848535    0.0387539955
 C   -0.7213081951    2.7786719850    1.4250797045
 N    0.5683519985    3.3843422463    0.9657133966
 C   -0.0259516719    4.3901218429    0.0357804580
 C   -0.6417599127    3.3760324692   -0.9517400991
 C    0.7105367340    2.7817188747   -1.4263550886
 C    1.0911012818    2.2940387521    0.0015065874
 H   -2.1966790884    1.8625676747   -0.0922479772
 H   -1.3644056966    3.5336730264    1.8798931555
 H   -0.5521469338    1.9809296450    2.1556358012
 H   -0.7259763876    5.0302997927    0.5753289573
 H    0.7337908636    5.0248021109   -0.4254979234
 H   -1.3359772091    3.7228183369   -1.7156092999
 H    0.6273873881    1.9417113796   -2.1237259897
 H    1.3809362401    3.5285150308   -1.8569787220
 H    2.1106682985    1.9801648471    0.2056936900