18

 C   -0.2425007186    1.4432378018    0.0252996456
 N    0.0796509588    0.0259956567    0.0901897676
 C    1.4066474883   -0.4648220044   -0.1758901953
 C    2.6215413465    0.4645481456   -0.0962398610
 C    2.6362437293    0.9326324767    1.3425641218
 C    1.6812278264    0.3482223890    2.0700219563
 C    0.8283466899   -0.5471098057    1.2364292959
 C    0.2331350586   -1.7866008170    1.7955224059
 O    0.4352917577   -2.1884284691    2.9154263598
 H    0.5215029977    2.1107275230    0.4438460456
 H   -0.4010991142    1.7057688796   -1.0253442898
 H   -1.1801183415    1.6121092857    0.5627894925
 H    1.4580048948   -1.3353833533   -0.8249064957
 H    3.5358695168   -0.0834029278   -0.3536227926
 H    2.5519446150    1.2985283675   -0.8072374787
 H    3.3382204921    1.6751575515    1.7056008755
 H    1.4985671025    0.4914182569    3.1269172903
 H   -0.4349433102   -2.3184420066    1.0836200662