12

 C    0.0911761494    1.3647831862   -0.0936324571
 N   -0.0240874673   -0.0693603359   -0.2765299959
 C   -1.1110226224   -0.6069962737    0.0203349328
 O   -1.2131610868   -1.9834629204   -0.1581979299
 C   -2.3819960418   -2.5730533417    0.1602673507
 O   -3.3693518951   -2.0471506513    0.5883126340
 C   -2.2863039097   -4.0120247540   -0.0970160899
 N   -2.2707154433   -5.1521163269   -0.2792641507
 H    0.9220180084    1.5679348009    0.5894946791
 H    0.3466494316    1.8236965286   -1.0540513719
 H   -0.8181278317    1.8425431372    0.2991424211
 H   -2.0199408113   -0.1469286388    0.4101850278