18

 C    0.0485336618    1.5140560064   -0.0359868743
 C   -0.0544804034    0.0151474467    0.0814526320
 C   -1.4000041085   -0.6701645366   -0.1838922649
 C   -1.3568328253   -1.9109162960    0.6840871654
 C   -2.3983775389   -2.9351434528    0.6883796654
 O   -3.3822368029   -2.9103059942   -0.0202978735
 C   -0.2459775779   -1.9383797905    1.4464478149
 C    0.6521161226   -0.7999846254    1.1360604463
 N    1.1493577569   -0.7438007326   -0.2650213935
 H    1.0573111616    1.8498319031    0.2156433604
 H   -0.1660308157    1.8368475647   -1.0610851070
 H   -0.6657575051    2.0100716546    0.6295007414
 H   -2.2406939389   -0.0262299969    0.1015224798
 H   -1.5472375468   -0.9094661240   -1.2435085106
 H   -2.2308565007   -3.7624074336    1.4141609037
 H   -0.0118973541   -2.7064965343    2.1763621954
 H    1.3254171451   -0.3895137246    1.8809086695
 H    0.9166416601   -1.6112791040   -0.7461952603