18

 C   -0.4584768762    1.2041090336   -0.4058430766
 O    0.6540579971    1.4723038816    0.4530156982
 C    0.3105918154    0.1093423248    0.2009983789
 C   -0.2161033238   -0.6652408251    1.3580850012
 C   -0.8368551212   -2.0688687586    1.1753467466
 C   -1.6934889388   -1.6684542955    2.3615643710
 C   -0.8662751412   -0.8414653489    3.2935671751
 C    0.5277607642   -0.7062834777    2.7139563969
 N   -1.5171842522   -0.1972470903    2.1019029149
 H   -1.4322791308    1.4468150503    0.0124056925
 H   -0.3077410741    1.4517315529   -1.4555909451
 H    1.0307076765   -0.4290704026   -0.4198524117
 H   -1.4347778508   -2.1239321344    0.2615492706
 H   -0.1801201210   -2.9422256069    1.2468084570
 H   -2.6584395921   -2.0694232812    2.6502884569
 H   -1.1972244641   -0.6075813811    4.2990386017
 H    1.2671407784   -1.4963572596    2.8814244678
 H    0.9556290248    0.2725789486    2.9404776241