11

 O    0.0651758727   -0.0589871303    0.0016065712
 C    0.0053497074    1.1460955201    0.0090057268
 C   -1.2632987152    1.8927451440    0.0304888438
 C   -1.2464043089    3.2364002461    0.0376902510
 O   -0.0818698563    3.9464102718    0.0256801498
 C    1.0662213432    3.2127372318    0.0058822869
 N    1.1793110354    1.9506182084   -0.0026451826
 C   -2.4093382718    4.0661641517    0.0582021697
 N   -3.3627221769    4.7201811130    0.0748738296
 H   -2.1983605990    1.3487991564    0.0402802076
 H    1.9236998194    3.8794953870   -0.0021847837