20

 C   -0.8369851939    1.2397029936   -0.6775672894
 C    0.2765372009    1.6524278096    0.2480174280
 C    0.0347933086    0.1885577656   -0.0299099123
 C   -0.4741384604   -0.6782828811    1.0959022476
 C   -1.7333149695   -1.4528506480    1.2617259185
 C   -2.2725050955   -2.2618200344    0.0681967220
 C   -1.4528916498   -2.1166161997   -1.1843558123
 C   -0.9037338988   -2.8909424927   -0.0155217690
 N   -0.3935866867   -2.1563860987    1.2114656149
 H   -1.8552741481    1.3287885537   -0.3142929495
 H   -0.7247121432    1.4247398234   -1.7408859638
 H    1.1593395597    2.1182938201   -0.1754994376
 H    0.0021983543    2.0276848920    1.2293541793
 H    0.7675196315   -0.2939163288   -0.6692680316
 H   -0.1517677482   -0.2898793800    2.0638023127
 H   -2.2876801692   -1.4183773752    2.1962156623
 H   -3.2445242021   -2.7356795594    0.0896364881
 H   -1.7856244293   -2.7751573923   -1.9829812777
 H   -1.0685897414   -1.1704337256   -1.5304738280
 H   -0.6091405688   -3.9294599820   -0.0924959522