12

 O   -0.7277375921    0.7185899628    0.5379206448
 C    0.0838418225    0.9642413415   -0.3082910741
 C    1.3433186574    1.7981139234   -0.0519363683
 O    2.4673666740    0.9832792043   -0.3158506508
 C    3.3848069330    1.7368299323   -1.0863021120
 C    2.5775861833    2.9112594611   -1.6189551921
 O    2.8738434080    3.7381461715   -2.4216545317
 O    1.3683768681    2.8747273297   -0.9780065179
 H    0.0104418793    0.6009730803   -1.3556219258
 H    1.3449064872    2.1904114159    0.9736852661
 H    4.2238124615    2.1079794922   -0.4815007363
 H    3.7790866077    1.1284000150   -1.9039611221