18

 O    0.0597517356    1.4038472958    0.1215601458
 C    0.0026155294    0.0141934372   -0.0251320898
 C   -1.4507869903   -0.5012793057    0.0597067527
 C   -1.6004454975   -1.9438203963   -0.4009501864
 N   -1.7464097177   -2.1341543888   -1.8557534444
 C   -0.5355224456   -2.6301819694   -1.1935594435
 C    0.7450078161   -1.9104137219   -1.5746897632
 C    0.6594283435   -0.4168297204   -1.3326845748
 O    1.1184273683    0.4162493109   -2.0828435961
 H    0.4970835185    1.7238366511   -0.6849547906
 H    0.5817665633   -0.4764891992    0.7784178683
 H   -1.7942875589   -0.3894669347    1.0921240950
 H   -2.0740125959    0.1469056154   -0.5634082178
 H   -2.2039704432   -2.5827162276    0.2396512097
 H   -2.3875062779   -2.8950083680   -2.0609526732
 H   -0.4334549631   -3.7055658886   -1.0629235353
 H    1.5701382199   -2.2860722826   -0.9529729946
 H    1.0109441755   -2.0887771374   -2.6204008918