19

 O   -0.3508135340    1.4753000205    0.2546789296
 C   -0.2348865068    0.0687872965    0.0673335164
 C   -1.6467213215   -0.5013355068    0.1006244596
 N   -2.4802344537    0.0806352260   -0.9323015123
 C   -2.9167883698   -0.6410529805   -2.0054517683
 O   -2.7821919623   -1.8434320804   -2.1309347115
 N   -3.5230967804    0.1861570365   -2.9867839056
 C   -4.5681646009   -0.3968204500   -3.8057911503
 C   -4.9026487462    0.6426897176   -2.7898975050
 H    0.5043700164    1.8785924120    0.0820623140
 H    0.2339533979   -0.1670786580   -0.8990380985
 H    0.3675599416   -0.3943410790    0.8640148405
 H   -1.6271933183   -1.5801577165   -0.0648181057
 H   -2.0843130723   -0.3064730111    1.0877611268
 H   -2.4564426596    1.0847144506   -1.0189006516
 H   -4.5328768592   -0.1350397063   -4.8591092199
 H   -4.8360377209   -1.4262605352   -3.5878366253
 H   -5.4146608373    0.3163114665   -1.8880809252
 H   -5.1066296127    1.6670368775   -3.0892182075