18

 N   -0.1296642807    1.2324763013    0.0335013409
 C   -0.0014034841   -0.1058751626    0.1209076162
 O    1.0554783855   -0.7138379873    0.1996215512
 C   -1.3305658604   -0.8502614386    0.1144812782
 N   -1.1620786820   -2.1906636594    0.3354014837
 N   -2.4076563019   -0.1798065784   -0.0572762921
 C   -3.6671931725   -0.8391757780   -0.0356723199
 C   -4.8938622131    0.0284965258    0.1208048022
 C   -4.6038283016   -0.6111929472   -1.2083043324
 H    0.6907242242    1.8106351671   -0.0152069444
 H   -1.0588329563    1.6116671802   -0.0622647595
 H   -0.1940731524   -2.4807459736    0.2895230106
 H   -1.8491573502   -2.8347150202   -0.0174380019
 H   -3.7168278819   -1.8188900125    0.4398931393
 H   -5.7157871525   -0.3538446177    0.7154400723
 H   -4.7137037154    1.0928557344    0.2161336887
 H   -4.2303917860    0.0235941363   -2.0029576916
 H   -5.2196175887   -1.4412606696   -1.5366334615