17

 C    0.4402608786    1.2296876044    0.1744899633
 O    0.2627484947   -0.1862500718    0.1161994611
 C   -1.0163910404   -0.6329527395    0.1164764499
 C   -1.0097169980   -2.1452968796   -0.0245526184
 C   -0.8916910812   -2.5515948586   -1.4856780786
 O   -1.6571846803   -3.2904924103   -2.0458374653
 N   -1.9882711842    0.1692575843    0.1937193132
 C   -3.3634402972   -0.2778479012    0.1458850072
 H    1.5186146937    1.3918701190    0.1462407461
 H   -0.0455971729    1.7187573063   -0.6744512112
 H    0.0142953095    1.6370977927    1.0953073389
 H   -0.1207160671   -2.5168934769    0.4975515999
 H   -1.8989486429   -2.6075648482    0.4025072540
 H   -0.0231307687   -2.1007379013   -2.0131805799
 H   -3.5068216683   -1.3431529433   -0.0770114890
 H   -3.8531056155   -0.0556869532    1.1016013255
 H   -3.8962578596    0.2961099173   -0.6203293167