19

 C    0.0090828466    1.5461082229    0.0397953956
 C    0.0442786515    0.0288165183   -0.0178886715
 O   -1.2543107745   -0.5396988455    0.0872284157
 C    0.7742304759   -0.6732339182   -1.1571953814
 C    2.2296309277   -0.7822703708   -0.6812070280
 O    2.3424468197   -0.1145691057    0.5788673559
 C    1.0603352158   -0.7327212238    0.9175176469
 C    0.8242898336   -0.9477399761    2.3775540365
 C    1.2433108507   -1.7962899745   -0.2356873321
 H    1.0223994855    1.9504002830    0.0095962722
 H   -0.5648142170    1.9471311513   -0.8015922532
 H   -0.4666618383    1.8930667914    0.9668664051
 H   -1.7066127916   -0.0958633646    0.8125886529
 H    0.4800865172   -0.7338657642   -2.1973262447
 H    3.0911963367   -0.8276370480   -1.3338860537
 H    0.8797949656    0.0049580170    2.9159971873
 H   -0.1669115805   -1.3839980139    2.5335468341
 H    1.5731520076   -1.6219163838    2.8021641583
 H    1.1791670480   -2.8730590148   -0.2947749762