19

 C    0.0652856868    1.5733019278   -0.1837119536
 C    1.3290040001    0.7706229672   -0.0382581027
 C    2.1477448337    0.8044516358    1.2471219390
 C    1.3895982340    0.1608153804    2.4192123486
 O    0.3208447854    1.0102216287    2.8621463353
 C   -0.8954650557    0.4131586150    2.4098909934
 C   -0.3988013628   -0.5656199219    1.3436564627
 O    0.7890185108   -1.0431155075    2.0058374888
 C   -0.0206711529    0.0737413143    0.0078861335
 H   -0.2123541132    2.2235083562    0.6378278880
 H   -0.1831993800    1.9638812886   -1.1648108898
 H    1.9129893554    0.6255217643   -0.9410895481
 H    3.0684032195    0.2280200795    1.1026259561
 H    2.4409032362    1.8237054490    1.5215882098
 H    2.0507310883   -0.0539499553    3.2646407055
 H   -1.3895572714   -0.1222742994    3.2307384889
 H   -1.5639299851    1.1891555712    2.0296237185
 H   -1.0588569251   -1.4224223824    1.2033323298
 H   -0.3018999940   -0.5071793515   -0.8638580936