18

 C    0.0893981025    1.5270210923    0.3491484189
 C    0.1154374757    0.0532717514    0.0176533929
 C    0.5064008170   -0.5993951150   -1.2487383702
 C    1.6692439328    0.0493225704   -2.0086066022
 C    1.6111764048    1.3507526436   -2.8080468990
 O    2.9214575888    1.7586607844   -3.1506616769
 C    2.3753703788    0.0512476356   -0.6518011743
 O    3.3995552584    0.5106729916   -0.2377740987
 N    1.3780820481   -0.7562609058    0.0221263007
 H   -0.8600885966    1.9644501410    0.0239325358
 H    0.1688301308    1.6600331847    1.4326388013
 H    0.9025582069    2.0895906972   -0.1108391049
 H   -0.6513536235   -0.5046982464    0.5527255117
 H   -0.0344463807   -1.4624872798   -1.6204631933
 H    2.1612788298   -0.7092334326   -2.6294342603
 H    1.0714863678    1.1975181572   -3.7485919131
 H    1.0740304905    2.1323475338   -2.2522514595
 H    3.4397103879    1.7795314864   -2.3358655591