19

 C   -0.0818925955   -1.1697058601    0.3777132609
 C   -0.0501646716    0.0056389410    0.1279396464
 C    0.0140575637    1.4327547879   -0.1820684256
 C    1.4302603782    1.9853654414   -0.1595049049
 C    2.0113958768    2.4600186238    1.1455245902
 C    1.7057911874    3.4686709030    0.0499489417
 C    2.8511598354    3.7900676674   -0.8498365965
 C    3.2688461094    2.7127313967   -1.5189685725
 C    2.4205203586    1.4939649068   -1.2231423567
 H   -0.1179490798   -2.2068286933    0.6015997744
 H   -0.4322489183    1.6059566919   -1.1710591212
 H   -0.6070765136    1.9869626645    0.5330753614
 H    1.3520262188    2.4415603954    2.0080362770
 H    3.0541633153    2.2568647898    1.3674385071
 H    0.9087679951    4.1879253625    0.2091970538
 H    3.2955688902    4.7774301292   -0.9038665114
 H    4.1207492646    2.6796499388   -2.1886027101
 H    3.0164271488    0.6426667750   -0.8723441327
 H    1.8935445363    1.1451058883   -2.1228815212