15

 O   -0.0023230168    1.3516416784   -0.0054711948
 C    0.0397799201   -0.0138716937   -0.0210702595
 C   -0.0023361603   -0.8819988688   -1.0892206311
 N   -0.0387265052   -0.4530154688   -2.4236528992
 C   -0.0125901703   -1.2413064703   -3.5345483589
 O    0.0713166240   -2.4510670168   -3.5483287407
 C   -0.0113441764   -2.2080493049   -0.5626996204
 C    0.0160406342   -2.0952341377    0.8067580051
 N    0.0485355229   -0.7603022673    1.1324063497
 H    0.8957281693    1.7032153510    0.0353110042
 H   -0.1398436832    0.5414886964   -2.5614324103
 H   -0.0771383130   -0.6283789942   -4.4555392752
 H   -0.0281346456   -3.1116254326   -1.1452604912
 H    0.0167375292   -2.8527759398    1.5727385932
 H    0.0088001411   -0.3697110908    2.0572150690