20

 C   -0.0158899666    1.5163679800   -0.0906694956
 C   -0.0175001165    0.0206573569   -0.0616630786
 C    0.0038299582   -0.8259540443   -1.0944658828
 C   -0.0224162607   -2.2623669071   -0.6295671943
 N   -0.0115940746   -2.2047068250    0.8515203973
 C    1.1987332797   -1.6079625206    1.4268005274
 C   -0.0241724228   -0.7700112801    1.2180395385
 C   -0.8815912781   -0.3429691683    2.3885185471
 O   -0.4081419510    0.8513040413    2.9982955045
 H    0.8798599884    1.9209144632    0.3954253254
 H   -0.0518244117    1.8912493408   -1.1169243442
 H   -0.8674745031    1.9271101663    0.4616086999
 H    0.0511204382   -0.5403726370   -2.1396881690
 H   -0.9290059108   -2.7888679405   -0.9575535938
 H    0.8306018396   -2.8508329953   -0.9917197990
 H    1.4511534331   -1.9847768423    2.4164342165
 H    2.0493521441   -1.4181405573    0.7753576875
 H   -1.9006058182   -0.1205570032    2.0544185802
 H   -0.9425826992   -1.1751865141    3.1043413876
 H    0.4972600620    0.6875609066    3.2833554453