15

 N    0.1050069888    1.2228017044    0.6843160696
 C    0.0295883297    0.1116283193    0.1113293502
 C   -1.0867510675   -0.8704156989   -0.1759985081
 C    0.0364195584   -1.7063395567   -0.8261293459
 C   -0.0525448399   -1.9498853579   -2.3299680282
 C    1.1517163516   -2.5565314015   -2.8824924353
 C    2.1488272740   -3.0649520231   -3.3183864986
 O    1.0054910142   -0.6586804890   -0.4915704240
 H    1.0627522284    1.5779998739    0.6805364837
 H   -1.5608209273   -1.3011794400    0.7067466634
 H   -1.8546528390   -0.5001840305   -0.8586782274
 H    0.2958801052   -2.6270538076   -0.2973151341
 H   -0.9182544390   -2.5997791845   -2.5166691798
 H   -0.2608479230   -0.9957344978   -2.8301467935
 H    3.0313772656   -3.5064661302   -3.7104743319