15

 C    0.1030576093    1.5236854000   -0.3502319707
 C   -0.0194567718    0.0640965718    0.0028507546
 N    1.1891744247   -0.7541527423   -0.0813157729
 C    0.5803857345   -0.5465177719    1.2402942492
 C    1.3436119976    0.2140224620    2.2426446198
 N    2.3287230190    1.0439437649    2.0356808703
 O    2.6678102377    1.4844392983    3.2719418497
 N    1.8454776164    0.8758398784    4.2112676441
 N    1.0541754396    0.1179742104    3.5967795428
 H    1.0500144659    1.9352449242    0.0043592549
 H    0.0630070730    1.6493643148   -1.4370732245
 H   -0.7201965216    2.0974462018    0.0878546440
 H   -0.9553992386   -0.4041698622   -0.3015077961
 H    0.9872007962   -1.6933044754   -0.4127057912
 H    0.0203096181   -1.3584881849    1.6960395259