18

 C    0.3750678408    1.0405596443   -0.4935483441
 N    0.0319675181   -0.1236068691    0.3221161312
 C    0.4179570373   -0.0175630439    1.7159655953
 C   -1.2038146667   -0.6971497774    0.0576698309
 C   -1.8169000184   -1.0742328183   -1.1304390260
 N   -1.3499307922   -0.8989346287   -2.4474829577
 N   -3.0248562312   -1.6211070774   -0.8430917874
 N   -3.2181392279   -1.6255319042    0.4471601024
 N   -2.1153924544   -1.0675697776    0.9989762646
 H    1.4559088084    1.2046268998   -0.4464458327
 H    0.0855044008    0.8553623130   -1.5297116816
 H   -0.1325164798    1.9562963240   -0.1494770992
 H   -0.1798793615    0.7192121815    2.2829022126
 H    0.3307943841   -0.9923679602    2.2065423606
 H    1.4647808285    0.2926058554    1.7726278892
 H   -0.5452487131   -1.4865642796   -2.6448324252
 H   -2.0891445019   -1.1547529281   -3.0937443455
 H   -2.0606833608   -0.9725468234    1.9990659324