15

 C    0.0351412865    1.4432017672   -0.0805880317
 O    0.0169164213    0.0157417548   -0.0291926035
 C    0.5895467770   -0.6408829530   -1.0316695629
 C    0.7126390210   -1.9946383024   -1.2324183044
 C    1.4246233624   -2.1104227299   -2.4870244380
 C    1.6654994271   -0.8574770213   -2.9272364716
 O    1.1522196234    0.0623108346   -2.0328731574
 C    0.2452692259   -3.0280021540   -0.3954332313
 C   -0.1453496966   -3.9273139466    0.3048473499
 H    1.0613263226    1.8234414005   -0.0883019924
 H   -0.4911982565    1.8116080073   -0.9665740591
 H   -0.4780595114    1.7738188711    0.8221240214
 H    1.7049715886   -3.0324472681   -2.9703990926
 H    2.1515477575   -0.4373204980   -3.7899447736
 H   -0.4934455490   -4.7114974821    0.9293007971