17

 C   -0.0291956886    1.3175664789    0.0923360601
 C    1.2810864687    2.1358056077    0.1322306633
 C    2.2633350978    1.4376926951    1.0529826705
 C    2.2234082906    0.1159136574    0.9925066873
 C    2.4288153160   -1.1243886557    1.8202854154
 O    1.1142814018   -1.3862960272    2.3658989981
 C    1.3864914265   -1.8386520117    1.0411506530
 C    1.3217579718   -0.6488696791    0.0447478117
 O    0.1366206856   -0.0237301479   -0.3752730526
 H   -0.4668199342    1.3118716961    1.1003566862
 H   -0.7493933376    1.7733729092   -0.5936607787
 H    1.6781791378    2.2526479958   -0.8846769101
 H    1.0536480640    3.1421474880    0.4994807728
 H    2.8481379664    1.9979967987    1.7756185336
 H    3.2828013781   -1.5020469349    2.3668415784
 H    1.2643419197   -2.8960703194    0.8377583668
 H    1.8868949955   -0.9588450008   -0.8493669058