17

 C   -0.1038876330    1.5604043098   -0.0408325857
 C    0.0648351787    0.0598355046    0.0276760098
 C    1.3568973123   -0.6719381696   -0.1799429969
 N    2.5809204611    0.1076866219   -0.1669123088
 C    2.7867350147    0.5016862384    1.0396899463
 N    3.7789483679    1.3073904152    1.4866205836
 C    1.7251383682    0.0523808068    2.0336461679
 O    1.7703405791    0.2492294239    3.2258231499
 C    0.7365868626   -0.6891825523    1.2070695085
 H    0.8080282578    2.0961853492    0.2281991933
 H   -0.3741526489    1.8585338935   -1.0593547332
 H   -0.9043312175    1.8906818015    0.6287899293
 H   -0.8090592094   -0.4883731081   -0.3199780350
 H    1.3780433214   -1.5570048390   -0.8060019649
 H    4.5798838312    1.4723812549    0.9001452808
 H    3.9030291014    1.3451112920    2.4861872047
 H    0.2101131424   -1.5250036526    1.6484666803