18

 C    0.1069905773    1.5653986614   -0.3187389223
 C    0.0737823572    0.1254564500   -0.1094164729
 C    0.0420668836   -1.0672910846    0.0520099330
 C   -0.0067057440   -2.4955440099    0.2854912941
 C    0.4281531625   -2.9868393277    1.6930696972
 N   -0.2133704652   -4.2954788024    1.8934702583
 C   -1.5295442686   -4.1898296831    1.2601602536
 C   -1.4226159244   -3.1263689899    0.1541618884
 O   -2.2669809698   -2.8388125806   -0.6465363730
 H    0.8321782889    1.8386056905   -1.0931773029
 H   -0.8724625398    1.9416528896   -0.6338912120
 H    0.3864588268    2.0952485108    0.5986535751
 H    0.6080446158   -3.0218235245   -0.4625574080
 H    1.5109597011   -3.0650499375    1.8024931972
 H    0.0627448426   -2.2831387713    2.4499423413
 H    0.3302083688   -5.0056628824    1.4134008761
 H   -1.8862172360   -5.1437085215    0.8642729606
 H   -2.2791868567   -3.8394970671    1.9844454864