20

 C   -0.0613244030    1.5007183480    0.0571292701
 C    0.0128925038   -0.0156907230   -0.0090861586
 C    0.7809908355   -0.5180931537   -1.2420319718
 N    0.9612235498   -1.9566427358   -1.1679256898
 C    1.5259043412   -2.4554596206    0.0784518764
 C    0.7323042906   -1.8806492603    1.2514116567
 O    0.6582550441   -0.4654719867    1.1769665345
 C    0.5969432468   -2.8063452696   -2.1680099186
 O    0.7110147415   -4.0140721668   -2.1433659426
 H    0.9435288913    1.9328831372    0.0885821175
 H   -0.5876458534    1.9015108719   -0.8144913359
 H   -0.5944689291    1.8109885751    0.9589730674
 H   -1.0045474443   -0.4431712994   -0.0471071896
 H    0.2379056724   -0.2730084982   -2.1600665865
 H    1.7590486742   -0.0153501433   -1.2769741292
 H    1.4808955546   -3.5455831427    0.0511936270
 H    2.5768529818   -2.1449199859    0.1585634357
 H   -0.2806882308   -2.3144283414    1.2588565227
 H    1.2194308736   -2.1176519436    2.2012495943
 H    0.1707883396   -2.2580979514   -3.0321225899