21

 C    0.0748291324    1.4811184401   -0.0697911405
 C    0.0545803823    0.0256275910   -0.0381833345
 C    0.0437068083   -1.1768287379    0.0101089858
 C    0.0228342576   -2.6403551957    0.0153801102
 C   -1.4504242808   -3.1344201832    0.0635623051
 C    0.7084718359   -3.1709712790   -1.2661977050
 C    0.7133688712   -3.1732302233    1.3046928295
 C    1.1899292013   -4.6181003052    1.3044003761
 O    0.8415058189   -2.4776825754    2.2813305507
 H    1.1007310762    1.8634389056   -0.1115298931
 H   -0.4594354737    1.8704716602   -0.9436553688
 H   -0.3985794230    1.9025746439    0.8237742029
 H   -1.9878208760   -2.7662264191   -0.8145018023
 H   -1.5016876319   -4.2277625915    0.0627485383
 H   -1.9530943040   -2.7583314875    0.9576810528
 H    1.7575460043   -2.8648679804   -1.3083302649
 H    0.6586016903   -4.2617447765   -1.3254299049
 H    0.2047074951   -2.7605715345   -2.1452605964
 H    2.0950151590   -4.7109853978    0.6939131303
 H    1.4242481937   -4.9096502402    2.3288035915
 H    0.4477543630   -5.3014444938    0.8821685173