16

 O   -0.0714358070    0.0972271277    0.4996238817
 C   -0.0596760497    1.1985098452    0.0307992538
 O   -1.1943136476    1.7285987935   -0.4937873426
 C   -1.3710300996    3.1499091896   -0.6319370600
 C   -0.2364655847    3.9401270516   -0.0105959581
 C    0.1542571394    3.6170100688    1.4790968936
 C    1.4451166296    2.9602188927    0.9615203930
 C    1.1161153306    3.3658221571   -0.4452809129
 N    1.1288601182    1.9652193647   -0.0624098442
 H   -1.4504462609    3.3747585973   -1.7026286557
 H   -2.3342704625    3.3808158651   -0.1639968851
 H   -0.3723163196    5.0067907813   -0.1964019000
 H    0.3522842822    4.5300462086    2.0440528428
 H   -0.5197375857    2.9789146344    2.0583019355
 H    2.3993278005    2.8880679913    1.4678044740
 H    1.7533850766    3.6811110809   -1.2629021057