17

 C    0.0694874731    1.5594101300   -0.0805611780
 C   -0.0346100961    0.0411464105    0.0626066267
 N    0.6961160250   -0.4657667184    1.2194730938
 C    2.0743085372   -0.6575114970    1.2379466811
 N    2.8386872519   -0.4175667066    0.2637893607
 O    2.4352093398   -1.1408032644    2.4629644669
 C    1.2741854279   -1.2859551979    3.2847055543
 C    0.1126705962   -0.8199787127    2.4145741902
 O   -1.0591220259   -0.7734072192    2.6986255036
 H    1.1118093780    1.8608414021   -0.2071882072
 H   -0.4939321589    1.8867614245   -0.9593627331
 H   -0.3444129445    2.0635562904    0.7975229093
 H   -1.0723007720   -0.2701031084    0.2050552465
 H    0.3703311147   -0.4567870154   -0.8218197162
 H    3.8030948445   -0.6410905034    0.4998313498
 H    1.1504528987   -2.3320952363    3.5809817737
 H    1.3691188405   -0.6685703777    4.1831563479