18

 C   -0.1043966244    1.5909817262    0.0517263792
 C    0.0760694153    0.0818626843    0.0212918363
 O   -1.1872895761   -0.5714164141    0.0855498187
 C    0.8486454071   -0.6042276151   -1.0919350489
 C    2.2939448265   -0.6836259365   -0.7309946391
 C    2.5026784374   -0.1215483834    0.6682885879
 O    2.7499103213    1.2431497881    0.9190211696
 C    1.0932989378   -0.6532441424    0.9441393750
 N    1.3245674990   -1.7083494818   -0.1932598095
 H    0.8441554335    2.1138075491   -0.0634317068
 H   -0.7925582193    1.8880024451   -0.7460429395
 H   -0.5431007068    1.9044119016    1.0077475927
 H   -1.6568046270   -0.2165420856    0.8480639557
 H    0.4916419933   -0.8132266206   -2.0943693868
 H    3.0484556552   -0.9638579490   -1.4581256107
 H    3.2321725086   -0.7550947591    1.1903288498
 H    3.6980171726    1.3966006202    0.8671686535
 H    0.7876386259   -0.9847023270    1.9352573329