19

 O    0.5637640284    0.2349626708    0.9272277491
 C   -0.1771534750    0.3354236464   -0.2756903944
 C   -1.5301014731   -0.2997663575   -0.1270468855
 N   -2.6468316534   -0.3054159589   -1.1219454208
 C   -3.2811970351    0.9871335281   -1.3719410560
 C   -3.2004533470   -1.0798292873    0.0312941107
 C   -1.8306661908   -1.7735220869    0.2820682335
 N   -1.7339718753   -1.4404759101    1.7408160497
 C   -2.4527179927   -0.2602495888    1.1517214423
 H    0.1547385308   -0.4543990166    1.4720750808
 H   -0.2860289780    1.4002468042   -0.5257490523
 H    0.3545099743   -0.1395510641   -1.1160613716
 H   -2.6500943511    1.5779070019   -2.0430934154
 H   -4.2384221859    0.8221743912   -1.8768402313
 H   -3.4706955153    1.5845166125   -0.4640437554
 H   -4.2049265020   -1.5090673236    0.0370994188
 H   -1.4365857412   -2.6855158296   -0.1652106776
 H   -2.3678259044   -2.0203962877    2.2953770332
 H   -2.7786072733    0.5827415559    1.7603447023