18

 O   -0.3327208855    0.0574562443    0.2403461842
 C   -0.0872389822    1.2044367252   -0.0309329806
 C    1.2015598236    1.9565916156    0.1311374603
 C    1.5927664564    3.0074966176    1.0989538322
 C    1.3606292135    2.7093214159    2.5866446715
 C    0.1389554124    1.8498340165    3.0273423535
 C    1.0086768155    0.5553269777    2.8771912984
 C    2.1902756427    1.4260875300    2.3796935227
 N    2.4306779428    1.7358308665    0.9012505320
 H   -0.8354075412    1.8334039009   -0.5690143576
 H    1.4845217490    2.2590951250   -0.8847255858
 H    1.9485320782    3.9690859822    0.7377763629
 H    1.6839445129    3.5103059437    3.2500776757
 H   -0.1824428318    2.0504134319    4.0516772418
 H   -0.7414443741    1.9152928394    2.3829831650
 H    1.2422677680    0.0986492998    3.8428221512
 H    0.6471626327   -0.2128443748    2.1984740596
 H    3.1642312170    1.2710509126    2.8430123430