13

 O    0.0203872534    1.3923438740    0.0063373254
 C   -0.0478435255    0.0227834114    0.0183780820
 C   -0.4746981139   -0.7603801975    1.1885391109
 O   -1.4576991240    0.0209406136    1.9105463678
 C   -2.3737817431   -0.1129124014    0.8523573830
 O   -3.5041506939    0.2322773029    0.8411349909
 C   -1.3916996904   -0.8137699904   -0.0506641684
 C   -1.6478348472   -1.7982920388   -1.0338487465
 C   -1.8574999387   -2.6289801891   -1.8780856992
 H   -0.4119670601    1.7216990078    0.8061079539
 H    0.7027815259   -0.4262865774   -0.6248578105
 H    0.0218673868   -1.5559223057    1.7276305118
 H   -2.0539705293   -3.3634670694   -2.6197531111