23

 C   -0.2001659331    1.3459673707   -0.0638965469
 O   -0.2250392089   -0.0548924386   -0.1764251783
 C    0.8150879377   -0.5581644440   -0.9942819575
 C    0.7385949778   -2.0694454883   -0.9928865316
 C    0.9183559714   -2.6755198902    0.3882471943
 C   -0.2498531233   -2.7267149790   -1.9465777470
 C    1.2366285465   -2.8430200694   -2.1956960132
 C    1.8803220372   -2.1930235918   -3.4027729432
 O    1.8486433132   -4.0676554817   -1.8633503110
 H    0.7405713636    1.7059993398    0.3833340823
 H   -0.3208762591    1.8391423352   -1.0424331991
 H   -1.0318772028    1.6386192787    0.5818720628
 H    0.7169704160   -0.1455863431   -2.0101009525
 H    1.7934891971   -0.2268893848   -0.6025187241
 H    0.1519168542   -2.2883268408    1.0646285969
 H    0.8561928878   -3.7631179685    0.3558155069
 H    1.8984515130   -2.4109570971    0.8029910314
 H   -0.7647621698   -3.6138179930   -1.5931659217
 H   -0.8387731274   -2.0865321567   -2.5960716270
 H    1.3997216173   -1.2532407395   -3.6826751863
 H    2.9430906400   -2.0030431227   -3.2207904025
 H    1.8059999639   -2.8639349478   -4.2681360362
 H    1.6346029081   -4.6973138376   -2.5605748664