21

 C   -0.2069149187    1.4635644539    0.2313304042
 C   -0.3100129591   -0.0231262915    0.5199600818
 O   -1.1207707725   -0.6180006174   -0.4939112801
 C   -1.2691114627   -1.9888680728   -0.3216328179
 C   -2.4164286895   -2.4419584511    0.5685217309
 O   -3.2101429745   -1.4486465769    1.1445206219
 C   -2.4938827328   -2.6187737954   -0.9408212227
 O   -3.3477844894   -1.7704379070   -1.6340418825
 C   -4.6834419607   -2.2533526358   -1.6552188757
 H    0.4204102403    1.9524577006    0.9825880567
 H    0.2329694123    1.6347630167   -0.7551419232
 H   -1.1959069202    1.9306073124    0.2503542362
 H    0.6876592930   -0.4903172861    0.5126232436
 H   -0.7563246713   -0.2070981645    1.5067584003
 H   -0.3401654834   -2.5615449002   -0.3383234406
 H   -2.3109832258   -3.2983239738    1.2256339865
 H   -3.2018390800   -0.7095562011    0.5213472415
 H   -2.3861032109   -3.6182375350   -1.3671889696
 H   -5.2724984285   -1.5293277913   -2.2228281480
 H   -4.7449729591   -3.2316702720   -2.1545461933
 H   -5.0908741364   -2.3444330716   -0.6410329397