20

 C    0.0478508110    1.3851454722    0.0934921405
 O   -0.0533706403   -0.0157554697   -0.0521767818
 C    0.6295454142   -0.5461089940   -1.1703612796
 C    2.1122281350   -0.7760249799   -0.8697869591
 O    2.7578717247   -1.4171359733   -1.9727396171
 C    2.0475741481   -2.4137738012   -2.5839973291
 C    2.9242436727   -3.1665394755   -3.5408110683
 N    0.8263178060   -2.7061503058   -2.4139150784
 C    0.0099549613   -1.8979995580   -1.5163725964
 H    1.0788542927    1.7194794444    0.2790778461
 H   -0.3309233641    1.9116796448   -0.7955309870
 H   -0.5648980066    1.6617624413    0.9547293419
 H    0.5431473770    0.1340617629   -2.0327578504
 H    2.6579440741    0.1553555099   -0.7025367159
 H    2.2039104916   -1.4008777507    0.0282975474
 H    3.7562596851   -3.6358985974   -3.0060288462
 H    2.3377279885   -3.9282520000   -4.0523028792
 H    3.3593988706   -2.4796027009   -4.2737830626
 H   -0.1659843668   -2.4492399128   -0.5831882417
 H   -0.9730785048   -1.7557513463   -1.9775925331