20

 C   -0.1784469702    1.4808556500   -0.1140911154
 N    0.0807674321    0.0555944388    0.0441127385
 C    1.3968453121   -0.5281947624   -0.1538537554
 C    2.5193455586    0.3201599602    0.4233928625
 O    3.0870486728   -0.3925302982    1.5396709590
 C    1.8656719845    0.3462098780    1.7466111756
 C    1.8470108623    1.3620013948    2.8438295558
 C    0.7211825585   -0.5305647612    1.2099804959
 C    0.0609146753   -1.6475025934    1.9629612332
 H    0.6251195130    2.1435099903    0.2344536271
 H   -0.3524659393    1.6855900942   -1.1753821032
 H   -1.0944481139    1.7339031203    0.4295796672
 H    1.5065141274   -1.3517518783   -0.8508001906
 H    3.1488457935    1.0639151595   -0.0513193085
 H    2.7810423648    1.9298281771    2.8530953110
 H    1.0103214750    2.0570430980    2.7240639803
 H    1.7388681143    0.8737345228    3.8188435228
 H   -0.6146988190   -1.2607047753    2.7351422694
 H   -0.5284168290   -2.2682738301    1.2837104406
 H    0.8137599870   -2.2726879350    2.4531684940