19

 N    0.1111518834   -1.2322018979    0.3231940185
 C    0.0558780363   -0.0851437918    0.1995077571
 C   -0.0368191535    1.3727692788    0.0350185161
 N   -0.7203046680    1.9366599763    1.2100276827
 C   -1.3356569624    3.2427321715    0.9656788129
 C   -0.3247271480    4.3917392171    0.9217831845
 C    0.6057398334    4.3902498959   -0.3035182640
 C    1.6038297145    3.2584413268   -0.3581835622
 C    1.3485060464    1.9615010030   -0.2067827052
 H   -0.6357450123    1.5349309667   -0.8851839506
 H   -1.4409918475    1.2850546560    1.5006465088
 H   -1.9314216938    3.2520401774    0.0315544871
 H   -2.0350196482    3.4205627582    1.7887790452
 H   -0.8894339970    5.3318673687    0.9224236081
 H    0.2740195138    4.3692764152    1.8384091152
 H   -0.0097983758    4.3769916944   -1.2164636696
 H    1.1500286171    5.3393648715   -0.3312260875
 H    2.6371774566    3.5401226097   -0.5467669093
 H    2.1602508748    1.2449655924   -0.2764952076