17

 C    0.2430120935    1.3154431425   -0.0784472913
 C   -0.0258511837   -0.1237007543    0.2752483996
 O    0.8467154104   -0.9135254684    0.5672989026
 C   -1.4737267489   -0.5987548571    0.2565967808
 N   -1.6062458383   -1.9242674289    0.5218688601
 N   -2.3816528792    0.2656301441   -0.0431559609
 C   -3.7567705003   -0.2251544767   -0.1474386250
 C   -4.2977674491   -0.4743357537    1.2519419852
 O   -4.2359480981   -1.5478412474    1.8066022629
 H    1.3121068200    1.5129316630    0.0034739629
 H   -0.1081824398    1.5228084545   -1.0933331196
 H   -0.3252405271    1.9780730657    0.5797336734
 H   -0.7533943520   -2.3845431783    0.8067604417
 H   -2.4848293897   -2.2760714510    0.8755562657
 H   -4.3584737989    0.5400466592   -0.6476946393
 H   -3.8208733211   -1.1660320461   -0.7138768727
 H   -4.7042180979    0.4131826430    1.7800978939