17

 O   -0.0016396632   -0.0647047050    0.0500896802
 C   -0.0153389365    1.1502127897   -0.0075872755
 N   -1.1611963217    1.9181353736   -0.0387899257
 C   -1.0962422351    3.3524272900    0.0696328327
 C   -0.0579632754    4.0705864413   -0.8508265602
 C   -0.0562444784    5.2331138620    0.1715780129
 C   -0.0306535090    3.9582482090    1.0472409886
 C    1.0202635956    3.3749100851    0.0405108055
 N    1.1126579322    1.9422897236   -0.0700745832
 H   -2.0211741683    1.4246710211    0.1292568056
 H   -2.1006373927    3.7781371305    0.1060662501
 H   -0.0735024818    4.1231749148   -1.9395600913
 H    0.8403178192    5.8570211079    0.1946193431
 H   -0.9648822121    5.8378452828    0.2194579521
 H   -0.0148770905    3.8818947679    2.1348691298
 H    2.0160127333    3.8218665961    0.0494234526
 H    1.9872214944    1.4672499895    0.0740939527