19

 C    0.0426889082    1.3858775451   -0.0012907584
 O   -0.0340705655   -0.0230540618    0.0076849755
 C   -1.3275326682   -0.5576251809    0.0194986311
 C   -1.3560870276   -2.1096441333    0.0319730674
 C   -2.9166633299   -2.1341366800    0.0407999548
 C   -3.1458065489   -1.2478716118    1.2822432870
 C   -2.2065338487   -0.3042221667    1.2715792988
 C   -3.1596382523   -1.2676094606   -1.2119721364
 C   -2.2203086614   -0.3240939792   -1.2267235998
 H    1.1040905996    1.6445679213   -0.0140547607
 H   -0.4345494448    1.8240377052   -0.8893574380
 H   -0.4155991924    1.8343111288    0.8916159499
 H   -0.9160615380   -2.5451179359   -0.8683270863
 H   -0.9060737142   -2.5308310949    0.9341346729
 H   -3.4075061777   -3.1062855908    0.0512087432
 H   -3.9611889769   -1.3729413926    1.9823803885
 H   -2.0712863267    0.5185340230    1.9599168800
 H   -3.9825706845   -1.4038876504   -1.9010929339
 H   -2.0922812900    0.4873679154   -1.9297111556