21

 C    0.0375202659    1.4992670647   -0.0136466583
 C    0.0190627017    0.0429992233   -0.0281198865
 C    0.0148809122   -1.1615101142   -0.0363539020
 C   -0.0054498724   -2.6209315290   -0.0339770746
 C   -1.4234155353   -3.2399841572   -0.0099839789
 C   -2.2173687153   -2.7997961118   -1.2401895147
 O   -3.5425122599   -3.3325738954   -1.1477107625
 C   -1.3279576659   -4.7730771494    0.0888846871
 O   -2.5536254690   -5.3974473445    0.3993448388
 H    0.8575942655    1.8800408745    0.6052477320
 H    0.1673076262    1.9085622743   -1.0217324614
 H   -0.8961455582    1.9058458233    0.3906570879
 H    0.5385587308   -2.9985575261   -0.9117680989
 H    0.5466288212   -2.9899441254    0.8396321254
 H   -1.9497329569   -2.8792192985    0.8818730017
 H   -2.2463976968   -1.7040929540   -1.2949382437
 H   -1.7152776451   -3.1712938477   -2.1484341857
 H   -4.0074036983   -3.1447464781   -1.9679012538
 H   -0.8986367418   -5.1626702533   -0.8536936403
 H   -0.6284905293   -5.0442611856    0.8891053572
 H   -3.2162796192   -4.9920857298   -0.1763160485