18

 C    0.1911996391    1.5155934652   -0.1227002502
 C   -0.0789688429    0.0210668959    0.1312863866
 C    0.6647273542   -0.5187446213    1.3049098091
 C    0.2720125606   -1.0384709286    2.4724168950
 C    1.6186215861   -1.3677837593    3.1392043973
 C    2.4240525487   -0.0561664429    2.8923926095
 C    2.2050859179   -0.6161220272    1.4556215048
 O    2.3667715606   -1.9589063203    2.0201588490
 H    1.2556065997    1.7043338329   -0.2972191923
 H   -0.3576266329    1.8649454599   -1.0023975567
 H   -0.1186638090    2.1199314242    0.7353986234
 H   -1.1531583601   -0.1396418795    0.2763194100
 H    0.2015255920   -0.5449213419   -0.7683005723
 H   -0.7178606473   -1.2069432793    2.8711525938
 H    1.6526353421   -1.9425127690    4.0636888450
 H    1.9694514543    0.8990256644    3.1635626925
 H    3.4645460876   -0.1288833797    3.2182679714
 H    2.8530695194   -0.3982111734    0.6064964043