21

 O    0.0132630617    1.4995517877    0.0331251633
 C    0.0428504969    0.1009015798   -0.0032614468
 C   -0.3358350963   -0.6877700493    1.2243521368
 C   -1.2495574276   -0.6750254370   -0.0093312376
 C   -1.2999098490   -2.1576457556   -0.4399522747
 C    0.0594340523   -2.6211213738   -1.0184210360
 C    0.9917999206   -2.6341036427    0.2404068879
 C    0.0467334863   -2.1764241822    1.3782268472
 C   -1.2773368363   -2.8575112018    0.9439868001
 H   -0.7263937640    1.7772307841    0.5832708129
 H    0.8751649817   -0.2078662025   -0.6228999667
 H   -0.5853204912   -0.1262991857    2.1206323263
 H   -2.1740550733   -0.1041541624   -0.0244153659
 H   -2.1506872274   -2.3849452919   -1.0844526306
 H   -0.0389716541   -3.6245626097   -1.4429218442
 H    0.4219407215   -1.9690018747   -1.8169012024
 H    1.3592713309   -3.6440256749    0.4448571368
 H    1.8676573788   -1.9891100969    0.1350526018
 H    0.4128965574   -2.4206974277    2.3767874008
 H   -2.1266619552   -2.5822342217    1.5758874461
 H   -1.2099299336   -3.9499694011    0.8827779847