18

 N   -0.1124141517    1.2888784414   -0.0205313292
 C   -0.0542549174    0.0250865791   -0.0347402807
 O    1.1141056697   -0.7071549748    0.0102480100
 C    0.8338091358   -2.1249903761    0.1365159116
 C   -0.5880369780   -2.2942113138   -0.4142043168
 C   -1.6206179095   -3.2493511917    0.2165039948
 C   -2.9391613718   -2.4141345893    0.2222214292
 C   -2.4386775015   -0.9824746324    0.2657827716
 C   -1.1571231283   -0.9365731436   -0.0915002228
 H    0.8257511214    1.6864199378    0.0546783474
 H    1.6118270737   -2.6561819248   -0.4152584112
 H    0.8911916057   -2.4040342643    1.1968320503
 H   -0.5342762322   -2.4372466378   -1.5029622305
 H   -1.7208887806   -4.1998549224   -0.3130772343
 H   -1.3329578299   -3.4724924324    1.2504595343
 H   -3.5332492753   -2.5964068576   -0.6852578253
 H   -3.5898194705   -2.6591122863    1.0682839386
 H   -3.0419561795   -0.1372597409    0.5736675230