17

 O    0.7047800285    0.3844213753   -0.7341815361
 C    0.2680905217    1.3121680403   -0.1344852444
 C   -1.0990219599    1.8724126293    0.2539363292
 C   -0.2817819928    2.9894662457    0.9248765556
 C   -0.3390816416    4.4221961541    0.4051328019
 C    0.3824228877    5.1728315474    1.5264727183
 O   -0.0623558950    4.5388283053    2.7234186745
 C   -0.3131704380    3.1656220554    2.4506045530
 O    0.9670002020    2.3150781085    0.4861078093
 H   -1.7224519312    2.1725293628   -0.5901747228
 H   -1.6733920079    1.2262974597    0.9208172856
 H    0.1255313389    4.5211621396   -0.5777712949
 H   -1.3832162170    4.7473285660    0.3435416873
 H    1.4734140465    5.0818719282    1.4139942971
 H    0.1245332928    6.2325993670    1.5917240438
 H   -1.2923867720    2.9024112723    2.8679129340
 H    0.4481466472    2.5224745632    2.9106902886