18

 C   -0.0283372167    1.4139276993    0.1032985067
 O    0.0002604224    0.0150983663   -0.1391312126
 C   -1.2578032263   -0.6143503977   -0.0525211689
 C   -1.2176792245   -2.0047594065   -0.6507177067
 C   -0.2723795480   -3.0173709478   -0.0346106518
 C   -1.7150409488   -2.9636144518    0.4010616255
 N   -2.0124758396   -2.1704911707    1.5609638955
 C   -1.6806219366   -0.8464077086    1.4287841772
 O   -1.6773886425   -0.0205348248    2.3156573753
 H    0.9936668029    1.7736121843   -0.0377761653
 H   -0.6871694187    1.9243525123   -0.6170551186
 H   -0.3661208194    1.6425066544    1.1181071000
 H   -2.0271742910    0.0010182744   -0.5465839481
 H   -1.5016000489   -2.1318667309   -1.6870969210
 H    0.0361516667   -3.8396335157   -0.6709414782
 H    0.4834582712   -2.6622970704    0.6568208511
 H   -2.4085016219   -3.7639002799    0.1711294117
 H   -2.0962261704   -2.5676734061    2.4851272583