21

 C   -0.0775572469    1.5202106004   -0.0292850795
 C    0.0715607111    0.0041740455    0.0146630083
 O    0.7785262689   -0.3929842924   -1.1703525931
 C    0.9046723058   -1.8109221591   -1.2598667021
 C    1.9068178885   -2.3454115488   -0.2326276097
 C    1.7119869793   -1.7019336931    1.1372868251
 C    2.2874202013   -0.3178154409    1.3616397138
 O    3.0311266815    0.3276549098    0.3714011713
 C    0.7943958000   -0.4840789419    1.2594981685
 H    0.9019791984    2.0028124449    0.0206474997
 H   -0.5796772722    1.8277874070   -0.9507087609
 H   -0.6723521760    1.8624264433    0.8229614037
 H   -0.9278051643   -0.4616922432   -0.0225310253
 H   -0.0850545592   -2.2690989479   -1.1092906105
 H    1.2259328369   -2.0259630782   -2.2829285880
 H    1.7985298245   -3.4319127128   -0.1587777342
 H    2.9264986402   -2.1485352150   -0.5861025734
 H    1.7373171303   -2.3801968004    1.9842355854
 H    2.7104455986   -0.1042610871    2.3379350309
 H    2.5302872724    0.2621451916   -0.4554666168
 H    0.2132765408   -0.3849117117    2.1723341566