14

 N    0.0852796740    1.2136800603    0.4184213230
 C    0.0904035047   -0.0364204787   -0.1165845101
 O    1.0691472660   -0.5312472778   -0.6384637661
 C   -1.2495542465   -0.7773010544   -0.0633307571
 C   -1.0008469396   -2.2704198843    0.2032583856
 O   -0.5367757972   -2.5178181475    1.5165123062
 C   -2.2081164887   -3.0648270426   -0.0946121929
 N   -3.1714099151   -3.6717895274   -0.2926095221
 H    0.9389623438    1.7475350260    0.3928060031
 H   -0.7151202431    1.6014874523    0.8848506122
 H   -1.9296308573   -0.3668103067    0.6910651458
 H   -1.7340629548   -0.6553712620   -1.0389677612
 H   -0.1898391363   -2.5856728130   -0.4607748629
 H   -1.2651491199   -2.3709167243    2.1309622962