16

 O   -0.7768572965    0.9712026480    0.7536998771
 C   -0.2803826547   -0.1551076462    0.1400907782
 C   -0.1622973331   -1.5177817080    0.7955357029
 C   -0.9927345813   -1.3479208993   -0.4513944475
 C   -2.4234920172   -1.7600555781   -0.6774343230
 C   -3.2289981860   -1.7185450372    0.5399368477
 N   -3.8553677758   -1.6917990453    1.5100378782
 O   -0.1550255911   -1.3582433355   -1.6092449122
 C    0.5209355214   -0.1454226932   -1.1599974896
 H   -0.3211056350    1.0974679601    1.5926001039
 H    0.7619201098   -2.0893075047    0.7598132973
 H   -0.7411330264   -1.6090106970    1.7103080092
 H   -2.8794922041   -1.1149075747   -1.4370877936
 H   -2.4414713856   -2.7827230906   -1.0762579300
 H    0.2669936693    0.7001543540   -1.8078912500
 H    1.6077234664   -0.2722166624   -1.1047892986