21

 C   -0.6496138455    1.3199622452   -0.1014998939
 C    0.1913612409    0.0636810648   -0.0485532523
 O    1.5013854399    0.2418081156   -0.6519736618
 C    2.1181966282   -0.4758119659    0.4146449127
 C    3.0332042248   -1.6307431569    0.1854048562
 C    3.5580988380   -0.3206117551    0.7623803889
 C    0.8551771488   -0.4465318820    1.2733018577
 C    0.8934610028    0.5315612347    2.4394514530
 O    0.4615233038   -1.7368637341    1.6937013922
 H   -0.1467570236    2.1631330983    0.3787970152
 H   -0.8457204423    1.5925069355   -1.1434416959
 H   -1.6156435441    1.1580675088    0.3894562205
 H   -0.3334407874   -0.7757920955   -0.5253911612
 H    2.9372474483   -2.4870515222    0.8437648944
 H    3.2891355518   -1.8605323854   -0.8431874852
 H    4.1533540988    0.3103310151    0.1107334575
 H    3.8443628675   -0.2892536015    1.8089616251
 H    1.2775938180    1.5068417822    2.1313442514
 H   -0.1073749498    0.6815930859    2.8634333988
 H    1.5449906658    0.1420921337    3.2279297421
 H   -0.2235372647   -1.6415067715    2.3633475645