16

 C   -0.0281542911    1.5096837927    0.0060294654
 C   -0.0056475237    0.0109305379   -0.0181483338
 C   -0.0342947846   -0.7032673643   -1.1640122911
 N   -0.0125461192   -2.0824637224   -1.1652225575
 C    0.0391009923   -2.7789496450    0.0030589939
 O    0.0530032741   -4.1159720514   -0.2057469665
 C    0.0706714755   -2.1404281242    1.2015146628
 C    0.0506467038   -0.6877034484    1.2856351611
 O    0.0779113778   -0.0684329873    2.3476285679
 H    0.8614111459    1.8969747450    0.5136982970
 H   -0.0760280635    1.9341824716   -1.0007656375
 H   -0.8848068613    1.8689837584    0.5855998352
 H   -0.0757608989   -0.2483777238   -2.1466695318
 H   -0.0345231642   -2.6022021157   -2.0271391935
 H    0.0894084072   -4.5608023405    0.6478601792
 H    0.1117638499   -2.7052213325    2.1259095593