16

 C    0.0002738668    1.5345887070    0.0770515934
 C    0.0339328253    0.0391980101    0.0437471692
 C    0.0065834177   -0.7474592637   -1.0981076039
 N    0.0548397984   -2.0807189721   -0.6828964744
 C    0.1104493299   -2.1242589619    0.6707132569
 O    0.1629227213   -3.3406765802    1.2611841145
 C    0.0999813789   -0.8373061455    1.1655048656
 C   -0.0566362953   -0.3981770389   -2.4567156503
 C   -0.1109507602   -0.1087108805   -3.6276303673
 H    0.8954970845    1.9467942250    0.5573978352
 H   -0.0563594194    1.9424067294   -0.9352782562
 H   -0.8647761529    1.9052018701    0.6394529167
 H    0.0490841976   -2.8829838243   -1.2885097055
 H    0.1984406432   -3.2145917638    2.2142609995
 H    0.1352574523   -0.5545248217    2.2067648906
 H   -0.1587697880    0.1543978109   -4.6546292840