20

 O    0.0011573824    1.3369030520    0.2443464400
 C   -0.0203105369   -0.0158765161   -0.1820714165
 C   -1.4091005829   -0.5724907148    0.1021882626
 C   -1.5327116378   -2.0554968697   -0.2741556273
 C   -2.9105607312   -2.6269252474   -0.0084916678
 C   -3.0552255029   -4.0203728197    0.5309373475
 N   -3.3807912216   -2.8773220088    1.3761227822
 C   -4.0171471032   -2.1690716799   -0.9039135610
 O   -3.8550881973   -1.5496086673   -1.9256332943
 H    0.8586816071    1.7101123715    0.0211949584
 H    0.1983901156   -0.1008269554   -1.2590015620
 H    0.7389729009   -0.6136958666    0.3509431742
 H   -1.6275975291   -0.4284260464    1.1675603983
 H   -2.1438514113    0.0146170157   -0.4566652867
 H   -1.3125270978   -2.1810329123   -1.3406265166
 H   -0.7887184693   -2.6449863095    0.2770970076
 H   -3.9032920059   -4.6364445131    0.2433752526
 H   -2.1309222484   -4.5676106725    0.6965898408
 H   -2.6203498283   -2.6832223185    2.0237627879
 H   -5.0273614620   -2.4661011012   -0.5450353798