16

 C   -0.0464577110    1.4746784509    0.0031847371
 C    0.0509977267   -0.0251812127   -0.0743552642
 C    0.7380329623   -0.7089135594   -1.2076563145
 N    1.4018569353   -0.6151865482    0.1122955875
 C    1.3293229161   -1.9305658049    0.6852872178
 O    1.6867656433   -2.2401576783    1.7869628285
 N    0.7764622678   -2.7849712058   -0.2693771258
 C    0.4228717199   -2.1490617111   -1.4594305371
 N   -0.0203870694   -2.6180028108   -2.5506767128
 H    0.8153106165    1.9444798000   -0.4769749843
 H   -0.9587795718    1.8221249097   -0.4922492340
 H   -0.0768862970    1.8017895149    1.0468688390
 H   -0.7679922060   -0.5737734019    0.3882174285
 H    1.1541071478   -0.1294355124   -2.0234454431
 H    0.6358241369   -3.7642075209   -0.0742663526
 H   -0.1338725772   -3.6320050590   -2.5157398400