18

 C    0.0097787434    1.3570207899    0.1478790428
 N    0.0699532174   -0.0805781996    0.0026547477
 C    0.1003524495   -0.8051355141   -1.1411649553
 C    0.1183998986   -2.1350241380   -0.7748205483
 C    0.0988831361   -2.1157980521    0.6371294643
 N    0.0640657359   -0.8633730067    1.0993574564
 C    0.1116316321   -3.2620857538    1.5714383567
 C    0.9996768462   -3.2352736346    2.7703589201
 N   -0.4530042145   -3.1030096623    2.9238886508
 H    0.0938945709    1.8159073778   -0.8385358027
 H   -0.9370405844    1.6578063247    0.6058880458
 H    0.8315536243    1.7046396558    0.7790801581
 H    0.1046301066   -0.3265025158   -2.1079905593
 H    0.1459567850   -2.9929724266   -1.4267570113
 H   -0.1033477332   -4.2219156434    1.1090924935
 H    1.4224144107   -4.1611022909    3.1520188974
 H    1.6183806521   -2.3514976607    2.8972096624
 H   -0.6831346966   -2.1176857397    3.0434990411