20

 O   -0.6595087404    0.6728297250    0.5574633486
 C    0.0700502602    0.9716476024   -0.3524939845
 C    1.3375477128    1.7849931553   -0.2271287108
 C    1.3515014857    2.9948144981   -1.1722172283
 C    0.3071030862    4.0792181943   -0.8425885356
 C    0.7956739279    5.3445043357   -1.5885666858
 C    2.3128949853    5.1168092267   -1.8661118832
 C    2.6690239210    3.7887702875   -1.1672215242
 H   -0.1593518236    0.6486748179   -1.3969606127
 H    1.4569388648    2.0914406603    0.8171861104
 H    2.1746170975    1.1186051951   -0.4842549025
 H    1.1717317929    2.6368118142   -2.1973972053
 H   -0.7122017932    3.7909729652   -1.1165976813
 H    0.3057901490    4.2512860008    0.2410919448
 H    0.2509576096    5.4760340235   -2.5281789849
 H    0.6174522117    6.2472536932   -0.9982988217
 H    2.4906739522    5.0321271709   -2.9430299497
 H    2.9314004907    5.9455107212   -1.5115607806
 H    2.9717914417    3.9727657115   -0.1281610120
 H    3.4917295581    3.2549611811   -1.6528975306