22

 C    0.4059923094    2.2189179989    0.5886126093
 C    0.0724747075    0.7331092106    0.5829902746
 O    0.1632479157    0.2354126909   -0.7531803090
 C    0.4086756789   -1.1665728843   -0.7055975487
 C    1.1355111866   -1.4235249154    0.6020271908
 N    2.2686135113   -0.5801841166    0.9442574553
 C    3.0477840631    0.1354288368   -0.0610944784
 C    0.9496324075   -0.1908856726    1.4331066843
 C    0.7536532458   -0.1750945482    2.9299190012
 H    1.4362747094    2.4025903088    0.2770291635
 H   -0.2608810072    2.7542540221   -0.0930347607
 H    0.2676782989    2.6318769735    1.5926695828
 H   -0.9629787468    0.6090156286    0.9510922145
 H   -0.5318470656   -1.7416240440   -0.7229503353
 H    0.9829936316   -1.4295163891   -1.6013421666
 H    1.1297139185   -2.4322577354    1.0096586871
 H    2.4737827567    0.5274879310   -0.9077565408
 H    3.5649226642    0.9678426943    0.4271802193
 H    3.8155009915   -0.5466635466   -0.4421722215
 H    1.0494388559    0.7906261803    3.3560877845
 H   -0.2952458834   -0.3492861207    3.1946505035
 H    1.3682038305   -0.9469617529    3.3981201604