16

 C   -0.0105672485    1.5993027365   -0.0091684342
 C    0.0200467401    0.0606032760   -0.0360214487
 C    0.6899602733   -0.4894921222   -1.2052198133
 C    1.2453638497   -0.9492944585   -2.1744427607
 C    1.9098014209   -1.4917504780   -3.3340329868
 O    2.0428185548   -2.6740359031   -3.5382545830
 C    2.4410346742   -0.4158340654   -4.3004102913
 C    3.1122693123   -0.9656460991   -5.4714600099
 N    3.6489900798   -1.3732004944   -6.4086470242
 H    1.0025583448    2.0095637682   -0.0073899219
 H   -0.5366186637    1.9942146570   -0.8821269126
 H   -0.5250724380    1.9483487165    0.8900410731
 H    0.5193214651   -0.3225341926    0.8631638812
 H   -1.0021175603   -0.3376661233   -0.0016112849
 H    1.6021827994    0.2177112664   -4.6127167700
 H    3.1258992160    0.2403291459   -3.7499514928