15

 O   -0.6403347504    0.8130837428    0.5669730642
 C    0.2229345416    0.9704947214   -0.2592027794
 C    1.3633121190    1.9501971860   -0.1574791503
 C    1.1190377867    3.3880110629   -0.7376666082
 C    0.3648407073    3.7288324272    0.5611459577
 C    1.4818838710    2.7985307428    1.1575085458
 C    2.7009951410    3.6290299655    0.7771557246
 O    3.6920498867    3.9358617683    1.3618108630
 O    2.4171934135    4.0061566384   -0.5238897912
 H    0.2358695234    0.3676116083   -1.1947388895
 H    2.2756738189    1.4788826587   -0.5384834039
 H    0.7755799100    3.5950777301   -1.7483410654
 H    0.3592644744    4.7782750670    0.8603900375
 H   -0.6241673357    3.2823502648    0.6378956733
 H    1.4506863425    2.3678037958    2.1529977218