20

 C   -0.1617086585    1.5359064927   -0.0879033651
 C    0.0741667691    0.0305759478   -0.0895393026
 C    1.2674444835   -0.5661202924   -0.9168136268
 C    1.7837241230   -1.2583130236    0.3503240730
 C    2.0743763277   -0.2288314724    1.4087343216
 C    0.6487893557   -0.6453593887    1.1724534755
 C   -0.1966549010   -1.2804266882    2.2532268360
 C   -0.8658495111   -0.2860156667    3.0984129459
 N   -1.3913982563    0.5129345503    3.7473959468
 H    0.7442818561    2.0871759873    0.1834961442
 H   -0.4730113623    1.8799871538   -1.0802622576
 H   -0.9449446794    1.8114207889    0.6255987319
 H   -0.8511299685   -0.4808328881   -0.3779075352
 H    0.9380302226   -1.2550180197   -1.6972334889
 H    1.9539324702    0.1624311384   -1.3613172197
 H    2.1940752929   -2.2600794998    0.4023325079
 H    2.5175133193   -0.6116331486    2.3231235821
 H    2.4246338247    0.7624137228    1.1332206501
 H   -0.9671964245   -1.9256167016    1.8123004484
 H    0.4200255569   -1.9200772322    2.8954206827