14

 N    0.0617945342    1.3352181215    0.2974055066
 C    0.0005203413   -0.0089389759    0.0054335230
 N   -1.1467952996   -0.6997798198    0.0583813629
 N   -0.6504251170   -1.9641679020   -0.1151395811
 C   -0.8862049145   -3.2780483863   -0.7534692266
 C    0.6882268012   -3.3578076219   -0.8998080058
 C    0.6575506525   -1.9358817054   -0.3601156494
 N    1.1541635604   -0.7185773287   -0.2905015539
 H    0.8453769402    1.8015861452   -0.1347915767
 H   -0.8147509748    1.8215772503    0.1798982570
 H   -1.3740682320   -4.0100376505   -0.1061472877
 H   -1.4092520302   -3.2061947596   -1.7103742994
 H    1.1816628824   -4.1060502834   -0.2767815656
 H    1.0352534958   -3.4512307036   -1.9305462833