18

 O    0.0861081384    1.3875380899    0.1066674116
 C    0.0399428169   -0.0146729718    0.0281125091
 C   -1.3439135593   -0.5848114525   -0.2854758804
 C   -1.5594471320   -0.2577437234   -1.7921645893
 C   -1.9391733481   -1.7319229511   -1.9501090512
 N   -1.1631059305   -2.0500443559   -0.6966565919
 C    0.2869153344   -2.0919873540   -1.0764688635
 C    0.6465217083   -0.6132567089   -1.2541659012
 O   -0.2108380688   -0.0376799823   -2.2654679463
 H   -0.0326421752    1.7118877553   -0.7956801291
 H    0.4775633485   -0.4186773590    0.9441285556
 H   -2.1552633280   -0.4160945021    0.4191270418
 H   -2.1976300435    0.5486260684   -2.1608114495
 H   -3.0048129098   -1.9239399876   -1.7876155177
 H   -1.6023380390   -2.2466044957   -2.8545114575
 H    0.8749401406   -2.5456573229   -0.2703443047
 H    0.4270473103   -2.6894324537   -1.9803363824
 H    1.6808987767   -0.3631940228   -1.4897722833