20

 C    0.0474071203    1.4458733504    0.0240122293
 N   -0.1127305410    0.0061202559    0.0147428279
 C    0.0528742959   -0.7150316661    1.2601670125
 C   -0.0429473006   -0.6817881111   -1.1881879087
 C   -0.0069627308   -2.0914838813   -1.2255630886
 C    0.0327534895   -2.7727171055   -2.4360105826
 C    0.0469231447   -2.0886892160   -3.6483499749
 C    0.0257389299   -0.6970008876   -3.6233132944
 C   -0.0140470070    0.0008119298   -2.4223562370
 H    1.0261221460    1.7724540113   -0.3619236683
 H   -0.7280307954    1.9357702469   -0.5767584747
 H   -0.0519956775    1.8109782839    1.0473987292
 H   -0.0494725269   -0.0186656923    2.0939036751
 H   -0.7182662513   -1.4854228292    1.3785903148
 H    1.0343849329   -1.2079585978    1.3449128966
 H   -0.0092334261   -2.6615772542   -0.3061380060
 H    0.0568413677   -3.8581593004   -2.4243403794
 H    0.0799404915   -2.6265522756   -4.5888728307
 H    0.0442293928   -0.1365668928   -4.5530837861
 H   -0.0220995645    1.0823165217   -2.4476261039