18

 C   -0.1208834967    1.5176225602    0.0469199454
 C   -0.0371691677    0.0118073351   -0.0056084861
 C    0.0678533718   -0.6937381415   -1.2145596486
 C    0.1068268574   -0.0214282687   -2.5655004242
 C    0.1385409967   -2.0898404944   -1.1387812842
 O    0.2424615572   -2.8887107731   -2.2382817383
 C    0.1032268605   -2.7203786960    0.1056517631
 N    0.0038420688   -2.0529774339    1.2504485565
 C   -0.0637553439   -0.7224186953    1.1819257243
 H    0.7625328234    1.9938033514   -0.3935290451
 H   -0.9959068310    1.8994452329   -0.4913284109
 H   -0.1967912205    1.8594943009    1.0821187753
 H    1.0363731247   -0.2506329506   -3.1038907404
 H   -0.7281363357   -0.3447916999   -3.2016768702
 H    0.0444090062    1.0635381789   -2.4837281097
 H    0.2575956343   -2.3463542879   -3.0327286359
 H    0.1589981899   -3.8050145815    0.1496234525
 H   -0.1446618055   -0.1972368666    2.1312816265