14

 C    0.0592395842    1.3220523850    0.0063943723
 O    0.0047763999   -0.0989472035    0.0027019947
 C   -1.2299567529   -0.6275892757    0.0105308440
 C   -2.4682737090   -0.0588989797    0.0218048752
 O   -3.4004240801   -1.0407320634    0.0259108222
 N   -2.7940882738   -2.2669669668    0.0174864049
 C   -1.4956668420   -2.0344243047    0.0082214076
 C   -0.4909434835   -3.1236987110   -0.0028896196
 O   -0.7519304556   -4.3000202971   -0.0042257669
 H    1.1150429582    1.5928020590   -0.0009928410
 H   -0.4329942317    1.7334282024   -0.8839057941
 H   -0.4191266592    1.7282482599    0.9065787410
 H   -2.8406041656    0.9507703517    0.0277857856
 H    0.5549264310   -2.7539928060   -0.0101211259