14

 O   -0.0976102172    1.4169745417    0.0497718051
 C   -0.0502003208   -0.0036047185   -0.0109503639
 C   -1.4333013710   -0.4923073516   -0.0505441759
 C   -2.5525479625   -0.9233711038   -0.0560128350
 C    0.6886361702   -0.4570679363   -1.2008033244
 C    1.3474168369   -0.7941031919   -2.1468632940
 C    0.6785192712   -0.5737942804    1.2551901987
 C    0.0706072671   -0.1220932491    2.5024803572
 N   -0.3899994738    0.2222573166    3.5038339486
 H    0.7651297077    1.7508087523   -0.2234751065
 H   -3.5493715327   -1.2914326523   -0.0635980822
 H    1.9068205740   -1.0966941454   -2.9984294447
 H    0.6718287901   -1.6669239269    1.2162522992
 H    1.7234501808   -0.2481988544    1.2229714177