22

 C    0.1084211215    1.4691010727    1.9755366746
 C    0.3242275167    0.0113120950    1.5832052991
 C    0.1516505926   -0.5405158209    0.1757848424
 C    1.4788963082   -0.6467999781   -0.5151522117
 N    1.0608796130   -1.7019969036    0.4664510854
 C    1.6879869697   -0.7174045902    1.5179348201
 C    2.5947817097   -0.1383487607    0.3902052992
 C    3.8407842809   -1.0287980010    0.2543075120
 C    3.0104636754    1.3331644242    0.3497460387
 H    0.5714114204    2.1792526763    1.2905329401
 H   -0.9641865871    1.6905946462    2.0027262205
 H    0.5047428302    1.6616974738    2.9788627603
 H   -0.3069375555   -0.6114121302    2.2303300043
 H   -0.7772486313   -0.6897949116   -0.3658395258
 H    1.5450153611   -0.8732943986   -1.5756070959
 H    2.1447132781   -1.1221829423    2.4217759030
 H    3.5816319316   -2.0885788124    0.3161910353
 H    4.3410198292   -0.8533764018   -0.7047723782
 H    4.5613723855   -0.8014945193    1.0482932743
 H    3.4900383109    1.6344908406    1.2880059819
 H    3.7402933406    1.4941653236   -0.4518361112
 H    2.1728512987    2.0058667880    0.1645611216