16

 C   -0.0153824967    1.4130106089   -0.0173952582
 N   -0.0695724388   -0.0371020749   -0.0003326047
 C    0.5494836875   -0.6261798986    0.9431291938
 N    1.3091747039   -0.1094645103    1.9724324352
 C    1.6649549925   -1.0824548990    3.0054146689
 C    1.4862958325   -2.4369404184    2.2990024973
 C    0.5859407724   -2.1356942881    1.0989755650
 O    0.0163821455   -2.9356162781    0.4093874663
 H    1.0163499551    1.7874746714   -0.1153847956
 H   -0.5917196701    1.7932454526   -0.8638935945
 H   -0.4375230125    1.8596161087    0.8991119004
 H    1.2591845931    0.8697777840    2.2006649722
 H    2.6893908116   -0.9187191678    3.3532830265
 H    1.0011948675   -1.0053436131    3.8775926817
 H    2.4398912563   -2.8153937077    1.9144719733
 H    1.0542361201   -3.2136687596    2.9316116023