18

 C   -0.3358549607    1.4862877264   -0.0039734979
 C    0.1410302262    0.0242330726    0.0747674015
 C    0.7720036334   -0.4649200951   -1.1932819611
 C    2.0270140115   -0.8572373845   -1.3939112069
 C    2.2169441624   -1.2557107816   -2.8390472246
 O    0.9255795118   -1.1651327353   -3.4245714610
 C    0.0147663855   -0.5768513820   -2.4935772820
 C    3.1762035107   -0.3678367833   -3.5397573354
 N    3.9365990153    0.3207019451   -4.0714699976
 H    0.4970016071    2.1566827224   -0.2358074294
 H   -1.1005870788    1.6211920571   -0.7749272852
 H   -0.7686871652    1.7974499324    0.9509220179
 H    0.8564703674   -0.0852538779    0.8961072681
 H   -0.7170297971   -0.6168118757    0.3192063271
 H    2.8314310220   -0.8862113781   -0.6712912596
 H    2.5878581233   -2.2849847131   -2.9517250327
 H   -0.8705192451   -1.2230583325   -2.4099183363
 H   -0.3247702795    0.4018197231   -2.8643416249