19

 C   -0.6907251983    1.5401796173   -0.2690632826
 C    0.0534618528    0.2130646032   -0.0802844620
 C   -0.8959278407   -0.9067990990    0.3844703777
 C    0.7928308735   -0.2011846230   -1.3174378435
 C    0.8072587402    0.3477556009   -2.5522238040
 O    1.6457791242   -0.4159320177   -3.3529947193
 C    2.0840444636   -1.3853333356   -2.5243769159
 N    2.8971650334   -2.3446630042   -3.0747448255
 N    1.6311803348   -1.3245175998   -1.3113789633
 H   -0.0087364710    2.3453943869   -0.5598185268
 H   -1.4610923014    1.4510487117   -1.0435815768
 H   -1.1882930052    1.8367899482    0.6590397212
 H    0.8067947139    0.3485566478    0.7086015322
 H   -1.6963143911   -1.0631417110   -0.3473098254
 H   -0.3534191963   -1.8480451904    0.4995562108
 H   -1.3570553287   -0.6487947352    1.3435351569
 H    0.3501893410    1.1972373004   -3.0256559305
 H    3.4735418229   -2.0225802635   -3.8383185818
 H    3.4052100022   -2.8718272571   -2.3803294014