23

 C   -0.2388859370    1.6038869073   -0.0515411517
 C   -0.0091085422    0.1002483870    0.0081215614
 C    1.1860298351   -0.5939952426   -0.7160563357
 C    2.1333757707   -0.0568773224    0.4023017124
 C    3.4603817683   -0.7807675224    0.6386548238
 C    3.2231594586   -2.2071882512    1.1489530699
 C    2.0461932744   -2.8440112785    0.3995124062
 C    0.9207918119   -1.8304049850    0.1984253191
 C    0.8409427999   -0.5704545954    1.1316395431
 H    0.6652023879    2.1954034842    0.1118051587
 H   -0.6464766035    1.8874544550   -1.0284634661
 H   -0.9709302008    1.9068430219    0.7056499411
 H   -0.9613697127   -0.4173001332   -0.1635155286
 H    1.3896712328   -0.6124841537   -1.7906246105
 H    2.2747952973    1.0254579543    0.4047905910
 H    4.0289778371   -0.7956790998   -0.3017079970
 H    4.0722140881   -0.2208609088    1.3554614132
 H    4.1279569726   -2.8187450505    1.0705063894
 H    2.9709006917   -2.1579747539    2.2154683788
 H    2.3692460120   -3.2178117432   -0.5819681075
 H    1.6745679264   -3.7154646636    0.9508972673
 H   -0.0425512989   -2.3193129529    0.0158261657
 H    0.6341141104   -0.5547141329    2.2047819661