20

 C    0.0163781947    1.5021725370   -0.2228382907
 C    0.0661651782    0.0000968170   -0.0352373930
 C    1.3871297292   -0.7376419073   -0.0127229340
 C    0.5546795692   -0.6237551496    1.2420463119
 C    1.0427782510    0.1864858206    2.4343255208
 O    1.2963071891   -0.7798817139    3.4684565256
 C    0.6659723173   -1.9637615957    3.1952317084
 N    0.7088175976   -2.9845776221    3.9357501805
 C   -0.0812649143   -1.8457121822    1.8833470144
 H    0.8676913150    1.9974815851    0.2550149500
 H    0.0417332326    1.7619625174   -1.2864138377
 H   -0.8984918976    1.9304328586    0.2013975134
 H   -0.7522362042   -0.5316321326   -0.5160939004
 H    1.4526996854   -1.7051965890   -0.4997176260
 H    2.2955852102   -0.1451450526   -0.0737768514
 H    1.9708249442    0.7337728981    2.2519716424
 H    0.2841940336    0.8945852512    2.7951348262
 H    1.2687138375   -2.7966150620    4.7695060053
 H   -1.1463697310   -1.6840601014    2.0946695530
 H    0.0039438724   -2.7628621066    1.2991929212