22

 C   -0.3027827567    1.5865156255   -0.4348071684
 C    0.0237714008    0.1959875900    0.1059981674
 N   -1.2001617820   -0.5912141548    0.2254826979
 C   -1.5893340371   -1.4361011240   -0.8982521874
 C   -1.1521113060   -2.0453330501    0.3981769256
 C    0.1679552772   -2.7937778244    0.4641952533
 C   -2.2105580788   -2.5777378459    1.3613288518
 C   -2.7144938689   -3.9479142564    0.9632589454
 O   -2.7161355125   -4.9200168412    1.6742924638
 H    0.6018151555    2.1993976798   -0.4954078022
 H   -0.7360355479    1.5221399150   -1.4383954862
 H   -1.0254816089    2.0903857346    0.2126550586
 H    0.7791515187   -0.2780287672   -0.5417916644
 H    0.4663164765    0.2793862954    1.1058552845
 H   -2.6382379329   -1.4049262495   -1.1850845351
 H   -0.8974468005   -1.5194044770   -1.7365913536
 H    0.8774292162   -2.4607417941   -0.2952940501
 H    0.6354090078   -2.6722347879    1.4481867251
 H    0.0039610510   -3.8663792117    0.3159684200
 H   -1.8275974052   -2.6288988661    2.3857651085
 H   -3.0606636452   -1.8844158767    1.3453199353
 H   -3.1019368511   -4.0047506233   -0.0811955098