9

 O    0.1090295195    1.3567390259   -0.0718332492
 C    0.0692014842    0.0122803119   -0.0895026504
 C   -0.0302833049   -0.8200254197   -1.1806815369
 N   -0.0262840940   -2.0555875715   -0.6105769511
 N    0.0676533841   -1.9995566156    0.7202322968
 N    0.1261814021   -0.7307319498    1.0417610768
 H    0.1806518860    1.6182441319    0.8552350144
 H   -0.0987508078   -0.6492589499   -2.2397071926
 H   -0.0833228591   -2.9548614033   -1.0610374977