23

 C   -0.0621523496    1.6413425941    0.1985798833
 C    0.0471774891    0.1246859324    0.1150872846
 C    0.8402892574   -0.5946555024   -1.0384179539
 C    0.5477581513   -0.5422738325   -2.5134552606
 C    2.1585619789   -0.1530921318   -0.3273984444
 C    1.2020404832   -0.6519484554    0.7979022141
 O    1.4014370834   -0.6419851140    2.1687880002
 C    0.8859849560   -1.8758000136   -0.1302905214
 C   -0.3157143807   -2.7837517472    0.0856131941
 H    0.8775936442    2.1655769234    0.0108193349
 H   -0.7966775973    2.0103894420   -0.5262568517
 H   -0.4096237218    1.9377679944    1.1940703871
 H   -0.9403327015   -0.3051287074    0.2997683635
 H    0.5679382185    0.4881130524   -2.8853995997
 H    1.2864275954   -1.1165177580   -3.0836900579
 H   -0.4419959019   -0.9566182241   -2.7359964037
 H    3.0394214225   -0.7715842428   -0.5283933110
 H    2.4130255289    0.9064161120   -0.3453587875
 H    2.2024056178   -1.1401252406    2.3641932478
 H    1.7725605167   -2.4911611494   -0.3326852500
 H   -1.2467440899   -2.2494715749    0.2875796314
 H   -0.4819779182   -3.4158339142   -0.7941127259
 H   -0.1342175822   -3.4515094423    0.9352029469