18

 C    0.0715872914    1.5577505396    0.0316109126
 C    0.0474834045    0.0133227167    0.0253123686
 C    0.8276654993   -0.5189415860    1.2507841840
 O    0.7610298028   -1.9323240174    1.2440838532
 N   -1.3440945999   -0.4828320807    0.0477771566
 C   -2.2207958874   -0.2790355712    1.0628854812
 O   -2.0440588665    0.4360645338    2.0300917115
 C    0.6591427302   -0.4853814337   -1.2114160372
 C    1.1561342986   -0.8688774876   -2.2353580161
 H    1.1046186682    1.9142845003    0.0096339869
 H   -0.4453604359    1.9399469096   -0.8510075817
 H   -0.4270654255    1.9280856789    0.9280143553
 H    1.8649103384   -0.1604212611    1.1749049029
 H    0.3668212108   -0.0932144935    2.1484653640
 H    0.9998753670   -2.2471786910    2.1199007167
 H   -1.5641916443   -1.2119988609   -0.6117473776
 H   -3.1617060532   -0.8423007621    0.9005875834
 H    1.6052255615   -1.2167313838   -3.1328765342