17

 O   -0.1627228555    0.0178538519   -0.4930168916
 C   -0.0553124759    1.1970714098   -0.2406664026
 C    1.2204083905    1.8794186274   -0.0146881180
 C    1.3606040627    3.1903535375    0.2223152017
 C    2.8002358770    3.5887758535    0.3989977918
 C    3.5703267001    2.3538934489   -0.1301414518
 C    2.5680053366    1.1606169366   -0.0134979571
 C    2.7520473029    0.3779912851    1.2079923144
 C    2.9192583607   -0.2411892956    2.2246258598
 H   -0.9483005545    1.8591448011   -0.1802637985
 H    0.5336067177    3.8892607552    0.3016914888
 H    3.0546330512    4.5098907764   -0.1357848351
 H    3.0074021907    3.7813583953    1.4610578971
 H    3.8123014605    2.5028337640   -1.1865379843
 H    4.5011449844    2.1623928686    0.4050157008
 H    2.6483772724    0.4850864053   -0.8717774007
 H    3.0554928783   -0.8048039911    3.1141140554