19

 C    0.0559506863    1.4559324383   -0.0237336141
 C   -0.0152515461   -0.0510951661   -0.0360418737
 C   -0.8656441101   -0.8076144482    0.9519321739
 C    0.6344089767   -0.9490966649    1.0391463740
 C    1.3725520895   -1.9757864480    0.1661288422
 C    0.3700294733   -2.2954694576   -0.9832117989
 C    0.4641652208   -0.7762368313   -1.3105174501
 C    1.9567471637   -0.9679378397   -0.8783001737
 O    3.0280071917   -0.5822895866   -1.2264013655
 H    1.0231846032    1.8085519450   -0.3997907710
 H   -0.7262790938    1.8981798881   -0.6520048915
 H   -0.0725319968    1.8490411186    0.9896771619
 H   -1.3002475320   -0.1878982095    1.7302757386
 H   -1.5060927602   -1.6324025122    0.6639378202
 H    1.1640795990   -0.5202891212    1.8819157753
 H    1.9731011547   -2.7430417626    0.6496138735
 H    0.8240797983   -2.9102722586   -1.7629778290
 H   -0.6024821234   -2.7043036169   -0.7148197131
 H    0.1785651951   -0.3649769864   -2.2768153491