20

 C   -0.4342662175    1.0706637266    0.0628541344
 N    0.0642701769   -0.2998209214   -0.0516142785
 C    0.9022565810   -0.5361886249   -1.2301058845
 C    1.5174274807   -1.9373904402   -1.2168813989
 C    0.4755988886   -2.8035815188   -1.9579197751
 C   -0.5397523303   -3.4932028791   -1.0560312975
 O   -0.2083871778   -1.8792409720   -2.8367570292
 C   -0.0116528635   -0.5911333969   -2.4683296931
 O   -0.5152896654    0.3292480992   -3.0475490785
 H    0.3671085947    1.8295560833    0.0777095274
 H   -1.0863234250    1.2957361520   -0.7833358626
 H   -1.0166440699    1.1616657513    0.9837605436
 H    0.6103245716   -0.5277894863    0.7726429262
 H    1.6535519840    0.2551371095   -1.3842272993
 H    2.4629354241   -1.9317620198   -1.7660606052
 H    1.7167174604   -2.3076393063   -0.2077547725
 H    0.9581012882   -3.5355951126   -2.6117475344
 H   -1.0054803514   -2.7634481170   -0.3886477881
 H   -1.3156577384   -3.9755813869   -1.6564708165
 H   -0.0444604110   -4.2607601097   -0.4520601279