16

 C   -0.0801777479    1.6538473205   -0.6204809760
 C   -0.0487614896    0.2202219145   -0.1571311570
 C    1.1641326179   -0.6424015054   -0.3126983540
 C    0.6957973397   -0.2203149881    1.0665691545
 O   -1.2667600877   -0.4970432932   -0.4419029263
 C   -2.3332288909   -0.2077988550    0.3060125537
 O   -2.4147869980    0.5888129343    1.1991851612
 C   -3.4700504828   -1.0371128089   -0.1224044596
 N   -4.3961544008   -1.6619379727   -0.4148488211
 H    0.9012804278    2.1106894843   -0.4687569699
 H   -0.3195566383    1.7086159396   -1.6872183783
 H   -0.8180520658    2.2324305239   -0.0596999666
 H    1.0019931572   -1.6750132202   -0.5987019533
 H    2.0555940988   -0.1875773767   -0.7293574033
 H    1.2572601475    0.5316141009    1.6092963938
 H    0.2362126127   -0.9769785776    1.6911077522