18

 O    0.8285148487    0.0211406778   -0.0519390597
 C    0.4310047106    1.1551795045   -0.0829542037
 C    0.8280860412    2.1596180578   -1.1559164049
 C    1.0638225163    3.5417353245   -0.5548739829
 O    0.2750872506    4.0310494668    0.2200377377
 C    2.3624947594    4.2554756984   -0.9259339213
 N    2.6905323188    4.0920551706   -2.3336761521
 C    2.2084952428    5.1361689016   -3.2374268069
 C    3.6522922115    5.0391069141   -2.8873062814
 H   -0.2670829937    1.5595009015    0.6785984221
 H    1.6747239733    1.7955762114   -1.7374877274
 H   -0.0339077044    2.2555060133   -1.8317847965
 H    2.2717123533    5.3038327536   -0.6007302688
 H    3.1637867335    3.7906516796   -0.3322922296
 H    1.8516636327    4.7939122376   -4.2041047014
 H    1.6456687738    5.9622938254   -2.8064723356
 H    4.0551233896    5.8025477108   -2.2242882338
 H    4.3656714323    4.6248721007   -3.5935231538