19

 C   -0.0004009263    1.4724940919    0.0094338206
 N   -0.0307617425    0.0267149254    0.0014651767
 C   -0.0905087450   -0.7919015828   -1.1219494364
 C   -0.0147060162   -2.1042262458   -0.7256502031
 C   -0.0612018141   -3.3150028453   -1.6049220786
 C    0.1061912792   -2.0939309373    0.7059520499
 N    0.2088827721   -3.1408845129    1.6729679681
 C    0.0958287304   -0.7756109587    1.0944888372
 O    0.1852161315   -0.2485855524    2.3364642326
 H    1.0100343639    1.8628384080   -0.1632764234
 H   -0.6622312635    1.8574756413   -0.7707622163
 H   -0.3499918377    1.8345604369    0.9777448825
 H   -0.1882889830   -0.3563053512   -2.1036314281
 H    0.8434250484   -3.9287772533   -1.5067381479
 H   -0.9102301165   -3.9672080089   -1.3626324256
 H   -0.1540700942   -3.0341951289   -2.6580026835
 H    1.0320602490   -3.7173650802    1.5230930902
 H   -0.5913072712   -3.7663706096    1.6427037173
 H    0.2392415659   -1.0202269561    2.9205147478