19

 C    0.3131216193    1.4780969202   -0.0171013404
 C    0.1352534247   -0.0117675160   -0.0101490076
 C   -0.0153181543   -0.8427100853   -1.1073451348
 N   -0.1860666607   -2.1284398591   -0.6290708966
 C   -0.1358161360   -2.1334638209    0.7380484413
 C    0.0628666951   -0.8382882288    1.1510397937
 C   -0.0669413995   -0.5864519548   -2.5622440009
 C    0.9516551479    0.2616980117   -3.2324981689
 N    0.9565218419   -1.1915167281   -3.4597452012
 H    1.2871229826    1.7752824134    0.3908303454
 H    0.2372802214    1.8865606285   -1.0275354741
 H   -0.4501022013    1.9720795553    0.5952098754
 H   -0.3191704317   -2.9360108175   -1.2129627879
 H   -0.2386326174   -3.0498046884    1.2970863577
 H    0.1461940903   -0.5065442643    2.1754086351
 H   -1.0570439078   -0.6125419809   -3.0170121036
 H    0.6674290217    0.8588806378   -4.0940700667
 H    1.7373579652    0.6904721056   -2.6185436049
 H    1.6848734586   -1.6027893985   -2.8787443808