19

 C   -0.6508655366    1.2425088624   -0.6543959725
 O    0.2775934201    0.3987259531    0.0046379902
 C    0.8956671695   -0.5570140147   -0.8397114478
 C    2.1818957330   -1.0852957145   -0.2015987802
 C    2.3289813794   -2.5127617286   -0.7400881162
 O    3.3105568459   -3.2009344234   -0.6507532815
 C    1.0172498025   -2.9038755681   -1.4340424900
 C    0.0176632068   -1.8279457801   -1.0178784562
 O   -0.5268675075   -2.1920437004    0.2384943278
 H   -0.1651100005    1.8158717879   -1.4566930087
 H   -1.4922271019    0.6829357485   -1.0860960620
 H   -1.0374940074    1.9372855594    0.0943115464
 H    1.1050443733   -0.1096225309   -1.8231675654
 H    3.0725720565   -0.4860141703   -0.3974779373
 H    2.0492278188   -1.1438231156    0.8845965284
 H    1.1905807772   -2.8934955543   -2.5177000353
 H    0.6960493555   -3.9101351101   -1.1575692080
 H   -0.7793217216   -1.6810013816   -1.7606155956
 H   -0.7059046529   -1.3625536187    0.7023967341