22

 O   -0.0305025768    1.4438543824    0.0377302656
 C    0.0400068517    0.0266362638    0.0016060144
 C   -1.3829230664   -0.5142211094    0.0277350530
 C   -1.4411084128   -2.0457682306   -0.0077034662
 C   -2.8523926651   -2.5876267319    0.0190100696
 C   -4.0185736840   -2.3617239541   -0.9789694731
 N   -4.6693570974   -3.2980009980    0.0533002644
 C   -3.3334155085   -4.0581919781   -0.0048070929
 C   -3.9587055872   -2.4148811730    1.0928933870
 H    0.8660406269    1.7908755754    0.0214316571
 H    0.5544992251   -0.3246191118   -0.9083860851
 H    0.6032786576   -0.3673571368    0.8639623719
 H   -1.8798871717   -0.1378129133    0.9299271252
 H   -1.9283053509   -0.0953384274   -0.8264858957
 H   -0.9360749715   -2.4175078598   -0.9102165004
 H   -0.8866763534   -2.4599704214    0.8460151325
 H   -4.4826626263   -1.3722021718   -1.0204044307
 H   -3.9361285328   -2.8033845810   -1.9767539914
 H   -3.1974022599   -4.6310906839   -0.9271900242
 H   -3.1452554151   -4.6774143655    0.8776091647
 H   -3.8194069689   -2.9069809684    2.0603003690
 H   -4.4181898227   -1.4294900753    1.2117419853