18

 C   -0.3683379386    1.3613916679   -0.0491404864
 C    0.1013623865   -0.0651829586    0.0092553445
 O   -0.9988334504   -1.0208705499    0.0851501933
 C   -0.4437800030   -1.6304962253    1.2823665174
 C    0.8386157426   -0.7976563718    1.1778551652
 C    1.8624294359   -1.3740607369    0.1640223467
 C    1.1514723608   -0.6076441614   -1.0059827935
 O    0.6176261244   -1.3428471175   -2.0680685361
 H    0.4840861508    2.0483954375   -0.0419700781
 H   -0.9332239550    1.5304031010   -0.9728382528
 H   -1.0185261427    1.6011553073    0.7976779368
 H   -1.0712007113   -1.4083189885    2.1543797651
 H   -0.3380222080   -2.7173836449    1.1829706634
 H    1.2101573029   -0.3038056557    2.0743822102
 H    2.8925830588   -1.0531896370    0.3350342376
 H    1.8487333114   -2.4626849839    0.0600458443
 H    1.7825555441    0.1800814572   -1.4302163340
 H   -0.1991655990   -1.7308023195   -1.7188025836