18

 O   -0.0122543191   -0.0235181703   -0.0074627265
 C   -0.0357565972    1.1791485254    0.0241670539
 C   -1.2809942801    2.0711989791    0.0826920637
 C   -0.7468230611    3.4429366903    0.4733741792
 C   -0.3311770156    3.6504309671    1.9590855983
 C    1.1385976064    3.6426902556    1.4808899206
 C    1.8436876463    2.2721487363    1.4262244213
 C    1.1850264216    2.0952340931    0.0229520698
 N    0.7079090862    3.5165691090    0.0264285734
 H   -1.7214816916    2.0887382527   -0.9226296258
 H   -2.0324957961    1.6598883490    0.7612147851
 H   -1.3378610035    4.2615114219    0.0583716451
 H   -0.6580691309    4.6032204437    2.3801070284
 H   -0.6111235236    2.8527598438    2.6544187676
 H    1.7499152583    4.5057848674    1.7538776420
 H    2.9308558367    2.3483762235    1.3678674796
 H    1.5826682849    1.5366727890    2.1915998811
 H    1.8626225983    1.8352867234   -0.7939922268