23

 C    0.1044891726    1.5792744697    0.0598557491
 C   -0.2540397198    0.1096203016   -0.1905506440
 C    0.5812801928   -0.5127875225   -1.2911964797
 C    1.9381600336   -1.1098220567   -0.9952022414
 C    0.7971792119   -2.0054741242   -1.4207590639
 C    0.2001741481   -2.9895960228   -0.4637654547
 C   -1.0838968856   -3.7254834900   -0.8145391878
 C    0.2314235934   -4.4619492341   -0.7706007301
 O    0.8435213754   -4.8481034063   -1.9680866307
 H    1.1553123206    1.6826569388    0.3500981677
 H   -0.0488112872    2.1819454027   -0.8423314215
 H   -0.5108377702    2.0102085369    0.8561460614
 H   -0.1278754286   -0.4563854132    0.7397732693
 H   -1.3184320997    0.0321462365   -0.4492717373
 H    0.5050369606    0.0171665851   -2.2391115801
 H    2.7582272331   -0.9418529496   -1.6848325569
 H    2.2413797940   -1.1552221818    0.0473937734
 H    0.8524948370   -2.3838270471   -2.4359825467
 H    0.3258523113   -2.7441153372    0.5865726838
 H   -1.8215410294   -3.9089641730   -0.0405188216
 H   -1.4952656689   -3.5352807662   -1.8009819137
 H    0.4033998852   -5.1429150788    0.0632750932
 H    0.3179130698   -5.5569539181   -2.3525576175