17

 O    0.0200073284    1.3899004946   -0.1276500191
 C    0.0951488496   -0.0058609150    0.1047998741
 C   -1.2915384045   -0.5996099996    0.1350500219
 C   -2.3084328707   -0.4288202863    1.3000853226
 C   -2.9847497211   -1.6906495496    0.7513014957
 C   -2.9841735711   -1.5965563253   -0.7862256731
 C   -1.7600989870   -2.1165271968    0.0196610946
 C   -2.1650299037   -0.4016436329   -1.1172349971
 O   -2.0210823593    0.3048931624   -2.0838330599
 H   -0.4409563518    1.4968671727   -0.9711980349
 H    0.6940432134   -0.5155853034   -0.6677655380
 H    0.6115665610   -0.1424586432    1.0612103251
 H   -1.8429922968   -0.6211716429    2.2710117751
 H   -2.8785046572    0.5048658962    1.3357200270
 H   -3.7237215436   -2.3202901344    1.2306532588
 H   -3.6658891874   -2.1672864711   -1.4012318686
 H   -1.2336169680   -3.0478003351   -0.1207381643