20

 C    0.1392721857    1.5089736624    0.2375841043
 C   -0.0303453609    0.0331124347   -0.1483519266
 C   -1.4575548037   -0.4263246168   -0.0504130050
 C   -2.0535142963   -1.0061140327    1.1705138008
 N   -1.8513738570   -1.8965796923    0.0049587586
 C   -3.0149383376   -1.5790919984   -0.9208828966
 C   -2.5536492182   -0.0940021445   -1.0643139219
 C   -2.9935486000   -2.3630149922   -2.1392830569
 C   -2.9851533489   -2.9925792901   -3.1631543304
 H    1.1843357961    1.8194140878    0.1479524129
 H   -0.4572299989    2.1606649603   -0.4099750278
 H   -0.1788107083    1.6862282123    1.2701790605
 H    0.3294299618   -0.1275278276   -1.1726094652
 H    0.5866083751   -0.6000915523    0.4996337506
 H   -1.3865365792   -1.2419647600    1.9942985024
 H   -3.0690281586   -0.7516677337    1.4702567236
 H   -3.9789332839   -1.7107455495   -0.4150335441
 H   -3.2728364108    0.6834141441   -0.7923448076
 H   -2.1632069566    0.1101150432   -2.0624862903
 H   -2.9758329099   -3.5594313546   -4.0609163513