20

 C    0.0124132792    1.5684643304   -0.0426350952
 C    0.0406532416    0.0354589658    0.0355014438
 N    0.6474429525   -0.5073902783   -1.1847889218
 C    1.8032207783   -1.0162920751   -1.1186533880
 O    2.6473194701   -1.1272006138   -0.0636787276
 C    2.2315998238   -0.4424110313    1.1306006713
 C    0.7338602489   -0.5015731377    1.2824996728
 C    0.1266852782   -0.3303305497    2.6475469345
 C    0.1464387651   -1.6933002320    1.9979220486
 H    1.0230666526    1.9880019850   -0.0118929380
 H   -0.4484928963    1.8829176165   -0.9825818893
 H   -0.5608182711    1.9896111915    0.7887707063
 H   -1.0011904185   -0.3106100396    0.0393845470
 H    2.2639286533   -1.4608701382   -1.9996025551
 H    2.7505341141   -0.9334432279    1.9576470579
 H    2.5878681316    0.5945685510    1.0685608593
 H    0.7867658194   -0.1513650154    3.4906750683
 H   -0.8235463952    0.1894037318    2.7155857242
 H   -0.7901232359   -2.0962272607    1.6273320102
 H    0.8255564382   -2.4406609923    2.3951518808