22

 C   -0.4103783000    1.5064233741    0.2724561120
 C    0.1901971369    0.1441232128   -0.0950625132
 C    0.8927529289   -0.5126990468    1.0766817741
 C    0.1314966253   -1.3527539150    2.0758358370
 C    1.1549944963   -1.9992003362    1.1671446239
 C    0.7412510302   -2.9827202453    0.0926699926
 C    0.6170621653   -4.4043219951    0.6313086879
 O    0.2408886339   -5.2492151189   -0.4466148287
 H    0.3643519353    2.1985286051    0.6209135117
 H   -0.9061658534    1.9675113339   -0.5875935341
 H   -1.1485401184    1.4067643380    1.0752162343
 H   -0.6039235560   -0.5097418947   -0.4720794154
 H    0.8992484089    0.2705172152   -0.9241864183
 H    1.6793045920    0.1079399608    1.5022400499
 H    0.3495701220   -1.2511129955    3.1334808782
 H   -0.9149115119   -1.5494327451    1.8579186349
 H    2.0967787418   -2.2593413045    1.6469233773
 H   -0.2207044179   -2.7017869156   -0.3481558127
 H    1.4710925982   -2.9872418460   -0.7266992449
 H    1.5786295385   -4.7207384359    1.0687303734
 H   -0.1305511890   -4.4279010855    1.4401573223
 H    0.1560249432   -6.1457689999   -0.1099614121