20

 C    0.0677272807    1.5517323931    0.0539629579
 C    0.0037247513    0.0273033148   -0.0747089148
 C   -1.4164788417   -0.5410673215   -0.0391782591
 N   -2.1600324603   -0.2005223294   -1.2530172045
 C   -3.5410337188   -0.6561331379   -1.2501873234
 C   -3.6190949915   -2.1193482795   -0.9389012524
 C   -2.6134867879   -2.7759497582   -0.3510765295
 C   -1.4070074005   -2.0702311648    0.1228896816
 O   -0.4974870482   -2.6530884869    0.6784175769
 H    1.1065616193    1.8943951312    0.0768693450
 H   -0.4157071258    2.0643144620   -0.7858559511
 H   -0.4150802757    1.8940526254    0.9764441716
 H    0.4784028301   -0.2938059194   -1.0090660342
 H    0.5613675325   -0.4436953435    0.7388062466
 H   -1.9187994851   -0.1591927605    0.8780519906
 H   -2.1277694513    0.8003109117   -1.4080755017
 H   -4.1885920441   -0.1193559046   -0.5233974376
 H   -3.9793230891   -0.4682636916   -2.2382987850
 H   -4.5389685325   -2.6328467624   -1.2066779871
 H   -2.6543409914   -3.8403483179   -0.1427131598