22

 C   -0.2355145225    1.4752186064   -0.0047208679
 C    0.0345110029   -0.0364269277   -0.0431305530
 C    0.8337081891   -0.3699974684   -1.3093028359
 O    0.0252040580   -0.0679579239   -2.4398874543
 C    0.7445569995   -0.5734877005    1.2267482154
 C    0.2337063748    0.0570446542    2.5309412405
 C    0.6231762767   -2.0993581945    1.3275259709
 O    1.4850078854   -2.5479660328    2.3663351768
 H    0.6901669811    2.0349358404    0.1784408636
 H   -0.6402922804    1.7987315953   -0.9660931133
 H   -0.9501035981    1.7452808179    0.7761060266
 H   -0.9344841742   -0.5485793896   -0.1384587449
 H    1.7611173319    0.2271684983   -1.3142816329
 H    1.1286356428   -1.4289182895   -1.3213997277
 H    0.5545106627   -0.1996272735   -3.2313912991
 H    1.8180462543   -0.3479950007    1.1424171663
 H   -0.8530485857   -0.0607976273    2.6247196768
 H    0.7013056528   -0.4388179710    3.3842967064
 H    0.4609282269    1.1239873794    2.5880818709
 H   -0.4265737876   -2.3609619182    1.5427177798
 H    0.8893450655   -2.5794412710    0.3750990624
 H    1.3478654241   -3.4921211234    2.4835690324