17

 O   -0.0332708803    1.4164230092   -0.0443233115
 C    0.0326106409   -0.0004284373   -0.0013653147
 C    0.5967990468   -0.5673863661    1.3401093707
 C   -0.6442025582   -1.2597052147    1.8655993680
 O   -0.5489292054   -1.8855062871    3.0878213178
 C   -1.4039621153   -1.9467718122    0.6753731573
 O   -2.6915524028   -1.6870935658    1.3470735975
 C   -1.9235721972   -0.4310824001    1.4900436527
 C   -1.3938646743   -0.5360804218    0.0394698474
 H    0.8659888283    1.7590272661   -0.0585022882
 H    0.5858326202   -0.3880926680   -0.8684904003
 H    1.4265035592   -1.2671310044    1.2016548157
 H    0.9289608492    0.2406522621    1.9983047929
 H   -1.4228378040   -2.2695267437    3.2522141989
 H   -1.2593047709   -2.9253837788    0.2156101585
 H   -2.4021154224    0.4034978739    2.0011271366
 H   -2.0724982440   -0.3211762414   -0.7826191994