16

 C   -0.0139030999    1.4391779331    0.1167416260
 C    0.0092979402   -0.0454941038   -0.0537037135
 N   -0.0484294402   -0.6276220374   -1.1781025437
 C   -0.0252564559   -2.0494403892   -1.2423118625
 N   -0.0878202564   -2.6732773274   -2.3579827340
 C    0.0655074169   -2.7430610787    0.0275694874
 C    0.1366606704   -2.0377251171    1.1710588062
 N    0.3067580882   -2.5106764187    2.4513864612
 O    0.1032780414   -0.6705015046    1.1709343249
 H    0.8953561118    1.7773980516    0.6240870465
 H   -0.0889536368    1.9128523249   -0.8606591543
 H   -0.8636655033    1.7377240024    0.7392387066
 H   -0.1496595631   -1.9852280385   -3.1107735965
 H    0.0824973975   -3.8244478605    0.0387493826
 H    0.0818064756   -3.4860754862    2.5759850805
 H   -0.0736791166   -1.9145943000    3.1725259425