21

 O   -0.0928915055    1.4813848405    0.0789173996
 C    0.0467417038    0.0652981773    0.0505701313
 C    0.7647872132   -0.4664266462    1.2967956123
 C    0.7937602319   -2.0020363506    1.3197557392
 C   -0.6210801711   -2.5842743646    1.2096144585
 C   -1.3633904544   -2.0592845347   -0.0455773192
 C   -1.3644315814   -0.5108353417   -0.0553674051
 C   -0.7929728761   -2.6096822819   -1.2761779023
 C   -0.3229975704   -3.0656693178   -2.2852369522
 H    0.7882784931    1.8626045447    0.1476433422
 H    0.6142575509   -0.2423047033   -0.8428236930
 H    1.7865143814   -0.0660992266    1.3350773847
 H    0.2401264644   -0.0836290054    2.1824064011
 H    1.3999503913   -2.3720234667    0.4836092392
 H    1.2744323316   -2.3574966043    2.2373956174
 H   -0.5884155984   -3.6777947342    1.1879620428
 H   -1.2074426397   -2.2951981057    2.0912590850
 H   -2.4070797628   -2.3941468146    0.0101084311
 H   -1.9487581145   -0.1535207819    0.8012615138
 H   -1.8475640934   -0.1330362011   -0.9606509087
 H    0.0828896661   -3.4690549211   -3.1796644075