23

 C    0.1202887425    1.2788178904   -0.6808889329
 C   -0.0865509270   -0.1018734462   -0.0551116567
 C   -1.5436436838   -0.4002987389    0.3057757579
 C   -1.7294103694   -1.8272188318    0.8237167553
 O   -1.9283398908    0.5808535298    1.2741873738
 C   -3.3034143109    0.8776244251    1.3848819264
 C   -3.9988095766    0.1370418574    2.5047140771
 C   -5.4581087247   -0.0241427110    2.5134192696
 O   -4.6026326238   -1.1245238768    2.2028115981
 H    1.1772933945    1.4598564872   -0.8987387575
 H   -0.4334937258    1.3741507254   -1.6221037491
 H   -0.2296385994    2.0626947032   -0.0047086552
 H    0.2622205644   -0.8836773293   -0.7402530372
 H    0.5153699378   -0.1940115589    0.8577187493
 H   -2.1665324846   -0.2601433256   -0.5944285303
 H   -1.1367686445   -1.9793968213    1.7320323904
 H   -2.7759083876   -2.0346829334    1.0555423297
 H   -1.3945608905   -2.5489015188    0.0708869846
 H   -3.3733447357    1.9539109826    1.5957144206
 H   -3.8350893541    0.6831713550    0.4415041686
 H   -3.4731048139    0.1606552987    3.4599265553
 H   -5.9904892097   -0.0946439910    3.4605653089
 H   -6.0469894563    0.3581155880    1.6799775133