16

 N   -0.0254653817    1.4841626150    0.0235928598
 C    1.4560097498    1.4182874603   -0.0054397954
 C    1.9882844987    0.8425530935    1.3684779043
 O    0.8443122361    0.5951019313    2.2251627775
 C    0.5496082466   -0.5439674407    1.3769393732
 C   -0.0144667225    0.0011203587    0.0032086545
 C    1.3189283041    0.0840922230   -0.8129124870
 O    2.2377313163   -0.8663994548   -0.3421604948
 C    2.0667429800   -0.6805909979    1.0323775322
 H   -0.3689775603    1.8460296478    0.9140405961
 H    1.9907215620    2.2874145018   -0.3897733246
 H    2.7859641344    1.3974650089    1.8612980170
 H   -0.0313372577   -1.3177019539    1.8778673535
 H   -0.9050549854   -0.5033833042   -0.3727423120
 H    1.2840679000    0.1136414144   -1.8982360410
 H    2.7036873096   -1.3379122733    1.6193377068