19

 C    0.8012315691    1.5462260398    0.0054247052
 C    0.1562501652    0.1475706850    0.0508553029
 C    0.4598204577   -0.7215139281   -1.1704460539
 N    1.6473747057   -0.3993705698   -1.9779072058
 C    1.6660330750   -1.5846420999   -1.1025820252
 C    2.4740763037   -1.4374195655    0.1678172105
 O    1.6375747159   -1.3778242204    1.3370089791
 C    0.5296415816   -0.5828710033    1.3339462246
 N   -0.1842753032   -0.4521316209    2.3734258636
 H    1.8918056618    1.4979888005   -0.0224033300
 H    0.4778798166    2.0794494327   -0.8926668912
 H    0.4953849498    2.1142547070    0.8871930288
 H   -0.9245452502    0.2866313497    0.1197995002
 H   -0.4068619915   -1.1172150010   -1.6922648835
 H    1.4946148260   -0.6812767372   -2.9425489143
 H    1.6325384070   -2.5696792735   -1.5581703106
 H    3.1267977118   -2.2954483102    0.3412459782
 H    3.0940809094   -0.5365488673    0.1079805430
 H    0.2208685487   -0.9860135776    3.1456630083