18

 C   -0.2837678672    1.2959734067   -0.5592100008
 O   -0.3411913333   -0.1122500465   -0.5445435973
 C   -1.0112206247   -0.6032635976    0.5992495761
 C   -1.0416276971   -2.0599107652    0.5746984103
 C   -1.0649873444   -3.2629457826    0.5823990263
 C   -1.1157590184   -4.7177791331    0.5539608014
 C   -2.0929771350   -5.2370237379   -0.5332598047
 C   -2.1529526611   -6.6962272988   -0.5650230633
 N   -2.1864945711   -7.8511986842   -0.5726534608
 H    0.2454755882    1.5872739114   -1.4688659949
 H   -1.2889041523    1.7469291178   -0.5708943319
 H    0.2599730710    1.6927640673    0.3128776252
 H   -0.5078900627   -0.2587126338    1.5198590704
 H   -2.0418012721   -0.2085437833    0.6414429152
 H   -0.1178559936   -5.1293633696    0.3649300271
 H   -1.4281122926   -5.1041556755    1.5308630116
 H   -3.0968602402   -4.8419660954   -0.3487274624
 H   -1.7816924734   -4.8696716997   -1.5161044175