23

 C   -0.3004903062    1.4263947595   -0.0303513815
 C    0.0031744029   -0.0562653229    0.1634314286
 C    1.0785120536   -0.6220674094   -0.8110016945
 C    2.1332376277   -0.5239639537    0.3301329074
 C    0.9678037576   -0.3637951095    1.3478655583
 C    3.0883159067   -1.6845198141    0.4907712227
 C    3.8382214941   -1.8616978016    1.8326341901
 C    3.2010182108   -3.2634425907    1.8371105553
 O    2.4102816905   -2.9570220389    0.6696056619
 H    0.6192199005    2.0227837348   -0.0586262952
 H   -0.8363334668    1.6009316559   -0.9700232534
 H   -0.9201438772    1.8135891500    0.7862481211
 H   -0.9338791735   -0.6205195914    0.1835034654
 H    0.8851885751   -1.6639666307   -1.0785937791
 H    1.2715471807   -0.0501527620   -1.7231986138
 H    2.7256095140    0.3947159232    0.2484268084
 H    1.0690903312    0.4100723087    2.1143170495
 H    0.7332403945   -1.3171306593    1.8278202523
 H    3.7556231961   -1.7356794712   -0.3833683172
 H    4.9273763876   -1.8170610117    1.7925652237
 H    3.4773583002   -1.2033383281    2.6257543477
 H    3.9009331154   -4.0880538298    1.6475093588
 H    2.5759155643   -3.5212884872    2.6996784836