19

 O    1.7806154806   -0.0462701300    0.0056530574
 C    1.2475052268   -1.3121631335   -0.2080613629
 C    0.8340122499   -2.1687337026    0.9753369629
 C   -0.2128675701   -1.5278431092    0.0894683391
 O   -0.8424923838   -0.3578654021    0.5733699889
 C   -1.0937109904   -2.3655946694   -0.8143549563
 C   -2.2655807575   -2.9786228566   -0.0836179793
 C   -2.8007390325   -4.3021097771   -0.4209054628
 O   -1.9847707577   -4.1180668262    0.7377600952
 H    1.0384010842    0.5031869834    0.2963308724
 H    1.6810644418   -1.8042010511   -1.0744805632
 H    0.9509611016   -3.2455938598    0.9299575460
 H    0.9915839986   -1.7283728159    1.9551256291
 H   -1.1702912506   -0.5311868133    1.4614770058
 H   -1.4704932514   -1.7311812383   -1.6271148998
 H   -0.4952224706   -3.1637078647   -1.2664381774
 H   -2.9481833588   -2.2630336061    0.3780731948
 H   -3.8472541679   -4.5321545470   -0.2260050147
 H   -2.3439728623   -4.8743972405   -1.2277888353