20

 C    0.1953744552    1.3142643347    0.1376589409
 O   -0.3246358915    0.0541822658   -0.2263048850
 C    0.4271766485   -0.5896046086   -1.1965007707
 C    1.7674448853   -1.3719531925   -0.8464567475
 C    1.2749793335   -2.2598438463    0.3120347650
 C    0.1097503848   -2.7163868635   -0.1514371159
 C    0.0260104942   -2.0568993080   -1.5464377479
 N    1.4245216230   -2.1463429163   -2.0822720001
 C    2.0284821790   -3.4477226837   -2.3078508817
 H    1.1757118813    1.2244210473    0.6288715636
 H    0.3061447779    1.9760381404   -0.7351372864
 H   -0.5102579754    1.7663296867    0.8382941957
 H    0.5593950432    0.0351571344   -2.0887029654
 H    2.7509647542   -0.9035342665   -0.7963872537
 H    1.7571243148   -2.4172498234    1.2659081751
 H   -0.6292748853   -3.3526149861    0.3128468549
 H   -0.7991690273   -2.3029931763   -2.2152320408
 H    1.5505515293   -3.9144486233   -3.1754569841
 H    3.0879879195   -3.3092057368   -2.5469872183
 H    1.9508514557   -4.1369404378   -1.4531579776