18

 C   -0.2550561820    1.3614421802    0.1296475413
 N   -0.0165687773   -0.0691852943    0.0395308747
 C    0.5096138795   -0.6705476699   -1.1684324210
 C    0.9758641983    0.1290685371   -2.3718111054
 C    2.0528051238    1.1922878520   -2.1343904394
 O    2.2500491898    2.0692410601   -2.9527205945
 C    2.8665432430    1.0633202817   -0.9117936860
 C    2.5600415525    0.1998240417    0.0704813548
 C    1.3500535917   -0.6459017216    0.0795728580
 H    0.5047351410    2.0051076325   -0.3334578703
 H   -1.2166808555    1.5738609268   -0.3477637499
 H   -0.3315142497    1.6371010489    1.1857908531
 H    0.0236494031   -1.6106102828   -1.4261576295
 H    1.4069703250   -0.5747477591   -3.0961107221
 H    0.1389730916    0.6097123066   -2.8893046409
 H    3.7407812060    1.7042156064   -0.8575849406
 H    3.2161474091    0.1172140528    0.9340898116
 H    1.4095090001   -1.5334937592    0.7038602962