18

 C    0.4130854853    0.9358664282   -0.3761302419
 O   -0.2063689523   -0.1042796585    0.3735507869
 C    0.6335545522   -0.9225476741    1.0281080417
 N    0.1792382957   -1.9070033921    1.6743679903
 C    1.1131538473   -2.7170779488    2.3906650413
 C    1.1772971240   -4.1847435918    2.1284009220
 C    2.3904668416   -3.3222684402    1.7764319173
 C    2.7477836231   -3.1189976953    0.4056933084
 C    3.0687257209   -2.9481313528   -0.7424228523
 H    1.0744403687    0.5295952083   -1.1501238996
 H   -0.3944418493    1.4949676786   -0.8498162182
 H    0.9851420838    1.6106450617    0.2720397585
 H    1.6948718164   -0.6584174908    0.9428920734
 H    1.2252800109   -2.4209215252    3.4317659466
 H    1.2703584022   -4.8735031766    2.9605501460
 H    0.5970301255   -4.5480036260    1.2881128692
 H    3.2367886138   -3.3948520399    2.4541195718
 H    3.3471484504   -2.8190459448   -1.7585833915