18

 C   -0.1431797899    1.5801752714    0.0876747776
 C    0.0300338168    0.0775465647   -0.0142904479
 C    0.8034943809   -0.6121840163   -1.1537705617
 C    2.1124374782   -0.1455321456   -0.4546986125
 C    3.2097018127   -1.1903062202   -0.5665780873
 C    2.3281155669   -2.4315913771   -0.3850765787
 O    2.6243838588   -3.5954098260   -0.4246581811
 C    0.9699654642   -1.8075474815   -0.1663474275
 N    1.2132053933   -0.5650671395    0.7429389710
 H    0.7315713650    2.1469003457   -0.2390635818
 H   -0.9936886727    1.8963452665   -0.5255528984
 H   -0.3588602000    1.8591951832    1.1242695890
 H   -0.9075517008   -0.4175272219    0.2624338758
 H    0.5761982368   -0.6589224004   -2.2255190666
 H    2.4040998154    0.9021805964   -0.4684447614
 H    3.7304843310   -1.1938763023   -1.5288920130
 H    3.9549703638   -1.1145288481    0.2315833101
 H    0.1330840195   -2.4494845591    0.1043067044