18

 O   -0.6493457970   -0.0003094349    1.5091051021
 C   -0.2410592312    0.9660354035    0.8906125715
 C    1.2064580089    1.4801508984    1.0407542439
 C    1.9692107273    1.4819219571   -0.2003994222
 C    2.5923626175    1.4719805781   -1.2284611368
 N   -1.0274372513    1.6728572819    0.0495177786
 C   -0.8879056129    2.8921731130   -0.7560417795
 C   -2.3889131179    2.7485674040   -1.1416882289
 C   -2.4443095895    1.4717287930   -0.2516651343
 H    1.1807032006    2.4935029182    1.4634460398
 H    1.6776346317    0.8301334823    1.7826064629
 H    3.1534776585    1.4561923107   -2.1297642610
 H   -0.6392014303    3.7858402047   -0.1714571047
 H   -0.1710550973    2.7994675100   -1.5764721484
 H   -3.0257322643    3.5671516212   -0.8060288460
 H   -2.5656831994    2.5705190072   -2.2024741728
 H   -2.6519738196    0.5321384414   -0.7732267918
 H   -3.0895614238    1.5305193204    0.6307765577