25

 C   -0.1747848019    1.5559563105    0.0623447933
 C   -0.0660273520    0.0287097918    0.0586237984
 C    0.7543119721   -0.5213704302    1.2304144810
 C    0.8630076515   -2.0493935285    1.2342292451
 C    1.6869008374   -2.5981529308    2.4046071485
 C    1.7435993613   -4.1147968987    2.4230100017
 C    2.2981981335   -4.8178625752    3.6830412876
 C    0.9188849716   -5.5035996335    3.7322623778
 O    0.4376615094   -4.7178433283    2.6234681001
 H    0.8146217521    2.0235660616    0.0041138387
 H   -0.7640124069    1.9181729215   -0.7860480840
 H   -0.6551590372    1.9163580141    0.9789726775
 H   -1.0715957344   -0.4113306226    0.0844526835
 H    0.3847260655   -0.3043653013   -0.8857485269
 H    1.7620692723   -0.0825075210    1.2048260170
 H    0.3046060128   -0.1866023782    2.1758263559
 H   -0.1392839399   -2.4927763420    1.2751265215
 H    1.3094320195   -2.3854925518    0.2877991116
 H    2.7156545956   -2.2131671766    2.3580905068
 H    1.2601061109   -2.2515613776    3.3551350976
 H    2.1897117841   -4.4846589756    1.4871338813
 H    3.1595375383   -5.4706817099    3.5347512418
 H    2.4993823535   -4.1397013348    4.5154150162
 H    0.9268113174   -6.5765060022    3.4990670153
 H    0.3219067936   -5.3453082206    4.6381224226