18

 N    0.4418697386    0.2403384162   -0.8641005762
 C   -0.1129452863    0.1069340607    0.3733073308
 O    0.1739074897    0.8205012692    1.3149457562
 C   -1.1767904130   -0.9920608205    0.4803701663
 C   -0.7467541123   -2.3702406893   -0.0229208673
 C   -1.8208754265   -3.4635290432    0.1661126664
 O   -1.7181055296   -4.2477036354   -1.0125207221
 C   -1.4130870283   -3.3249812087   -2.0187786142
 O   -0.5254940999   -2.3765783857   -1.4469070456
 H    1.1969822219    0.8982108987   -0.9686556692
 H    0.2847867383   -0.4608721892   -1.5714898496
 H   -1.4444289044   -1.0562778462    1.5383504210
 H   -2.0698478968   -0.6765664486   -0.0734025150
 H    0.1953354978   -2.6667572112    0.4535777699
 H   -1.6403164695   -4.1074237234    1.0282925234
 H   -2.8228058553   -3.0148951709    0.2540450712
 H   -0.9137879592   -3.8423146351   -2.8429159420
 H   -2.3241065051   -2.8160339873   -2.3821667839