13

 C   -0.0118693248    1.3883891350    0.0062360301
 O   -0.0248066289   -0.0453985201    0.0149604783
 C   -1.2340930429   -0.5952455099    0.0006302760
 N   -2.3746051510    0.0172719366   -0.0200344668
 N   -3.2911246171   -1.0322492917   -0.0271509133
 C   -2.7240243486   -2.2831045972   -0.0116223372
 O   -3.2368600823   -3.3791142331   -0.0130730185
 N   -1.3527592569   -1.9581526128    0.0076956447
 H    1.0398306661    1.6723628270    0.0188616054
 H   -0.5034848353    1.7690033338   -0.8932438348
 H   -0.5277829636    1.7799853075    0.8872146871
 H   -4.2756615550   -0.8376820600   -0.0430186531
 H   -0.6084397997   -2.6331278651    0.0201490320