16

 C    0.0167331689    1.5718885659   -0.2522688146
 C   -0.0489900981    0.0752344054   -0.0165682783
 O    0.5699709933   -0.5692345981   -1.1454428377
 C    0.5928724404   -1.9260517644   -1.0872158940
 O    0.1484245082   -2.5883942570   -0.1917509523
 N    1.2176728316   -2.3775929759   -2.2421971761
 C    1.4737092055   -3.6868932023   -2.6310554228
 N    1.1601522687   -4.7123290953   -1.9575228792
 H    1.0533717978    1.9090232331   -0.3414215855
 H   -0.5155768630    1.8479079868   -1.1669755250
 H   -0.4456676647    2.0987970273    0.5875009742
 H    0.4801339555   -0.2193404156    0.8950636491
 H   -1.0801918907   -0.2800557156    0.0741949440
 H    1.5182800976   -1.6494061585   -2.8696131093
 H    1.9845931099   -3.6931819204   -3.6025007544
 H    1.4549998192   -5.5505292756   -2.4553944380