17

 C   -0.1235290657    1.5560527639    0.0399988000
 C    1.4042599556    1.5201084637   -0.2314567052
 N    1.4331516357    0.1562166355    0.3230819951
 C   -0.0336352368    0.0287504606    0.3009440990
 C    2.2964503954   -0.8206675236   -0.1079112306
 N    3.4699310929   -0.5348026372   -0.6818806605
 N    3.9919496249   -1.7468241119   -0.9038741456
 N    3.2646592851   -2.7844725827   -0.5367668179
 C    2.1685967314   -2.2273121508   -0.0206234460
 H   -0.3927305280    2.1301119096    0.9277766133
 H   -0.7547829838    1.8647327011   -0.7930048408
 H    1.6699103332    1.5521789619   -1.2961862547
 H    2.0290811166    2.2388335531    0.3067424136
 H   -0.4712790133   -0.3463119009    1.2320510158
 H   -0.4025934795   -0.5825891527   -0.5350880105
 H    4.8959638531   -1.8567438019   -1.3308819384
 H    1.3688436731   -2.8289027675    0.3786251835