16

 O   -0.5945908391    1.1268161684   -0.1401942094
 C   -0.1106827414   -0.1268820277   -0.0310962892
 N    1.0300809476   -0.4852638971   -0.6027579272
 N    1.1579219121   -1.7931689675   -0.2584075936
 C    0.1390224852   -2.2518024968    0.5080272589
 C   -0.7233000214   -1.1791833973    0.6804534749
 C    0.0853636500   -3.6539645224    0.9573188304
 C   -0.7260266843   -4.0423475189    2.1429313534
 N   -1.1583298563   -4.4431414618    0.7993281153
 H    0.0331931006    1.6258867885   -0.6778098245
 H    1.9532619655   -2.3099977679   -0.5914416775
 H   -1.6426632707   -1.1444283030    1.2404927140
 H    0.9844188951   -4.2280089248    0.7422671947
 H   -0.3896189044   -4.8565169160    2.7787143977
 H   -1.2639571370   -3.2530404163    2.6604279018
 H   -1.8967248413   -3.8231548594    0.4730544903