12

 N    0.0218462170   -1.1448440687   -0.0032871607
 C    0.0179117032    0.0127695493    0.0029906293
 C    0.0046090422    1.4286116555    0.0107926136
 C   -1.1212246780    2.2257683651    0.0293311145
 N   -0.7096346855    3.5268323239    0.0311410475
 C    0.6529012610    3.6002333696    0.0142944534
 C    1.1433267096    2.3108080627    0.0011544476
 C    2.5107846340    1.9440307596   -0.0181125413
 N    3.6307010642    1.6513520151   -0.0338528374
 H   -2.1634624956    1.9548599122    0.0410531782
 H   -1.3258486230    4.3223573494    0.0432302986
 H    1.1756626909    4.5417784362    0.0127504867