21

 C   -0.0723085107   -1.1988315367   -0.1776964908
 C   -0.0493332460   -0.0048634497   -0.0386947219
 C    0.0062578894    1.4453989633    0.1207056703
 C    1.4211326974    2.0060409162    0.0424111656
 C    2.2729220637    1.9474311303   -1.2623924160
 C    3.0565930408    3.0957807730   -0.5643967696
 C    1.6833938261    3.5428759572    0.0124833329
 C    3.6869434835    2.3671266189    0.6390748286
 C    2.4441834160    1.5379015533    1.1010200617
 H   -0.1051416442   -2.2531371148   -0.2978068943
 H   -0.6177265739    1.9176469768   -0.6494586540
 H   -0.4401645112    1.7226899433    1.0860112432
 H    2.8025193879    1.0177373376   -1.4895922714
 H    1.7152558781    2.2881498793   -2.1388038617
 H    3.6910863267    3.7812588628   -1.1264749194
 H    1.0623421575    4.0574191339   -0.7257876062
 H    1.6708607383    4.0875758595    0.9623500290
 H    4.5303955428    1.7348928940    0.3468307093
 H    4.0391454072    3.0616654689    1.4074608312
 H    2.1225276551    1.7875930518    2.1173480604
 H    2.6075112854    0.4581275710    1.0572425031