13

 O   -0.5658073251    0.8667723825    0.9003649339
 C    0.1431335029    0.7864751739   -0.0654686864
 C    1.4388961441    1.5723821469   -0.2083189664
 O    2.3627381783    0.9534904152   -1.1144612192
 C    2.3878006996    2.0943791373   -1.9911831681
 C    1.3783480326    2.8657727501   -1.0947275052
 C    0.1050876404    3.2150198360   -1.7002945589
 N   -0.9021187703    3.4841609283   -2.1993904053
 H   -0.0863400986    0.1334377279   -0.9351375118
 H    1.8646420309    1.7464915798    0.7857136387
 H    3.3813612823    2.5499260296   -2.0511734287
 H    2.0278310490    1.8547603460   -2.9961739860
 H    1.7975070039    3.7408538864   -0.5962857165