23

 C    0.8979531103    2.2485036044   -0.7198883715
 C    1.5188972268    0.9827056796   -0.1297284970
 N    1.4224216054   -0.1154332127   -1.0837864882
 C    1.6676492058   -1.5006724885   -0.6652270373
 C    2.0526945804   -1.8916703770    0.7468527053
 C    0.2928426078   -1.0605324097   -1.0760996732
 C   -0.8306051730   -0.9568845377   -0.0593058902
 C   -0.1967230003   -1.4262712207   -2.4663631470
 H    1.3639156128    2.4910841089   -1.6789615488
 H   -0.1751403336    2.1154928222   -0.8923383469
 H    1.0274086522    3.0973153331   -0.0406916684
 H    2.5860905079    1.1519789659    0.0604607154
 H    1.0589100989    0.7765506744    0.8485653069
 H    2.2342875520   -2.0598109296   -1.4124976272
 H    1.4706853752   -1.3819987345    1.5161405230
 H    1.9154174721   -2.9696590064    0.8855601156
 H    3.1104467040   -1.6717734591    0.9308487232
 H   -0.4935142423   -0.7080308763    0.9474784049
 H   -1.5564980810   -0.1947022189   -0.3660137104
 H   -1.3677175084   -1.9099940216    0.0006847720
 H   -0.6889918989   -2.4059759078   -2.4663414681
 H   -0.9209704840   -0.6882588095   -2.8312398016
 H    0.6376531199   -1.4537727986   -3.1710788202