16

 O   -0.0935594398   -0.0474430817    0.4184285902
 C   -0.0261023320    1.1526395449    0.2579116001
 N    1.1318753934    1.8462737440    0.0544080702
 C    1.2312112474    3.2910284276   -0.2021014768
 C    2.7670837880    3.5822097056   -0.1158129481
 C    3.3654348994    2.1791102363   -0.1627646041
 C    2.4044440406    1.2663794847   -0.0332086174
 C    3.2348844716    4.4798480258   -1.1658735556
 C    3.6187468494    5.2182654200   -2.0327532830
 H   -0.9090509133    1.8205362613    0.2660113013
 H    0.8605077925    3.5283375770   -1.2043731864
 H    0.6564236109    3.8625080208    0.5293005749
 H    3.0024203633    4.0435765475    0.8546590526
 H    4.4242437153    1.9889228123   -0.2468384432
 H    2.4678906699    0.1901533992    0.0232149427
 H    3.9617763132    5.8696568049   -2.7981822272