19

 C   -0.0195363445    1.6015999228   -0.0276770927
 C    0.1545497034    0.0852454725    0.0246865118
 C    1.2930856212   -0.8577177228   -0.3387675983
 N    2.7214407098   -0.5780799245    0.0749938933
 C    2.8288758755    0.7468353827    0.7093110142
 C    2.2066818926   -0.3616440658    1.4719285169
 C    0.7689340909   -0.7880304560    1.0855536851
 C    0.0233240434   -1.7917157114    1.9172075314
 H    0.4531261139    2.0453060675   -0.9104349280
 H   -1.0863918151    1.8411645345   -0.0803432406
 H    0.3747220550    2.1010667424    0.8601086776
 H   -0.7471221902   -0.4141428896   -0.3338887477
 H    1.1659831354   -1.6210423119   -1.0979310270
 H    3.8580450785    0.9793599548    0.9738144128
 H    2.2720142885    1.5872366601    0.3261173730
 H    2.7138735911   -0.8259790311    2.3132283486
 H   -0.3676504434   -1.3376116241    2.8365834873
 H   -0.8268485524   -2.2044924517    1.3650771500
 H    0.6704399061   -2.6266437387    2.2107922822