19

 C   -0.0707864914    1.4963539097   -0.1285979541
 C    1.4699639245    1.5914554503    0.1531003628
 C    1.4094506352    0.1433188482    0.6317766438
 C    2.3959918087   -1.0039441794    0.5790847895
 C    1.5862771120   -2.2544543849    0.9077521268
 C    0.3014144329   -2.1423396390    1.2577828553
 C   -0.2713987867   -0.7330539488    1.3416768555
 O    0.7565485678    0.1008391182    1.9510135400
 C    0.0067104697   -0.0616722900   -0.0124080528
 H   -0.6850044455    1.9677676858    0.6399274402
 H   -0.3872902398    1.8603090438   -1.1078358026
 H    2.0490314960    1.6984624179   -0.7698670446
 H    1.8130958770    2.3263910634    0.8852762774
 H    2.8524443551   -1.0942303892   -0.4154121147
 H    3.2162339670   -0.8652367423    1.2961465317
 H    2.0779657523   -3.2201287474    0.8343132936
 H   -0.3256549637   -3.0039326406    1.4616863508
 H   -1.2361378270   -0.6552968737    1.8514178383
 H   -0.1556888340   -0.6333611221   -0.9257385270