11

 O   -0.5699359970    0.6854026056   -0.5282018275
 C    0.2459102673    0.9247123501    0.3228203705
 C    1.3840372175    1.9055287737    0.1456402446
 C    1.3989919047    2.7560351219   -1.1267939039
 O    1.1799603429    3.9716593829   -0.3274923693
 C    1.1647167852    3.2740587935    0.8431633006
 O    1.0225802735    3.6753608920    1.9497682176
 H    0.2077660875    0.4449591521    1.3226783234
 H    2.3295038796    1.4451974392    0.4456995079
 H    2.3469925256    2.8166363350   -1.6617498876
 H    0.5633147932    2.5790572440   -1.8032841064