16

 C   -0.0321943541    1.5179825054    0.0195211361
 C    0.0005506388    0.0311833946   -0.0750626602
 C   -0.0189237228   -0.7599829880   -1.1691911297
 C    0.0278845125   -2.1752433904   -0.8087533761
 C    0.0843930806   -2.2857457162    0.6956883088
 C    0.0642475405   -0.8206632883    1.1484285324
 O    0.0943032723   -0.4176684194    2.2880094344
 N    0.0254754006   -3.2078830257   -1.5654971309
 O   -0.0314320990   -2.8604312363   -2.9201229840
 H    0.8535019307    1.8857086847    0.5494666771
 H   -0.0781850564    1.9897239831   -0.9644159867
 H   -0.8953658172    1.8432577637    0.6108473935
 H   -0.0633036726   -0.4275084468   -2.1975410676
 H   -0.7684265771   -2.8284149805    1.1144881799
 H    0.9914050681   -2.7839810756    1.0512061324
 H   -0.0263102448   -3.7211726543   -3.3519815892