16

 N    0.2898667279   -0.1160288251    0.9778388896
 C   -0.2074055308    0.5317696583   -0.1042475569
 O    0.1854045259    1.6029274373   -0.5249825021
 C   -1.3402898220   -0.2126782712   -0.8070243038
 C   -0.9804211881   -0.8169874885   -2.1798366742
 C   -1.2132909187   -2.1865577454   -1.4846517934
 O   -1.6249460318   -1.5210753438   -0.2528420663
 C   -2.2345225850   -3.0565045133   -2.0361279973
 C   -3.0729612305   -3.7760683950   -2.5089580949
 H    1.0031782280    0.3257280868    1.5331157135
 H   -0.1346196742   -0.9798717976    1.2731777442
 H   -2.2255952943    0.4314399378   -0.7964958960
 H   -1.6920798474   -0.5976779082   -2.9740906146
 H    0.0346211797   -0.6275918176   -2.5272783079
 H   -0.2905474538   -2.7556666706   -1.3158080152
 H   -3.8149153348   -4.4138760139   -2.9226307346