14

 N    0.0357918864    1.3993250554    0.1484364909
 C   -0.0193421781    0.0375248388    0.0434583938
 C   -1.1255566692   -0.8173812358    0.0322023897
 C   -0.6587725883   -2.1690628437   -0.0099660386
 C    0.6987600326   -2.1094397363   -0.0272952751
 N    1.0782592002   -0.7639454318    0.0030692170
 N   -2.4659436043   -0.3876373784    0.0205255475
 O   -3.3523604153   -1.2372752921   -0.0285147327
 O   -2.6891306535    0.8385691539    0.0562045281
 H    0.7779552479    1.8654554331   -0.3526811912
 H   -0.8853205084    1.8082916782    0.0295204164
 H   -1.2830694162   -3.0455204475   -0.0332873866
 H    1.4463406929   -2.8836502847   -0.0622480802
 H    2.0256019733   -0.4324077993    0.0653197310