25

 C   -0.5350637462    1.4696819942   -2.4515697922
 C   -0.4028748310   -0.0540993126   -2.3781869884
 C    0.5040349198   -0.5218164731   -1.2336447357
 C    0.6176211441   -2.0493304001   -1.1128562768
 C    1.2710420584   -2.7349485492   -2.3428741664
 C    2.0810260579   -3.9284578866   -1.7809294851
 C    2.2657186687   -3.5514127373   -0.3328440533
 C    1.4807712481   -2.5401401742    0.0442288832
 C    1.3630998904   -1.9689790554    1.4236903998
 H   -0.9559483592    1.8757838056   -1.5248080928
 H    0.4404946492    1.9445796993   -2.6049992578
 H   -1.1871792860    1.7763404934   -3.2755244573
 H   -1.3976480076   -0.5032614927   -2.2544230866
 H   -0.0168721517   -0.4323511926   -3.3328849362
 H    1.5096348673   -0.0973386017   -1.3662036530
 H    0.1198641951   -0.1091473493   -0.2912825263
 H   -0.4039050144   -2.4406072209   -0.9664975900
 H    0.5433694811   -3.0335769665   -3.1018002360
 H    1.9582004701   -2.0241960950   -2.8175277571
 H    1.5270668082   -4.8746865441   -1.8689509278
 H    3.0270914759   -4.0810045239   -2.3134546852
 H    2.9333394032   -4.0906406484    0.3322124978
 H    2.0094487359   -2.4967169033    2.1304630709
 H    1.6326893290   -0.9061526466    1.4492449439
 H    0.3313211936   -2.0351150287    1.7941803184