21

 C   -0.4581840727    1.6713676870    0.3097975475
 C    0.1796399866    0.3441356127   -0.1202050596
 C    0.8674851588   -0.3792509711    1.0282908166
 C    2.0972999602    0.3045286487    1.5994165976
 N   -0.0440567361   -1.0537958115    1.9549921696
 C    0.8396127465   -1.8846477843    1.1200430569
 C    0.1883087417   -2.7747614072    0.0923701567
 N    0.9577255358   -3.8519395781   -0.2608675551
 O   -0.9082065014   -2.5781712636   -0.3927030709
 H    0.2827962060    2.4028972883    0.6495414753
 H   -1.0030021044    2.1221201218   -0.5249860385
 H   -1.1696702620    1.5034018902    1.1242074465
 H   -0.5910435560   -0.3135546928   -0.5249417146
 H    0.9142019812    0.5199471670   -0.9172498533
 H    1.8403003815    1.2821654974    2.0204323552
 H    2.5538619844   -0.2930269802    2.3954918860
 H    2.8534888639    0.4687919251    0.8239495850
 H    0.3151572920   -1.0277839112    2.9066223154
 H    1.7082183182   -2.3281893120    1.6061846853
 H    1.9073784148   -3.9598909482    0.0486684934
 H    0.6311885609   -4.4307190880   -1.0172630250