16

 O    0.0432634144    1.3910727228    0.3409348164
 C    0.0295136631    0.0232677674   -0.0458936975
 C   -1.3544301672   -0.5416443932   -0.1030256160
 C   -1.9450974489   -1.3073234442   -1.0288087422
 C   -3.3613419457   -1.5818370053   -0.6006700793
 O   -3.6995296184   -2.9514037976   -0.5413918454
 C   -3.4241146321   -0.9379502617    0.8056525978
 O   -4.3338227192   -1.0472104453    1.5961221232
 N   -2.2326401149   -0.2737160231    0.9707954036
 H   -0.4288371065    1.8931541700   -0.3322684590
 H    0.5312528803   -0.1488742530   -1.0075093756
 H    0.6113429697   -0.4961611604    0.7254960726
 H   -1.5032050819   -1.6391915551   -1.9559532123
 H   -4.0697024169   -1.0322473657   -1.2478002288
 H   -4.4327863201   -3.0151054770    0.0859950704
 H   -1.9672033958    0.2188207914    1.8088330621