21

 C    0.1126206247    1.5610533376   -0.0298281507
 C   -0.0115425597    0.0556509937   -0.0121426406
 C    0.4535769377   -0.7452463615   -1.2641654305
 C   -0.7014942207   -1.7455741090   -1.0393141850
 O   -0.4039318560   -2.6727413503    0.0266741123
 C   -0.8033003248   -1.7061661470    1.0376024285
 C   -1.5419806624   -2.3489222001    2.1786531247
 C    0.3488397788   -0.7017142889    1.2998482176
 C   -1.3758134211   -0.7518457890   -0.0563285382
 H    1.1655360161    1.8669102349    0.0095352305
 H   -0.3212237584    1.9882399019   -0.9411388119
 H   -0.3948908693    2.0148867117    0.8291296206
 H    0.2816284241   -0.1610800333   -2.1756612534
 H    1.4692374741   -1.1515800311   -1.2781525429
 H   -1.1642301061   -2.2403685906   -1.8955919828
 H   -0.8841006282   -3.0478597699    2.7080016108
 H   -1.8858824629   -1.5956995343    2.8945382241
 H   -2.4077871222   -2.9089367359    1.8130756857
 H    1.3542472069   -1.1217815610    1.3976504479
 H    0.1284213045   -0.0792725863    2.1748489785
 H   -2.3824897652   -0.3431603615   -0.1096870753