21

 C    0.1493448921    1.5059773698    0.0190778025
 C    0.0025277982   -0.0161430524   -0.0093194731
 O   -1.3667851611   -0.3950750169   -0.0953755794
 C    0.8583691800   -0.6420411679   -1.1372791416
 O    2.1400113079   -0.8282824007   -0.5687082711
 C    1.9243912100   -1.3377111019    0.7571907925
 C    3.1686452953   -1.0031476505    1.5650986466
 O    4.3330612970   -1.5454033014    0.9788276110
 C    0.6141672911   -0.6867771441    1.2486477235
 H    1.2058300499    1.7873527158    0.0651600449
 H   -0.2754217125    1.9568245177   -0.8868451301
 H   -0.3651093564    1.9276313486    0.8874500395
 H   -1.7777925066    0.1239075712   -0.7947927320
 H    0.4027639784   -1.5998151323   -1.4349992141
 H    0.9673188144   -0.0062810110   -2.0210873216
 H    1.8185699748   -2.4317688302    0.6983702486
 H    3.2368153902    0.0934023499    1.6672679723
 H    3.0849587729   -1.4284005586    2.5710611243
 H    4.3061019990   -1.2888457288    0.0494882457
 H    0.8005511564    0.0469958332    2.0385742860
 H   -0.0882835509   -1.4272794995    1.6345183555