17

 C   -0.0367664639    1.5348459725    0.0284725125
 C    0.0840882321   -0.0091099238    0.0079219672
 C    0.6829158149   -0.4674645818   -1.2458930257
 C    1.1791487518   -0.8125851438   -2.2849391686
 C    0.8459084694   -0.5131828852    1.2117640959
 N    0.1882493385   -0.7882492199    2.3367791650
 N    1.1494586605   -1.1504585841    3.2080570854
 C    2.3923995613   -1.1203992499    2.6706815343
 C    2.2386011708   -0.7063915438    1.3658481768
 H    0.9527260147    1.9972861087   -0.0214061877
 H   -0.6251678221    1.8848356262   -0.8239551524
 H   -0.5247219667    1.8517884159    0.9536319687
 H   -0.9288078291   -0.4234290208    0.0813854182
 H    1.6088066115   -1.1334667260   -3.2013117423
 H    0.8843386879   -1.4241535100    4.1386419460
 H    3.2648381415   -1.3949743915    3.2423436461
 H    3.0074932369   -0.5759136527    0.6227968506