20

 C   -0.0097578674    1.5030612311    0.0220115895
 C   -0.0285963498   -0.0121377591    0.0292892981
 C   -0.8753878316   -0.7285148291    1.0525016421
 C    0.6302260232   -0.7457280046    1.1757061223
 C    1.4314645172   -1.9799719618    0.7829351482
 N    2.1882035429   -1.7196627542   -0.4372768673
 C    1.6384135858   -1.1366890872   -1.5453943441
 O    2.2391236667   -1.0179369233   -2.5968671054
 C    0.1966795470   -0.6691083768   -1.3364843674
 H    0.9227477686    1.8841290707   -0.4098768466
 H   -0.8391144482    1.9046182776   -0.5718018723
 H   -0.0991043424    1.9063266896    1.0356331249
 H   -1.4349565357   -0.1286291662    1.7625662492
 H   -1.3722597895   -1.6498679924    0.7617378274
 H    1.0717925014   -0.1367778582    1.9582393402
 H    2.1401574746   -2.2489247442    1.5705361864
 H    0.7639036285   -2.8446705424    0.6533566423
 H    3.1015421741   -2.1277623160   -0.5640348051
 H   -0.4479018159   -1.5501124564   -1.4509010731
 H   -0.0453142294    0.0085938331   -2.1570817995