22

 C    0.0827812358    1.5510982508   -0.1633277015
 C    0.1366599719    0.0484660512    0.0631590374
 O    0.6423135880   -0.5410174865   -1.1236926866
 C    0.6962237011   -1.9640795576   -1.2121257663
 C    1.4300350483   -2.6030817666   -0.0245931016
 C   -0.7124691117   -2.5571309840   -1.3755765616
 C    1.4807775559   -2.1976231742   -2.5284249187
 C    2.8516126621   -1.6943086626   -2.4808506827
 N    3.9430024282   -1.3166366862   -2.4458943212
 H    1.0790521524    1.9359861736   -0.3973984058
 H   -0.5819503827    1.7910299479   -0.9979016750
 H   -0.2859183024    2.0574319713    0.7337402892
 H    0.7860652716   -0.1805562183    0.9198621894
 H   -0.8674697226   -0.3349791902    0.2992447452
 H    0.8531578508   -2.5052969566    0.8986712681
 H    1.5806777255   -3.6719467850   -0.2050649907
 H    2.4083615214   -2.1381291783    0.1221508863
 H   -1.2307991208   -2.0840635517   -2.2147027772
 H   -0.6645715767   -3.6353828409   -1.5567935719
 H   -1.3099559076   -2.4035552608   -0.4731239297
 H    1.5057025839   -3.2662715172   -2.7649089247
 H    0.9519021076   -1.6891342978   -3.3408056105