17

 C    0.0034392901    1.5292575049   -0.0667723950
 C   -0.0730873878   -0.0129581708    0.0618324261
 C    0.3878201857   -0.3451537157    1.5058189227
 O    1.4537174508   -0.8130496788    1.7979278500
 C   -1.4877002795   -0.4359368045   -0.0152664303
 N   -2.5929158256   -0.7719578725   -0.0293862295
 N    0.6217581967   -0.6102643703   -1.0694117952
 C    2.0788696330   -0.7222365115   -1.1245992782
 C    1.2205445250   -1.9387809379   -1.0120101713
 H    1.0483055399    1.8411130195    0.0062048388
 H   -0.3909965620    1.8229275186   -1.0409827084
 H   -0.5741116829    2.0243932626    0.7176758724
 H   -0.3653604052   -0.0722204945    2.2781253866
 H    2.5124855520   -0.4438035247   -2.0812313068
 H    2.6612623592   -0.4614269485   -0.2488343427
 H    1.2489606317   -2.4637957906   -0.0628108350
 H    1.0253397090   -2.5598339052   -1.8813166942