17

 C   -0.5702018387    1.4159923649    0.0186845459
 C    0.1907598240    0.1047372374    0.0395329869
 C    1.0173678011   -0.2024434261   -1.2626448519
 C    2.2991686387   -0.6910885899   -0.6653355815
 C    3.5450062171   -1.2340997174   -0.8670316961
 N    4.1363255041   -1.2668319268    0.3623289838
 N    3.3500896782   -0.7810412162    1.3734143175
 C    2.2627357677   -0.4413537337    0.7147409851
 O    1.1244267025    0.1264790083    1.1664751246
 H    0.1126555187    2.2527586362   -0.1575596092
 H   -1.3193705011    1.4039275676   -0.7796326581
 H   -1.0826255955    1.5817853459    0.9700118224
 H   -0.4973509921   -0.7282951908    0.2310268334
 H    0.4917133767   -0.9288046087   -1.8893901778
 H    1.1503029256    0.7084251199   -1.8606743241
 H    4.0615260409   -1.5921923415   -1.7438146749
 H    5.0396190520   -1.6373708791    0.5973636941