18

 O   -0.1135134774    1.4398926131   -0.0877409842
 C   -0.0324658079    0.0373367125    0.0042514357
 C    0.8863344526   -0.5262464301   -1.1037394778
 C    2.2411943280    0.0066787097   -0.9830634761
 N    3.2908377932    0.4706794908   -0.8430518300
 C    0.2592199171   -0.5871479647    1.4190256202
 C   -1.1001028787   -1.2917664555    1.3499488477
 C   -2.1887469786   -0.2694100784    1.2115178191
 C   -1.3982708146   -0.6462933190   -0.0088672731
 H    0.7665038768    1.8082624113    0.0597390733
 H    0.9179696782   -1.6193986596   -1.0586166895
 H    0.4797578449   -0.2418827210   -2.0805360689
 H    1.1210403154   -1.2584497616    1.4197926077
 H    0.3746257731    0.1408179041    2.2272984125
 H   -1.2952840159   -2.3088150188    1.6645112320
 H   -3.2024816107   -0.6558985211    1.2289159628
 H   -2.0738686049    0.7193531354    1.6455647473
 H   -1.8636701106   -1.0694121470   -0.8916870988