21

 C    0.0528170333    1.3764289644   -0.1497785024
 O    0.0117449387   -0.0147454038    0.0613659979
 C   -1.2946585642   -0.5389032505    0.0145983072
 C   -1.1952436800   -2.0492040252    0.2551276842
 C   -2.4959681344   -2.7055304167    0.2268798708
 C   -3.5885640205   -3.2129523239    0.1903686296
 C   -4.8988988781   -3.8722329595    0.1910434853
 C   -4.7865803717   -5.3506580480   -0.2091118584
 O   -5.5693488425   -3.7193670745    1.4416249798
 H    1.0994489563    1.6850369087   -0.0935449250
 H   -0.3466878434    1.6516536759   -1.1387407934
 H   -0.5210553371    1.9231794131    0.6150936254
 H   -1.9342540629   -0.0753869218    0.7830628079
 H   -1.7640470372   -0.3425404774   -0.9630872630
 H   -0.5330165207   -2.4802974732   -0.5054249575
 H   -0.7040265133   -2.2159768181    1.2214677113
 H   -5.5524038980   -3.3642420287   -0.5288492687
 H   -4.1365779695   -5.8873279810    0.4895827521
 H   -5.7787853161   -5.8091327424   -0.1903202379
 H   -4.3629960918   -5.4518775142   -1.2126000895
 H   -4.9588708770   -4.0075350932    2.1293224741