16

 C    0.0963758718    1.4653388428    0.0479740480
 N   -0.0896100239    0.0208530803    0.0640220588
 C    0.5382118081   -0.7530427599    0.9985389274
 C    0.7656024224   -2.1014264967    1.0922586416
 C    1.4076449416   -2.2393911697    2.3516280232
 C    1.8952670946   -3.4923999527    3.0066935632
 N    1.5634994184   -1.0892226810    2.9659513164
 O    1.0033943211   -0.1261803916    2.0866336250
 H    1.1260535413    1.7670608693   -0.1888361114
 H   -0.5783464657    1.8936898784   -0.6960173212
 H   -0.1615930335    1.8766007177    1.0256234868
 H   -0.1794470105   -0.4193617599   -0.8377223391
 H    0.5087650128   -2.8701753304    0.3832469654
 H    2.6415744439   -3.9953071889    2.3828564478
 H    2.3470325359   -3.2590129020    3.9727226774
 H    1.0721042216   -4.1967799458    3.1655199507