17

 C   -0.1191631451    0.9526074445   -0.4667843230
 C    1.2341816461    0.9251949895    0.1552492128
 N    0.3665204811   -0.2456611157    0.2087188490
 C   -0.2344184096   -0.5446941007    1.5076678506
 C   -1.4671468665   -1.3775073518    1.3410318300
 C   -2.7083661563   -1.2014514979    1.8644088258
 O   -3.5373943297   -2.1824030688    1.4776024540
 N   -2.8383867133   -3.0591408284    0.6508837710
 C   -1.6252924218   -2.5744300124    0.5804709696
 H   -0.8845169583    1.5451347437    0.0323318955
 H   -0.2359319679    0.8743960678   -1.5434616637
 H    2.1248293059    0.8256693850   -0.4582376650
 H    1.3722229790    1.5014403075    1.0690684924
 H    0.5160415714   -1.0902066827    2.0938298947
 H   -0.4815868401    0.3680226111    2.0789107535
 H   -3.1368266290   -0.4513220286    2.5116047878
 H   -0.8845787758   -3.0817063822   -0.0208714949