14

 O    0.1507154806    1.2745403096   -0.3456829620
 C    0.0657818662   -0.0759307131    0.0086956648
 C   -0.0119160318   -0.3041680999    1.5276041079
 O   -1.2336514825   -1.0724267757    1.3928913521
 C   -1.3518724518   -0.7502371928    0.0148250949
 C   -2.4778428309    0.2221324888   -0.2881751591
 O   -3.2582068527    0.6699698225    0.5046442062
 C   -2.5189992986    0.6016421774   -1.7231639210
 N   -2.4847773123    0.8719406532   -2.8471992709
 H    0.2907165284    1.3500315545   -1.2956540517
 H    0.8175282662   -0.6891102442   -0.4985264568
 H    0.7898073213   -0.8886267126    1.9872868332
 H   -0.1709938015    0.6266468935    2.0827501920
 H   -1.4707850805   -1.6355565012   -0.6260730396