19

 C    0.2288259376    1.6221316531    0.0974472857
 C    0.0983991188    0.1257172448    0.1291054992
 O   -1.2648544733   -0.3460162205   -0.0219082982
 C   -1.1343788424   -1.2382644345    1.1103252888
 C    0.3340030668   -0.8445091854    1.3377046929
 C    1.3669902636   -1.6491404877    0.5017509323
 C    1.0701207274   -0.7369878050   -0.6976458132
 C    1.0467944951   -0.9979778365   -2.1337482889
 O    2.0801597218   -0.1982899893   -1.5328357988
 H    1.2704812361    1.9231579330    0.2403665419
 H   -0.0999964989    2.0053938326   -0.8747232138
 H   -0.3900150522    2.0817251978    0.8732281222
 H   -1.8200737903   -0.9530245876    1.9174905914
 H   -1.3187468135   -2.2860696657    0.8401966055
 H    0.6274917731   -0.5172089251    2.3337403445
 H    2.3931294961   -1.5180870819    0.8559610477
 H    1.1698499684   -2.7176340347    0.3766788654
 H    1.3714140426   -1.9666711318   -2.5113121713
 H    0.3457704831   -0.4585828255   -2.7685601433