19

 C   -0.0910070022    1.5297911578    0.1737023099
 C    1.4698900805    1.6367252691    0.0466172761
 C    1.5103128524    0.1096799842   -0.1751448285
 O    0.9094704371   -0.4742033932    0.9952093182
 C    0.0423110440    0.0164545894   -0.0344901559
 C    2.4974661747   -0.7162260730   -0.9244165736
 C    2.9489438293   -0.2287677601   -2.3234779136
 O    4.3271878815   -0.1652546350   -1.9131405231
 C    3.9966310506   -0.5499892063   -0.5636817548
 H   -0.5308193193    1.8274223297    1.1281859512
 H   -0.6120728140    2.0344108381   -0.6433019662
 H    1.7799980531    2.2193708817   -0.8237847396
 H    2.0128155123    1.9836929892    0.9285038458
 H   -0.6697252694   -0.6861304929   -0.4539922698
 H    2.1641795449   -1.7556715281   -0.9113695410
 H    2.7935665138   -0.9367846088   -3.1461331133
 H    2.5632764578    0.7537449066   -2.6258368695
 H    4.2146141951    0.2484327058    0.1572848481
 H    4.5183684177   -1.4625258442   -0.2539569305