18

 C   -0.0501234578    1.5141932507    0.0539454314
 C    0.0187644512    0.0046761681    0.0402131589
 C    1.3300676018   -0.7045361658   -0.2427917047
 C    0.7524092214   -0.7440447313    1.1400599765
 O    1.4442771797   -0.0090872535    2.1085156932
 C    0.1630264771   -2.0113338445    1.6762946421
 C    0.7833642965   -2.7399971068    2.7878238308
 O   -0.3622992286   -1.8999639691    3.0084792023
 H    0.8269659055    1.9347505187    0.5517859871
 H   -0.0958371415    1.9170703008   -0.9635212696
 H   -0.9387413719    1.8636829752    0.5912095796
 H   -0.8702938530   -0.4917854858   -0.3428824265
 H    1.3283079003   -1.6100777517   -0.8406109756
 H    2.2128372835   -0.0850317121   -0.3620787818
 H    0.8511413567    0.0397672295    2.8709411386
 H   -0.4749905870   -2.5615270304    0.9842189445
 H    0.6003337728   -3.8067901242    2.9027225933
 H    1.7139527333   -2.3669933479    3.2079383199