20

 C   -0.1417953607    1.5524691462   -0.0966745402
 C    0.0739537404    0.0561262364    0.0105795783
 O    1.1427741218   -0.4310634559   -0.8418439830
 C    1.7606598857   -1.1396094716    0.2486928373
 C    2.8615560310   -0.3052276936    0.9094434147
 C    1.8511058508    0.2594758904    1.8944435028
 C    0.7231490565   -0.5683927806    1.2715806505
 N    2.9717019954   -0.5469260453    2.3270346917
 C    2.8272093786   -1.8687700431    2.9247629638
 H    0.7687732021    2.1051162410    0.1476583314
 H   -0.4352268457    1.8142999008   -1.1181451952
 H   -0.9429638371    1.8730194711    0.5784848723
 H   -0.8567559859   -0.4713153002   -0.2432131723
 H    1.9281187828   -2.1948993348    0.0180974036
 H    3.6729549457    0.1870513166    0.3837279335
 H    1.7641647343    1.2643476404    2.2939156376
 H    0.0762739372   -1.1584004494    1.9216960750
 H    2.0269276483   -2.4921798702    2.5035842472
 H    3.7736774764   -2.4061192604    2.8103504347
 H    2.6363636523   -1.7477968879    3.9957381164