15

 C    0.8594281249    1.4722736179    0.3594787953
 C    0.9724504564    0.3108259966   -0.5783801224
 C   -0.2699379525    0.4610394999    0.2805560267
 C   -0.4742315323   -0.4646897667    1.4024370286
 N    0.4623488214   -0.9997404157    2.1726876442
 C   -0.2522392331   -1.7670879604    3.0409298220
 N   -1.5619732275   -1.7512000786    2.8688618165
 N   -1.6841334498   -0.9069758897    1.8105137215
 H    1.4575045562    1.4479888687    1.2626011367
 H    0.6738061179    2.4588145990   -0.0498260208
 H    0.8658716910    0.4860272391   -1.6428942901
 H    1.6462675467   -0.4920098633   -0.3039010716
 H   -1.1796825549    0.7766353786   -0.2197700352
 H    0.2074960684   -2.3549326437    3.8215043766
 H   -2.5968706628   -0.6949916517    1.4427878718