17

 O   -0.6098644300    0.5866688394    0.1531288612
 C    0.0800321986    1.5655557317    0.2738756560
 C    1.4587292363    1.7340267766   -0.3230242554
 C    1.5238387757    2.9582932594   -1.2517960685
 C    2.9449191782    3.2068464785   -1.7761138534
 N    3.0390351184    4.3702265302   -2.6442028681
 C    3.1787411794    5.6283358217   -2.1487679211
 O    3.2649335324    5.8991473095   -0.9691680831
 H   -0.2772692534    2.4512781110    0.8503646685
 H    2.1660133103    1.8774054705    0.5069278402
 H    1.7270361532    0.8112033903   -0.8464092391
 H    0.8388357151    2.8188641752   -2.0969058063
 H    1.1957167593    3.8549661470   -0.7145369568
 H    3.6205261719    3.3751147875   -0.9321663731
 H    3.3080630411    2.3347007526   -2.3293740448
 H    2.9188254133    4.2561264839   -3.6375563602
 H    3.2167480803    6.3906016651   -2.9520885859