17

 C    0.0228778538    1.4522711515   -0.0942593053
 C    0.0186452431   -0.0372657468   -0.0076919967
 O    0.5888160404   -0.8200375100   -1.1020297502
 C    0.1103958009   -1.8176975311   -0.1637376926
 C    0.5190842461   -1.0185776244    1.1068997191
 C   -0.8824408865   -1.1490532503    1.7336609883
 C   -1.1989257210   -1.0336400480    0.2212178263
 C   -2.4581088002   -1.0325315457   -0.4524061047
 C   -3.5222793309   -1.0178299109   -1.0145341339
 H    1.0469709542    1.8256992703   -0.1903661845
 H   -0.5529186446    1.7829300656   -0.9637019495
 H   -0.4241399265    1.8869950716    0.8050627702
 H    0.2289149738   -2.8728331268   -0.4068124489
 H    1.5005699268   -1.0122199927    1.5783195789
 H   -1.1243645395   -2.1072616709    2.2001698966
 H   -1.2233061562   -0.3214274407    2.3610529972
 H   -4.4582580037   -1.0095877308   -1.5159057003