20

 C    0.1463803881    0.9630727320    0.4888982408
 O   -0.3182007227    0.0702984454   -0.5157293624
 C   -1.2297116279   -0.8375765633   -0.1120202704
 N   -1.6699295298   -1.6994012062   -0.9155366600
 C   -2.6752729089   -2.6232818749   -0.4688480211
 C   -2.3525601227   -4.1512407250   -0.4730793983
 C   -1.5342955285   -3.9334972554    0.8316022109
 C   -2.8431349583   -3.1023846987    1.0205258758
 C   -3.6042681708   -4.3234841539    0.4328824201
 H    0.8303577649    1.6535241905   -0.0058978006
 H   -0.6779654978    1.5336546659    0.9341978027
 H    0.6861109209    0.4308523562    1.2817898089
 H   -1.5329649269   -0.7387154753    0.9406945037
 H   -3.6164359263   -2.3795285566   -0.9759569683
 H   -2.0711168240   -4.7513433460   -1.3388885485
 H   -1.4223532424   -4.8050817478    1.4823618283
 H   -0.5962436702   -3.3848510382    0.7405151469
 H   -3.1369653249   -2.5138216974    1.8920199036
 H   -4.5794159448   -4.1287897394   -0.0232069642
 H   -3.6249550671   -5.2193220418    1.0577474122