19

 C    0.0224761969    1.5051305660    0.1275355885
 C    0.0592533914   -0.0129944478    0.0889266994
 O    1.1179842121   -0.6087362369    0.0803605565
 C   -1.2518163953   -0.7429622832    0.0640860074
 C   -1.2353200452   -2.0819571837    0.0614106117
 C   -2.4791089037   -2.9131486632    0.0816122859
 O   -3.6580656178   -2.1718473447    0.3172589444
 C   -3.6879284213   -0.9585312788   -0.4141327305
 C   -2.5748080010   -0.0087353366    0.0385931792
 H    1.0387205012    1.8834153238    0.2393353935
 H   -0.4100998904    1.9031776741   -0.7976711967
 H   -0.6027029824    1.8664355589    0.9512857945
 H   -0.2788986469   -2.5971171281    0.0443848215
 H   -2.5522139386   -3.4780261628   -0.8676866907
 H   -2.4194018139   -3.6613991427    0.8817395358
 H   -3.5864798167   -1.1594785662   -1.4936261409
 H   -4.6756994760   -0.5225963246   -0.2429307962
 H   -2.8136341405    0.3951993176    1.0314605375
 H   -2.5373152218    0.8490061690   -0.6432762309