18

 C   -0.1067850845    1.4980875972    0.0753492706
 C   -0.0033612029    0.0117490606   -0.0031571109
 C    0.3195112398   -0.9834787648   -1.1487323349
 C   -0.5714793777   -2.0187710686   -0.5606185372
 N    0.8862597374   -1.9902509707   -0.1838293724
 C    0.5623831444   -1.0272290789    0.9643104962
 C    1.3405041517   -0.9398999690    2.2300161867
 C   -0.9129058638   -1.0532324589    0.6172818916
 O   -2.0413026937   -0.8050199539    1.3502774246
 H    0.8494705722    1.9851757031   -0.1478390314
 H   -0.8530481721    1.8837926183   -0.6289712408
 H   -0.4155219959    1.8070072424    1.0793544693
 H    0.7120523207   -0.8577094267   -2.1525582653
 H   -1.0395909224   -2.8985007437   -0.9889232293
 H    2.3784394362   -0.6465047177    2.0372719775
 H    0.8972353477   -0.1974723044    2.9018820322
 H    1.3557586886   -1.9046934789    2.7504381154
 H   -2.1390365656   -1.4968660655    2.0154012381