19

 O   -0.2248570932    0.0172024609   -0.0625762513
 C   -0.0694966175    1.2081864883   -0.1278402624
 C    1.2702731098    1.9106854776   -0.1222604241
 C    1.4014434653    2.9611540660   -1.2563189830
 C    2.6008078380    3.7751554464   -1.0580825047
 C    3.6006668320    4.4212568875   -0.8921180277
 C    1.3994826262    2.3019422162   -2.6315830667
 C    0.0979772776    2.0070409173   -3.3367538136
 C    1.0162100850    3.0876530832   -3.8543762896
 H   -0.9459110371    1.8986549989   -0.1717357246
 H    1.3626476535    2.4261154738    0.8433628104
 H    2.0673917156    1.1651157592   -0.1825018381
 H    0.5268798273    3.6269721235   -1.2006589066
 H    4.4776768933    5.0030128341   -0.7504804879
 H    2.1932148653    1.5711511033   -2.7591004294
 H    0.0152107765    1.0802324110   -3.8926337509
 H   -0.8264516815    2.3199656029   -2.8620979307
 H    0.7103042940    4.1196345296   -3.7165543505
 H    1.5634964197    2.9077632603   -4.7725370285