20

 C   -0.0225510669    1.5813793444   -0.0577869791
 C    0.0172144176    0.0478554511   -0.0029351387
 C    0.7141424216   -0.5342505957   -1.2371792666
 O    0.9259382063   -1.9276552102   -1.1041144620
 C    1.8263038798   -2.2388073445   -0.0617197882
 C    1.5735324423   -1.4798300111    1.2201458965
 C    2.3334373638   -1.9544771327    2.4263340094
 C    0.7236060020   -0.4521172110    1.2338988730
 H    0.9895305982    2.0011154638   -0.0668206793
 H   -0.5430595833    1.9322189851   -0.9554826934
 H   -0.5451668012    1.9910542052    0.8125581266
 H   -1.0204285653   -0.3185740003    0.0056197985
 H    0.1056368385   -0.4010035731   -2.1368636238
 H    1.6740465653   -0.0121569161   -1.3956780320
 H    1.7268085868   -3.3175499801    0.1138015223
 H    2.8709369659   -2.0685913516   -0.3870393471
 H    3.4168364367   -1.9304821288    2.2494867649
 H    2.1211853673   -1.3341468802    3.3010024165
 H    2.0820656321   -2.9937752170    2.6748972164
 H    0.5305557524    0.0777264829    2.1657733261