19

 C   -0.2871213844    1.4454383222    0.0142772106
 C    0.0038202014   -0.0310612711   -0.0520182664
 C    0.1103156088   -0.8351716554    1.2154709535
 C    1.3494434083   -0.4704511100    2.0502773343
 C    1.2880742176   -1.0946274686    3.4445224041
 N    2.4972909077   -1.4302984243    3.9795859294
 O    0.2433902495   -1.2515953956    4.0465605337
 N    0.1685799230   -0.6726721156   -1.1460230989
 O    0.0527391483    0.1747775355   -2.2635750566
 H    0.5406838395    2.0251303014   -0.4076971976
 H   -1.1673820784    1.6811599264   -0.5917992189
 H   -0.4633184180    1.7735956889    1.0406667499
 H   -0.7719126621   -0.6695416494    1.8436946752
 H    0.1368830593   -1.8969074346    0.9573926196
 H    2.2658641391   -0.7604255735    1.5246479251
 H    1.4018434666    0.6167930170    2.1937500800
 H    3.3552502570   -1.3584379117    3.4626760734
 H    2.5155594675   -1.8398888246    4.8992177656
 H    0.1693560495   -0.4411030972   -2.9942472658