15

 O   -0.0014820667   -0.0217814562   -0.2352965379
 C    0.0614697077    1.1524153290    0.0222654210
 C    1.3036575641    1.9678652019    0.0206643384
 C    1.7003899882    2.8337323883    1.2391397108
 C    2.7007913941    3.6600213766    0.4112806177
 O    1.8079329864    4.3445685568   -0.5194017196
 C    1.6409186713    3.0823489411   -1.1318442689
 C    3.0190483435    2.5677228866   -0.7187264847
 O    2.5494182617    1.2970953048   -0.2839647746
 H   -0.8444329261    1.7523031515    0.2713959221
 H    0.9074613525    3.4675890096    1.6395327269
 H    2.1433562335    2.2108464096    2.0179045161
 H    3.4281144148    4.3111465112    0.8899146676
 H    1.1478793461    3.0573905122   -2.1010998374
 H    3.9439918590    2.5763994570   -1.2908366375