17

 N   -0.1524977014    1.2601164077    0.3384567161
 C   -0.0487078725    0.0547075625   -0.0444573350
 O    1.1205059240   -0.4382308373   -0.5181284134
 C    1.2870206558   -1.8150078125   -0.8885877478
 C    0.0189787782   -2.5208051410   -1.2517432176
 C   -1.1600687972   -2.0624728453   -0.8466206784
 C   -1.2502364997   -0.8423902787   -0.0211482341
 C   -2.0563093371   -0.8315962779    1.2519705269
 N   -2.5628297672   -0.1761714810    0.0544444056
 H    0.7414171793    1.7450322502    0.2644361483
 H    1.9847274949   -1.8016804603   -1.7329432086
 H    1.7983333586   -2.3294228350   -0.0607176488
 H    0.1146624626   -3.4276659688   -1.8400331935
 H   -2.0948980111   -2.5544984438   -1.0932692357
 H   -2.5795912921   -1.7372549186    1.5478370681
 H   -1.6693261455   -0.2184367240    2.0603706934
 H   -2.3738735197    0.8243597139    0.1275218046