11

 N    0.1952199257   -1.1455743230   -0.0059654446
 C    0.0588640893    0.0037442128    0.0021932725
 C   -0.0761622044    1.4103837188    0.0118294990
 C   -1.2034429813    2.2331793828    0.0322599157
 C   -0.6778458453    3.5479482098    0.0321012817
 N    0.6485221193    3.5433027582    0.0132733398
 N    0.9910339491    2.2501777579    0.0013134034
 C   -2.5611005166    1.8379147864    0.0492730732
 N   -3.6775757265    1.5334979178    0.0633850604
 H   -1.2260064668    4.4769637777    0.0449745516
 H    1.9654163276    1.9904761508   -0.0139268727