20

 O    0.2002043326    1.3854138832    0.2060864978
 C    0.0404325648   -0.0217847543    0.2808950930
 C   -1.2534551769   -0.5093248204   -0.3788804947
 C   -1.3866671754   -2.0132855845   -0.3332723497
 N   -1.8573580211   -2.5929022787    0.9493292754
 C   -2.6882112961   -2.7042843456   -0.2387415401
 C   -4.1198049906   -2.1941276924   -0.3671069262
 O   -4.4906798172   -3.3874064321   -1.0974152890
 C   -3.1764778148   -3.9634835319   -0.9510529458
 H   -0.4945237471    1.7879929119    0.7367751389
 H    0.9073060058   -0.4443043925   -0.2402608622
 H    0.0775104599   -0.3809099434    1.3201847742
 H   -2.1122665695   -0.0600102772    0.1358441655
 H   -1.2781590736   -0.1605619257   -1.4184200874
 H   -0.6008420225   -2.5594031851   -0.8571299544
 H   -1.3909399975   -3.4760183719    1.1447229140
 H   -4.6597237176   -2.1022233819    0.5834372624
 H   -4.2686520949   -1.2855267757   -0.9635770702
 H   -2.7126275937   -4.1935511619   -1.9189440968
 H   -3.1903759644   -4.8730442998   -0.3332010348