16

 O   -0.1917295866    0.1686340396    0.5348103929
 C   -0.1259695787    1.2867805731    0.1305725806
 C   -1.0975561558    2.2649899357   -0.5661799695
 N    0.0188500104    3.2462072028   -0.7467877387
 C    0.2143649466    4.3110488806    0.3043615541
 C   -0.6447409317    4.2842482077    1.5725218067
 O    0.1824157502    3.2455862447    2.1561165670
 C    1.1615232317    3.3770648354    1.0999294296
 C    0.9965336785    2.3365255733   -0.0269061575
 H   -1.4785701896    1.8954603610   -1.5245899718
 H   -1.9501617259    2.5902308687    0.0373948841
 H    0.4769002824    5.2783356202   -0.1232691408
 H   -0.5722632286    5.2174816796    2.1465472614
 H   -1.6985874449    3.9960826533    1.5008678498
 H    2.1600496765    3.6153829777    1.4727075525
 H    1.9000454457    2.0292563466   -0.5624666603