23

 C   -0.1217930842    1.5593287222   -0.1292859090
 C    0.0202174552    0.0388110791    0.0007836775
 C    0.7737121573   -0.6112918688   -1.1876748996
 C    1.5285109322   -1.8239684982   -0.5938086585
 C    1.6009398084   -1.4804258949    0.8730013720
 C    0.7974917603   -0.4688136155    1.2125557668
 C    0.5920670254    0.0664701839    2.6036659484
 C    1.5315668097    1.2236277572    2.9570404983
 O    1.2238345998    1.6338395629    4.2812811608
 H    0.8591747522    2.0419580479   -0.2054910488
 H   -0.6894433127    1.8170240665   -1.0300479741
 H   -0.6491902092    1.9943725042    0.7259031273
 H   -0.9984161342   -0.3782910828    0.0647320165
 H    0.1096140235   -0.8786934013   -2.0142727442
 H    1.5005213357    0.1108547161   -1.5780210886
 H    0.9747458853   -2.7626606100   -0.7428903036
 H    2.5120102862   -1.9757558853   -1.0534917442
 H    2.2027567052   -2.0482810928    1.5763197944
 H   -0.4393453414    0.4161463562    2.7345968651
 H    0.7532091834   -0.7250983294    3.3433572219
 H    2.5739180915    0.8786092375    2.8732538127
 H    1.4025899614    2.0513883532    2.2439445955
 H    1.8070696791    2.3622484621    4.5131298933