15

 N    0.1421539916    0.1826002464   -1.0035411640
 C   -0.0036069593    0.0299022997    0.3438014127
 O    0.4594571297    0.8113581327    1.1504695805
 C   -0.8300545587   -1.1862388333    0.7890949326
 C   -0.9798003258   -2.2857298300   -0.2332357068
 C   -2.2086618120   -3.1044166572   -0.3362906542
 N   -1.8996849541   -2.1081879488   -1.3825067459
 H    0.6732424001    0.9725107337   -1.3312881481
 H   -0.2247836303   -0.4772145088   -1.6691104546
 H   -0.3582437996   -1.5581835422    1.7037167132
 H   -1.8182536042   -0.8097114891    1.0855898650
 H   -0.0452303019   -2.7614924029   -0.5255392381
 H   -2.1467298863   -4.1400010052   -0.6569785573
 H   -3.0241919356   -2.8903768033    0.3495029841
 H   -2.4738846436   -1.2820362217   -1.2223117790