16

 N    0.0136563998    1.2985397640   -0.2557312157
 C   -0.0652369340   -0.0372064293   -0.0281045359
 C   -1.1810489767   -0.8078726458    0.0806841426
 C   -0.8374578515   -2.2113811164    0.2726662509
 O   -1.5750992975   -3.1624915373    0.4224648372
 C    0.7044929783   -2.2956413575    0.2349984832
 O    1.2011001290   -2.6751203110   -1.0780706553
 C    1.7659033949   -1.3706146189   -1.2930296001
 C    1.1998201811   -0.8515285690    0.0558219405
 H    0.8839774295    1.7772663577   -0.0964584472
 H   -0.8175757830    1.8636838710   -0.1989124649
 H   -2.2031574911   -0.4544100662    0.0320102270
 H    1.1184599628   -2.9241474215    1.0284008268
 H    2.8616820725   -1.4058621139   -1.3354300029
 H    1.3807119105   -0.8871544625   -2.1981749478
 H    1.9307960654   -0.4452920834    0.7589219916