18

 O   -0.1143996106    1.4078413211   -0.0807373483
 C    0.0148258430    0.0013649798    0.0872531501
 C   -1.3677893019   -0.5832865219    0.0176117458
 C   -2.2590501314   -0.5965456951   -1.2656030477
 C   -3.0684106961   -1.6246831860   -0.3930006294
 C   -1.6775736341   -2.0992710143    0.1404588165
 C   -3.5062328929   -0.6668620248    0.7279811949
 O   -4.5985265844   -0.4427188546    1.1823027287
 N   -2.2894210605   -0.0585824112    1.0564353866
 H    0.7488141877    1.8117133764    0.0466712748
 H    0.6391743069   -0.4460199007   -0.7009137512
 H    0.4647664253   -0.2470821160    1.0607321527
 H   -2.7479066241    0.3378538144   -1.5491740262
 H   -1.7787019463   -1.0625967147   -2.1297574667
 H   -3.8264795907   -2.2935952579   -0.7911374686
 H   -1.1387076199   -2.7082590064   -0.5889297994
 H   -1.6266986803   -2.5368451885    1.1396310472
 H   -2.2761618297    0.9334799705    1.2518041301