17

 N    0.1141240321    1.3614571792    0.0227720976
 C   -0.0360205120   -0.0669992029   -0.0477301078
 C    0.3140358939   -0.9014263686   -1.3216763338
 C   -1.0651198523   -1.6290151208   -1.2239041457
 C   -1.4026662719   -0.8153833086    0.0433655957
 O   -0.9981386635   -1.4933475983    1.2593709437
 C    0.2578410120   -0.7905739826    1.2971006441
 C    1.4228197597   -1.6743399408    1.3667273814
 N    2.3575328666   -2.3534687865    1.4028634858
 H    1.0944133284    1.6066357794    0.1450703248
 H   -0.1779916257    1.7924461923   -0.8501105264
 H    0.4007465738   -0.2624160254   -2.2044620983
 H    1.2076915878   -1.5268241362   -1.2591531824
 H   -1.7297433375   -1.4267442517   -2.0673437463
 H   -1.0299211094   -2.7052236399   -1.0477303489
 H   -2.3773833420   -0.3350738285    0.1474102906
 H    0.2920747500   -0.0823707503    2.1341942259