20

 C   -0.0319590091    1.5327810234    0.2549546261
 O    0.0397303227    0.1270071437    0.1865493867
 C   -1.1811911957   -0.5632109081   -0.0726767965
 C   -2.2356933147   -0.2870181290    1.0068519806
 C   -1.7603425715   -0.2710763858   -1.4962540315
 C   -2.1268095822   -1.6369451171   -2.0189685234
 C   -1.6232506493   -2.6131084057   -1.2655773815
 C   -0.8309366888   -2.0773289175   -0.1026589874
 H    0.9964756406    1.8950442134    0.3339544062
 H   -0.4864449413    1.9743316811   -0.6442372640
 H   -0.5904820762    1.8877610516    1.1325440278
 H   -2.5852173910    0.7496607461    0.9869635073
 H   -3.1049782996   -0.9311772527    0.8419111712
 H   -1.8294775514   -0.5001291448    2.0005936704
 H   -2.6110859731    0.4204052621   -1.4724518596
 H   -0.9902144416    0.1947186909   -2.1260304379
 H   -2.7071289774   -1.7778885343   -2.9244644070
 H   -1.7306164279   -3.6744996754   -1.4606652908
 H    0.2485301760   -2.1926692970   -0.2614485605
 H   -1.0650967885   -2.5708499750    0.8478756338