25

 C   -0.0603967585    1.5778983701    0.0036731853
 C    0.0137550878    0.0489989008   -0.0082304706
 C    0.7202250087   -0.5128317958   -1.2392692739
 C    0.8703612678   -2.0390956087   -1.2053748580
 C    1.4911925007   -2.5757980484   -2.5063103132
 C    1.5671808632   -4.1041265928   -2.5213454139
 C    0.7049350195   -2.0203436604   -3.7050718711
 C    0.5671280993   -0.5008951609   -3.6016754147
 O   -0.0324021624   -0.1104021162   -2.3800305873
 H    0.9415853345    2.0217285886    0.0201490728
 H   -0.5735933226    1.9428834144   -0.8891347380
 H   -0.5993763925    1.9400590640    0.8844427880
 H    0.5404561874   -0.3120797060    0.8836591758
 H   -0.9973755814   -0.3751271792    0.0283409651
 H    1.7300940558   -0.0642493639   -1.3093051704
 H    1.4827990967   -2.3296068722   -0.3427897495
 H   -0.1233541949   -2.4854387206   -1.0615175758
 H    2.5170514408   -2.1814366155   -2.5718501005
 H    0.5662376711   -4.5470750763   -2.4590177383
 H    2.0354730996   -4.4695748948   -3.4417368980
 H    2.1506564968   -4.4816414760   -1.6745753543
 H    1.1971710437   -2.2854545466   -4.6488971983
 H   -0.2977219802   -2.4675566739   -3.7244401132
 H    1.5603345374   -0.0281185232   -3.7030519319
 H   -0.0722817781   -0.1046166866   -4.3965416761