18

 C   -0.4962517064    0.7444160331    1.2606565787
 N    0.1836723347    0.4462858681    0.0020669422
 C    1.2981692337   -0.4737567952    0.1261113420
 C    0.9610132639   -1.9088638934    0.4494319043
 N   -0.2504235999   -2.3882285627    0.3579304253
 O   -0.0944403964   -3.7387725475    0.7084557615
 C    1.2072758671   -3.9154286565    0.9716144684
 C    1.6611276245   -5.2717206685    1.3753407316
 N    1.9122989616   -2.8331239419    0.8325865956
 H    0.2052282927    1.2461027616    1.9371678880
 H   -1.3186085290    1.4383726599    1.0646282121
 H   -0.9044902189   -0.1363433142    1.7790131783
 H   -0.4851316092    0.0772130007   -0.6654369172
 H    1.8750918110   -0.4744115520   -0.8083519114
 H    1.9842317692   -0.1088349537    0.8994923307
 H    1.1439166102   -5.5967103598    2.2830676829
 H    1.4410965958   -6.0013627225    0.5902372303
 H    2.7350313855   -5.2509688557    1.5587425268