25

 C   -0.0884855085    1.5943320020   -0.0012829933
 C    0.0096857839    0.0646295334    0.0206674646
 C    0.7976719282   -0.5307813002   -1.1726123908
 C    1.5497756972   -1.7801319322   -0.6304302910
 C    0.7316394691   -3.0667473574   -0.8765682795
 C    2.9393819528   -1.9289832404   -1.2702429244
 C    1.6092862872   -1.4786204196    0.8706552045
 C    2.4773558477   -2.2592906815    1.8101245366
 C    0.7665722879   -0.4986870012    1.2013274849
 H    0.9086179186    2.0486846787    0.0056183995
 H   -0.6122227637    1.9434831199   -0.8978846947
 H   -0.6345556030    1.9708775230    0.8705729504
 H   -1.0179045368   -0.3323038740    0.0280347167
 H    0.1607351522   -0.7676109042   -2.0309339753
 H    1.5320744333    0.2101638491   -1.5113145585
 H    0.6652484845   -3.2833734529   -1.9488716653
 H    1.1925254668   -3.9352527346   -0.3934891671
 H   -0.2862564736   -2.9684062809   -0.4862160692
 H    3.5662519201   -1.0553184660   -1.0624386504
 H    3.4631662042   -2.8170765364   -0.9001397689
 H    2.8535295764   -2.0290017465   -2.3581383494
 H    3.5404408752   -2.1479027733    1.5638790652
 H    2.3358792562   -1.9333153678    2.8442306142
 H    2.2594440127   -3.3339435024    1.7638836817
 H    0.6012665412   -0.1461279346    2.2159088893