19

 C   -0.1711768792    1.5842450111    0.0332918166
 C    0.0347701046    0.0621491408    0.0029383392
 C    0.8393745935   -0.4363498661   -1.1845072164
 C    1.8280720245   -1.2576748378   -0.8320646341
 C    1.9174962145   -1.4164843625    0.6576768109
 C    2.2474888291   -0.1142395447    1.3902156837
 C    0.8098230208   -0.5001021035    1.1994456121
 C    2.2603713102   -2.6788807941    1.2384683062
 C    2.5597352419   -3.7434400119    1.7133283446
 H    0.7853711779    2.1135781268    0.0808090447
 H   -0.6992649347    1.9241641666   -0.8637099172
 H   -0.7656470575    1.8805401856    0.9032830119
 H   -0.9612930094   -0.4044813087   -0.0215708163
 H    0.6200173235   -0.1232162913   -2.1996569324
 H    2.5226276043   -1.7517862747   -1.5007571424
 H    2.6489269693   -0.2095563293    2.3930094657
 H    2.6774909792    0.6832776653    0.7940594844
 H    0.2572365449   -0.8047021795    2.0799185744
 H    2.8187579226   -4.6831025821    2.1335743545