18

 C   -0.1169790824    1.6018604035    0.0255227541
 C   -0.0511758365    0.0742816701   -0.0658961667
 C   -1.4370983548   -0.5633911536    0.1227392773
 O   -1.9696622809   -0.2730671870    1.3986135784
 C    0.8340345363   -0.4732587284   -1.2383918343
 C    1.9619739264   -0.8666311100   -0.2317939828
 C    0.9710770246   -0.5581642533    0.8936866773
 O    0.9077558272   -0.8396861254    2.0618346474
 H    0.8793501477    2.0556596018    0.0148892820
 H   -0.6782546310    2.0023045921   -0.8261314578
 H   -0.6277079185    1.9001197488    0.9437913052
 H   -2.1420376981   -0.1631623657   -0.6159260644
 H   -1.3662784682   -1.6506890581   -0.0470391242
 H   -1.3123886890   -0.5619899120    2.0468376883
 H    0.3917266725   -1.3400983048   -1.7354658467
 H    1.1112011779    0.2634659269   -1.9937448266
 H    2.3505279616   -1.8876307216   -0.2571802110
 H    2.8106488953   -0.1751583235   -0.2336515452