13

 O   -0.0214479230    1.3173154679    0.0093648092
 C    1.1336832229    2.0394499126    0.0021766581
 N    2.3279557507    1.5773353161   -0.0117506849
 C    2.4377954778    0.2102342920   -0.0201424303
 C    3.5051072372   -0.6507022935   -0.0350246964
 C    2.9080239020   -1.9583028954   -0.0362652551
 N    1.5797387390   -1.9751023188   -0.0236591544
 C    1.2458548519   -0.6433376899   -0.0133097102
 C    0.0411921312   -0.0352878748    0.0014984447
 H    0.9155431912    3.1001171104    0.0099567547
 H    4.5573269215   -0.4124065842   -0.0438572249
 H    3.4600292540   -2.8927594081   -0.0465835722
 H   -0.9345861163   -0.5029493943    0.0083390417