16

 C   -0.0240735996    1.4694171268    0.0574719338
 C   -0.0013139440   -0.0157218121   -0.0491775699
 C   -0.0435256604   -0.8077526593   -1.1217984355
 C    0.0059847939   -2.2126252456   -0.7100536742
 N   -0.0193965216   -3.2329092934   -1.4569487815
 O    0.0770261274   -2.2491291920    0.6679289528
 C    0.0785799443   -0.9084009508    1.1829958461
 C    1.2627314934   -0.6619702869    2.0027148400
 C    2.2295819336   -0.4293664721    2.6762791520
 H    0.8651139609    1.8316038373    0.5858051068
 H   -0.0615044255    1.9377400440   -0.9282816603
 H   -0.8938729528    1.8092758457    0.6334580745
 H   -0.1072348829   -0.5142046569   -2.1595067754
 H    0.0287153126   -4.0874906811   -0.9003477991
 H   -0.8204407926   -0.7874723685    1.8062362587
 H    3.0871320632   -0.2377976451    3.2735260012