22

 C   -0.0798093870    1.5855267099   -0.0476944117
 C    0.0067738917    0.0617283940    0.0053825589
 C   -1.3591600755   -0.5741474387   -0.2657746489
 C    1.1064706120   -0.6150157936   -0.8323746362
 C    2.4694046779   -0.3273762224   -0.3485139538
 N    1.6820840434   -1.3542660017    0.3673158800
 C    0.7269687192   -0.5859436902    1.2118085322
 C    1.1041535284   -0.0180712059    2.5443109447
 C    0.1416261111   -1.1877849929    2.4435657625
 H    0.8901925581    2.0592159094    0.1252493942
 H   -0.4495816826    1.9192071799   -1.0238597919
 H   -0.7744773871    1.9623717549    0.7122471484
 H   -1.7324060326   -0.2812320316   -1.2539868915
 H   -1.3007771230   -1.6659383489   -0.2324862321
 H   -2.0979681493   -0.2516420771    0.4757567563
 H    0.9223787737   -1.1331062417   -1.7694451514
 H    3.2966652150   -0.7477871586   -0.9128124058
 H    2.6946285344    0.6057431640    0.1614808055
 H    2.1069751573   -0.2176436160    2.9083700273
 H    0.7062019204    0.9513245700    2.8276645629
 H   -0.9065808410   -1.0135159869    2.6642746230
 H    0.5092539055   -2.1675510260    2.7293939773