21

 C   -0.1390306213    1.4581814728   -0.5440868886
 C    0.0334383172    0.0560636498    0.0120577849
 O    1.0959384002   -0.3669979436    0.4006430454
 C   -1.2358427790   -0.7903944302    0.0721501916
 O   -0.9730037488   -2.1927577917    0.1530872215
 C   -1.4419582954   -2.2638219788    1.5128855458
 C   -1.9773545691   -0.8094603270    1.4641012058
 C   -1.4796520514    0.1195636136    2.5669903747
 C   -3.4948893716   -0.7309861137    1.3052781166
 H    0.7558044662    2.0499405742   -0.3482197981
 H   -0.3055823512    1.4032212942   -1.6267121443
 H   -1.0183452529    1.9505382878   -0.1138745868
 H   -1.8856781964   -0.5440203051   -0.7793254233
 H   -2.1923753167   -3.0516851977    1.6498131269
 H   -0.6147479345   -2.4212929912    2.2158745903
 H   -0.3916519128    0.0878095469    2.6655057251
 H   -1.7798472674    1.1577985177    2.3855591443
 H   -1.9127398110   -0.1786655787    3.5284236201
 H   -3.9955525344   -0.9888376682    2.2454583422
 H   -3.8110233891    0.2809876729    1.0276395402
 H   -3.8494482704   -1.4210305838    0.5332212256