17

 O    0.1967423741    1.3322886185    0.2958938694
 C    0.0159378551   -0.0536128957    0.1002680151
 C   -0.7646407683   -0.8174645306    1.1383383568
 C   -1.4167240034   -0.4343489014   -0.1722545806
 C    1.1291267580   -0.6993124082   -0.6260414919
 C    1.7631835201   -1.9154378903   -0.5470116549
 N    2.7497928125   -2.0206655801   -1.5010501625
 C    2.7246209430   -0.8787407143   -2.1493752008
 N    1.7612206921   -0.0462057091   -1.6659672973
 H    0.9260714260    1.4430868945    0.9176932258
 H   -0.5207793046   -1.8588671483    1.3145780326
 H   -1.0570871174   -0.2591577210    2.0202922802
 H   -2.1380325069    0.3747139255   -0.1547090844
 H   -1.6025350799   -1.2123016280   -0.9029360228
 H    1.5645396593   -2.7216058026    0.1428195312
 H    3.3765735344   -0.5964480942   -2.9626759573
 H    1.5507791059    0.8945252153   -1.9565477986