18

 O    0.1429264360    0.8572842982   -1.0316326755
 C   -0.0508255745    0.1914975738    0.2103506779
 C   -1.3901533141   -0.3814266718    0.2548563859
 C   -2.4961358213   -0.8525368469    0.3106811385
 C   -3.8245356218   -1.4494768956    0.3572815232
 C   -3.8263722291   -2.9354910727   -0.0503889851
 C   -5.2470196874   -3.5300690137    0.0024055328
 C   -5.2773655784   -4.9424870391   -0.3693900894
 N   -5.2840550763   -6.0595687305   -0.6648234443
 H    1.0367402667    1.2149054389   -1.0286413260
 H    0.6886045910   -0.6139281360    0.3508379613
 H    0.0714111179    0.8853070396    1.0583117414
 H   -4.2401460510   -1.3467066832    1.3690626683
 H   -4.4986227286   -0.8877243502   -0.3036102897
 H   -3.4213269645   -3.0394875999   -1.0609879007
 H   -3.1670722252   -3.5003775241    0.6150149377
 H   -5.6652544409   -3.4285007638    1.0111257649
 H   -5.9153609184   -2.9795931731   -0.6705520510