18

 C    0.0316123997    1.4063864115    0.1908623856
 C    1.5020862465    1.8221824840   -0.0080147933
 C    2.2999965153    1.6396430460    1.3043585066
 N    2.2176237118    0.3805244804    2.0078382219
 C    1.4232628262   -0.5895843762    1.8875398898
 O    0.3707337626   -0.8926045441    1.0763112951
 C    0.0641665045   -0.1015317255   -0.0953267883
 C    1.1692072614   -0.2225095868   -1.1230661171
 C    1.9638101636    0.8448500299   -1.0678719113
 H   -0.3657073484    1.6329317762    1.1836622764
 H   -0.6054168706    1.8922862511   -0.5545220833
 H    1.6083597641    2.8664520186   -0.3227849300
 H    3.3631382360    1.8337836903    1.1125568178
 H    1.9837683352    2.4206404545    2.0114617132
 H    1.5274885501   -1.4254352369    2.5817945539
 H   -0.8978630103   -0.5043188447   -0.4182766125
 H    1.3065677464   -1.1062519963   -1.7335551691
 H    2.8726628057    0.9897870382   -1.6415382354