16

 O    0.1227493312    1.4032328107    0.1314073278
 C    0.0111772280    0.0079959217    0.0223587445
 C   -1.4415598454   -0.5622795612   -0.1214819695
 C   -1.3330285524   -1.2886773473   -1.4832462741
 O    0.0192887730   -1.8070786040   -1.4405104503
 C    0.6371076010   -0.5645617970   -1.2744222675
 O    0.1157094757    0.2475851385   -2.3669356973
 C   -1.1706675744   -0.2232673539   -2.5497246932
 N   -2.0120873774    0.1776754783   -3.3927424127
 H   -0.0538608934    1.7727857300   -0.7428192145
 H    0.5140509280   -0.4133349376    0.8956286464
 H   -1.6780491867   -1.2771012169    0.6685293009
 H   -2.1861271429    0.2356063855   -0.1142216880
 H   -2.0507327480   -2.0717881790   -1.7068407594
 H    1.7202855700   -0.6202103469   -1.3542798624
 H   -1.6310547362    0.9295747691   -3.9697619108