16

 O   -0.0205548039   -0.0454451464   -0.1795886282
 C   -0.0263553639    1.1632215648   -0.0175464927
 N   -1.1790900767    1.8717187566    0.2326691726
 C   -1.2416388000    3.3171868708    0.0656936239
 C   -0.0319603956    3.9731335298    0.7312972332
 C    1.2502652574    3.2668356733    0.3295258360
 C    1.2185214175    1.9693925574   -0.0299296718
 C    2.4597054869    4.0064582251    0.3947905258
 C    3.4614563615    4.6729813464    0.4626935278
 H   -2.0234946445    1.3345607319    0.0986162469
 H   -1.2656351283    3.5955206843   -0.9997345085
 H   -2.1666468803    3.6831148088    0.5199752194
 H    0.0173789973    5.0297973715    0.4548806563
 H   -0.1280291405    3.9337327757    1.8244953536
 H    2.1167580942    1.4264132258   -0.2962052918
 H    4.3555593089    5.2437474943    0.5176837074