17

 O    0.0422445410    1.4989176949   -0.0819042420
 C    0.0142901489    0.1003624581    0.0210540020
 C    0.1213906143   -0.6092544453    1.4011192782
 C   -0.9159147945    0.1668545830    2.2356342780
 C   -2.1091391417   -0.3111676309    1.3826642025
 C   -1.9790942614   -1.8317370791    1.5799577509
 N   -0.7104002676   -1.7562317466    0.7739159228
 C   -1.3468521245   -0.5749733025    0.0217906002
 H    0.9602318308    1.7839105062   -0.1271603231
 H    0.6623277692   -0.3888823059   -0.7159031352
 H    1.0743667350   -0.8904374435    1.8478304186
 H   -0.9867432557   -0.1542469834    3.2780584023
 H   -0.7418775582    1.2432023417    2.1946113412
 H   -3.0531231021    0.2302796676    1.4476874767
 H   -1.8853248270   -2.2260624072    2.5975673998
 H   -2.7047339958   -2.4265222210    1.0175443543
 H   -1.9279585908   -0.7855146062   -0.8764434672