21

 C   -0.3651294941    0.8969815753   -0.9856541836
 N   -0.7531199127   -0.4110492840   -0.5016127084
 C   -1.1576211789   -0.6274185400    0.7807271039
 O   -1.2135412786    0.2412283707    1.6344013487
 C   -1.5065634954   -2.0925141859    1.0790415245
 C   -2.5387854710   -2.6840488922    0.1387829358
 N   -2.1250189830   -2.9223023646   -1.2622023324
 C   -2.4875103123   -4.0697551314   -0.4087406284
 C   -1.4079582894   -5.0790609835   -0.1032742697
 H    0.6572586328    0.8888694874   -1.3805623160
 H   -1.0374375866    1.2516052710   -1.7762549707
 H   -0.4159820434    1.5870410110   -0.1424189850
 H   -0.8012467660   -1.1956388883   -1.1383851871
 H   -0.5811243625   -2.6753661132    1.0391135235
 H   -1.8754877420   -2.1237143283    2.1066278620
 H   -3.5371441076   -2.2719449580    0.2775351415
 H   -2.8805869820   -2.6918354484   -1.9008628152
 H   -3.4618437993   -4.5161081893   -0.6049184041
 H   -0.4341653038   -4.6020290521    0.0249953952
 H   -1.6450746069   -5.6382609338    0.8080845590
 H   -1.3173340272   -5.7969541223   -0.9251935635