20

 C    0.0303536695    1.5081831384    0.1882730192
 C   -0.0949446758    0.0017980461   -0.0514335752
 C    0.6908147191   -0.4988926359   -1.2750431388
 C    2.2819737617   -0.4470694889   -1.1875636869
 C    2.3071669057   -1.9669751815   -1.3529857989
 N    1.5411736045   -2.5192555237   -0.2080648565
 C    0.8270473327   -2.0409928735   -1.4131078415
 C    0.2049075314    0.0881972564   -2.5151371121
 C   -0.2086438437    0.5631787439   -3.5403910183
 H    1.0717938402    1.7996985312    0.3627583149
 H   -0.3360190165    2.0783231003   -0.6707266189
 H   -0.5484090267    1.8092818027    1.0667991482
 H    0.2686464484   -0.5564077515    0.8159604131
 H   -1.1504690582   -0.2641824633   -0.1876110322
 H    2.7187843181    0.0972303328   -2.0248339599
 H    2.6882433074   -0.0774553146   -0.2429808342
 H    3.0534512504   -2.5648681106   -1.8605674471
 H    1.5829843910   -3.5358554948   -0.2750791974
 H    0.1713978257   -2.6905605441   -1.9797033285
 H   -0.5710583350    0.9869394107   -4.4439459088