16

 C    0.0081861864    1.4314000710   -0.0365140369
 N    0.0133039722   -0.0171939377    0.0361278377
 N   -0.0027508517   -0.7655164395   -1.0814339933
 C    0.0076951888   -2.0069062807   -0.6004495313
 C   -0.0047085026   -3.1490984574   -1.5319704778
 O    0.0031003426   -4.3089324535   -1.2021867431
 N    0.0300093467   -2.0869801894    0.7610273704
 C    0.0329451798   -0.8235663882    1.1365706899
 C    0.0546348398   -0.3147817426    2.5367931008
 H    0.9037903350    1.8453668905    0.4357184066
 H   -0.0058577406    1.7051397706   -1.0902372375
 H   -0.8776087056    1.8404111532    0.4580886030
 H   -0.0227283377   -2.8324234589   -2.5962411892
 H    0.9442855310    0.2943462360    2.7313724231
 H   -0.8233195591    0.3028127768    2.7559127310
 H    0.0602601550   -1.1668525901    3.2165369365