12

 O   -0.8826411013    0.7662009346    0.3740788790
 C    0.1075064062    0.8533270168   -0.2932817903
 C    1.2525616319    1.8320785655    0.0406833698
 C    1.1768899605    2.4982611224    1.4280400378
 C    2.3693045924    1.5992387228    1.7450835860
 O    3.0883440137    1.3594746136    2.6503526111
 O    2.4083683568    1.0331504398    0.4712837824
 C    1.5697476588    2.6754618003   -1.1049392752
 N    1.7689418559    3.3344025845   -2.0329714462
 H    0.3030398471    0.2183613340   -1.1786468785
 H    1.3899564743    3.5661353917    1.4632567865
 H    0.2634810237    2.2642570042    1.9759763176