21

 C    0.0013796477    1.4845686946   -0.0315244220
 C    0.0347376658   -0.0190587611   -0.0729439615
 C    0.5759201217   -0.9389813072   -1.1905133901
 C    0.0714423131   -1.9152501691   -0.1138971570
 C    0.5541381377   -0.9919299937    1.0600405019
 C   -0.8155575468   -1.0382314746    1.7297620228
 C   -1.3480225282   -1.8517909952    2.8619506192
 C   -1.3862377069   -0.3278338539    2.9131183355
 C   -1.1580610256   -1.0074428320    0.2436670151
 H    1.0120307226    1.9023266157   -0.1038300431
 H   -0.5842269581    1.8878883136   -0.8655287747
 H   -0.4467397548    1.8429990650    0.9007901710
 H    0.0328162301   -0.9278380727   -2.1420987154
 H    1.6569007105   -0.9131308360   -1.3677488310
 H    0.0782531309   -3.0057035320   -0.1074614584
 H    1.5491686786   -0.9838294511    1.5102214671
 H   -2.2894665946   -2.3764616332    2.7304082518
 H   -0.6454917666   -2.3615394102    3.5142603067
 H   -0.7094336804    0.1714455841    3.5999548624
 H   -2.3532326978    0.1565285761    2.8161467809
 H   -2.1342408090   -1.0172034371   -0.2460184212