15

 C    0.0173440802    1.4368502987    0.0451391108
 N   -0.0313930576   -0.0094564263   -0.0097352010
 C   -0.0248214433   -0.8185693418   -1.1399402476
 C    0.0162232297   -2.1268661539   -0.7711473096
 N    0.0464617672   -2.1323358197    0.6243171362
 C    0.0887472595   -2.8727124321    1.7842594198
 N    0.0952210085   -2.0667283157    2.8221629754
 N    0.0581728476   -0.7515676911    2.3891243135
 C    0.0262334721   -0.8383690035    1.0793427228
 H    1.0482703901    1.8071102635    0.0748440807
 H   -0.4867651344    1.8511832044   -0.8305595390
 H   -0.5000719790    1.7731080187    0.9458589742
 H   -0.0595760570   -0.3884975207   -2.1274989298
 H    0.0155742733   -3.0222005790   -1.3661802191
 H    0.1120579432   -3.9488717716    1.8153313726