15

 O   -0.0395795832   -0.0243553564    0.0890410613
 C   -0.0020878856    1.1798421181   -0.0084206022
 C    1.2577480003    1.9566004393   -0.0481875951
 C    1.2285227470    3.2979514483   -0.1300290181
 C    2.4785845746    4.0847919353   -0.0460301283
 O    2.4912205784    5.2966181128   -0.0319793121
 C    3.7500517582    3.2504274400    0.1038156856
 O    3.6384674294    1.9751187490   -0.4941504628
 C    2.5651410926    1.2113805756    0.0120933945
 H   -0.9273308498    1.7915895634   -0.0746320492
 H    0.2966852497    3.8536338029   -0.2001767083
 H    4.5794091774    3.7698068167   -0.3802854418
 H    3.9801392748    3.1730264485    1.1823603221
 H    2.7562584050    0.8912144492    1.0525354957
 H    2.5022764313    0.3023250473   -0.5911443814