18

 C   -0.0252676749    1.5140155516   -0.2082770541
 C    1.5111062898    1.4135890298    0.1479423311
 C    1.0620952810    0.1166703651    0.8400107792
 C    0.9746770898   -1.4164766116    1.1610461321
 C    1.3553775445   -1.6335117625    2.6104555266
 O    0.7829114772   -0.4634705220    3.2293844394
 C    0.1721432164    0.2013006302    2.1455313371
 C   -0.5061286058   -0.7845438418    1.1776820187
 N   -0.1124675487    0.0009785058   -0.0591663834
 H   -0.5866213820    2.1195021006    0.5110865120
 H   -0.2821100006    1.8293995097   -1.2212650827
 H    2.1233048555    1.2535304296   -0.7423474868
 H    1.9467204881    2.1940009320    0.7746216809
 H    1.2329606786   -2.1425243180    0.3933405799
 H    0.9169687050   -2.5403197144    3.0453952454
 H    2.4389899823   -1.6529180524    2.7775495441
 H   -0.3014649785    1.1190891743    2.4848996540
 H   -1.4412582178   -1.3414792660    1.2806233965