16

 O    0.0993681183    1.3981459284   -0.2286787351
 C    0.0286875179   -0.0030726970   -0.0231153358
 C    0.5620367194   -0.4460651995    1.3841189245
 N   -0.2895458612   -1.5858470520    1.7977304063
 C   -1.5128868370   -1.4056183309    1.1387403894
 C   -2.7984117663   -1.8411125258    1.1506485059
 O   -3.4726273864   -1.2387987001    0.1056421508
 C   -2.5944364698   -0.4388733448   -0.5547603447
 C   -1.3815018130   -0.4997415141    0.0448698299
 H    1.0122580922    1.6220931142   -0.4357033891
 H    0.5851675016   -0.5268760203   -0.8157652152
 H    1.6158191323   -0.7402968487    1.3660984311
 H    0.4484279311    0.4227278193    2.0486380930
 H   -0.3391128684   -1.7255949699    2.7979661066
 H   -3.3837750535   -2.5002857719    1.7665610448
 H   -2.9952619072    0.1062817429   -1.3928429423