14

 C    0.1635694531   -1.2381421629    0.0918564960
 C    0.1225102763   -0.0356242209    0.0794725643
 C    0.0539689061    1.3909798986    0.0517988169
 C    0.4642989660    2.2813699293    1.2399722372
 O    1.2417663050    1.7289452056    2.2577559098
 C    2.4336670956    1.2212667691    1.6683169055
 O    2.5376838808    1.7542112995    0.3526605039
 C    1.2987144187    2.2976452954    0.0133229788
 H    0.2029384739   -2.2990767196    0.1050193208
 H   -0.7815629699    1.8026792106   -0.5111098527
 H   -0.1883735308    3.0739775076    1.5837173372
 H    3.2975202649    1.5462064904    2.2602519192
 H    2.3838703050    0.1275964648    1.6199386656
 H    1.3688391352    3.1043466626   -0.7054842526