16

 O   -0.2508014446    0.3889748788    0.7031920355
 C    0.1260161444    1.0964666144   -0.1917831622
 C    1.2845407484    2.0679310560   -0.0623388734
 O    1.5454235239    2.6032044064   -1.3479493613
 C    2.5746788578    3.5498891284   -1.3560163156
 C    2.7357448641    4.2772558721   -2.7174074462
 N    2.4938724902    5.5333688900   -1.9968183819
 C    2.2201507899    4.9608886712   -0.7806983424
 O    1.8325477567    5.3924219760    0.2724502594
 H   -0.3519578475    1.1022268064   -1.1964052206
 H    1.0181718107    2.8570266814    0.6551560312
 H    2.1600996548    1.5343761765    0.3406693782
 H    3.5095185102    3.1395513933   -0.9480771559
 H    3.7194038130    4.2059761050   -3.1890666981
 H    1.9503197007    4.0061728114   -3.4283602360
 H    2.3756215373    6.4801340628   -2.3264218705