19

 C    0.0893889983    1.5302983967   -0.0491508551
 C   -0.0288023482    0.0066934343    0.0355281795
 C   -1.4573300781   -0.4963272426   -0.2138758800
 C   -1.5472140385   -2.0044339274   -0.1344962473
 N   -1.7193099824   -2.6084257456    1.1802017687
 C   -2.8010529066   -2.7750479011    0.1842069153
 C   -4.0892893163   -2.1019121987    0.5071542035
 O   -5.1478929918   -2.4229968971    0.0269591805
 H    1.1166494947    1.8604089727    0.1329103670
 H   -0.2087623355    1.8968878411   -1.0376657814
 H   -0.5535433335    2.0180145069    0.6917154891
 H    0.6506651601   -0.4561481667   -0.6928658701
 H    0.2980700132   -0.3384153062    1.0239485539
 H   -2.1334853007   -0.0473892258    0.5208860795
 H   -1.7994930592   -0.1690885243   -1.2045990522
 H   -0.8884980023   -2.5224186434   -0.8331483744
 H   -1.1952213221   -3.4741537580    1.2695735001
 H   -2.9231621077   -3.7318894091   -0.3179408003
 H   -4.0033142133   -1.2743879356    1.2437927338