21

 C   -0.5046738342    1.3087831321    0.6294367627
 C   -0.7134392730   -0.2027655814    0.5141651867
 C   -1.4581899940   -0.6088779617   -0.7601705347
 O   -0.7668578614   -0.2155765861   -1.9411629953
 C   -1.7411826636   -2.1093048101   -0.8324328002
 O   -2.6102709818   -2.4557317642    0.2586163572
 C   -2.8686861821   -3.7737644878    0.4135526238
 C   -3.7969809843   -4.0003154744    1.5823367754
 O   -2.4086540570   -4.6296822927   -0.2975280686
 H    0.0781564866    1.5614394569    1.5200147707
 H    0.0208696212    1.6961015833   -0.2475862490
 H   -1.4642118487    1.8328864459    0.6982582350
 H    0.2582317414   -0.7201658304    0.5269146433
 H   -1.2722476130   -0.5811947063    1.3768459482
 H   -2.4157196922   -0.0754519085   -0.8038468941
 H    0.1184089291   -0.5959754468   -1.9048756620
 H   -2.2219442823   -2.3577845349   -1.7828768490
 H   -0.8155495818   -2.6932096613   -0.7613420404
 H   -4.7430182844   -3.4773697572    1.4154057876
 H   -3.9785713062   -5.0678544119    1.6993532738
 H   -3.3576279984   -3.5925323224    2.4970272787