13

 C   -0.0764939635    1.3627667556    0.1246778641
 O    0.0260967699   -0.0587161146   -0.0364273375
 C    0.6632134090   -0.4652316344   -1.1528671054
 O    1.1253607332    0.2747397347   -1.9769971001
 C    0.6911040524   -1.9928647588   -1.1808140838
 C    1.3561033396   -2.5522775325   -2.3449297951
 C    1.9001445854   -3.0402000188   -3.2968618926
 H    0.9163247155    1.8172435088    0.1689692659
 H   -0.6286801039    1.8051454612   -0.7081446879
 H   -0.6100823108    1.5166936843    1.0624453683
 H    1.1703462690   -2.3315815883   -0.2539027527
 H   -0.3462825980   -2.3435625981   -1.1145015625
 H    2.3844582720   -3.4577568892   -4.1444652606