21

 C   -0.0125149905    1.5501183768    0.0031976840
 C    0.0437536073    0.0203923815    0.0830685146
 C    0.7463793593   -0.4440999094    1.3643629024
 C   -1.3747047407   -0.5816817862   -0.0392888580
 C   -1.3801363216   -2.0718275636   -0.1797870864
 N   -0.8524554976   -2.7549320378   -1.1749525919
 C   -1.0794259931   -4.0803591668   -0.8849395781
 C   -1.7532477572   -4.2072285884    0.2992347668
 N   -1.9385203421   -2.9142312241    0.7413311048
 H    0.9918356222    1.9834621697    0.0490132845
 H   -0.4802743499    1.8853824664   -0.9285210293
 H   -0.5907627399    1.9689846162    0.8362933355
 H    0.6150640075   -0.3539213314   -0.7750052592
 H    0.8090495343   -1.5352765442    1.4141756708
 H    1.7658196959   -0.0487532245    1.4179726845
 H    0.2101150674   -0.0938983150    2.2558482942
 H   -1.9740472571   -0.2910347620    0.8340787926
 H   -1.8681899623   -0.1468335398   -0.9164162332
 H   -0.7470171275   -4.8659098284   -1.5466244762
 H   -2.1115469492   -5.0583705331    0.8535544998
 H   -2.4029991651   -2.6380759158    1.5900642279