20

 C   -0.0057435929    1.5345182717   -0.0712524710
 C    0.0401216915    0.0110628471   -0.0963394137
 C   -1.3348520077   -0.5728754784    0.2150350331
 C    0.7520236606   -0.7297010700   -1.2568675508
 C    1.3132161730   -1.6862050074   -0.1290412117
 C    2.3469994424   -0.6407732812    0.1120690991
 C    2.1687757965   -0.0974634918   -1.3117658599
 O    3.0459453208   -0.6969584397   -2.2411306139
 N    1.0469833977   -0.6127347017    0.8589789015
 H    0.9871520898    1.9855745567   -0.1212445755
 H   -0.5977779340    1.9158580749   -0.9106035215
 H   -0.4768635917    1.8780423688    0.8554205407
 H   -2.0778732474   -0.2029067692   -0.4990682528
 H   -1.3278325006   -1.6654779264    0.1643095049
 H   -1.6513324966   -0.2823208991    1.2218242909
 H    0.2456422714   -0.9999514769   -2.1830520448
 H    1.2575255162   -2.7437366094    0.0918462188
 H    3.2519888900   -0.6865604258    0.7049536468
 H    2.2465909824    0.9754739283   -1.4988072185
 H    3.0719711884   -1.6433769807   -2.0538147218