17

 O    0.6618220953    0.2247008068   -0.7850921490
 C   -0.1284263426   -0.4464575914    0.1565633992
 C    0.0569631276   -0.1704894288    1.6716773112
 C   -1.4937614278   -0.3463143388    1.8460638471
 C   -1.6340177285   -0.1023874278    0.3010979876
 C   -1.8999863271   -1.6645512261    2.2815367160
 C   -2.2412792166   -2.7678960323    2.6476883626
 C   -2.6206329855   -4.0095094258    3.0536846779
 C   -2.9576044506   -5.1117737503    3.4149106187
 H    0.5761992100    1.1718039038   -0.6314077907
 H   -0.0001791747   -1.5116934242   -0.0545650640
 H    0.7117209944   -0.8265669034    2.2463729585
 H    0.3394091646    0.8723871765    1.8505254018
 H   -1.9720515622    0.4105311823    2.4738280668
 H   -1.8163366077    0.9591933438    0.1031745382
 H   -2.3623794838   -0.7027793729   -0.2451969428
 H   -3.2530385547   -6.0812113414    3.7307432610