15

 N    0.5467974821    0.0217713877    0.7572375834
 C   -0.1734605370    0.3963816065   -0.3275871112
 O    0.1584862037    1.2519248163   -1.1263789695
 C   -1.4933711875   -0.3582142237   -0.5077539766
 C   -1.5792535135   -1.0475849740   -1.8964232942
 O   -2.1069375768   -2.3328514840   -1.5956355358
 C   -1.6187859532   -2.6313889320   -0.3212816068
 O   -1.6788612617   -1.4243874373    0.4263534456
 H    1.4040927740    0.5042950720    0.9686458428
 H    0.1689740043   -0.6605865070    1.3925453589
 H   -2.3048364232    0.3634282077   -0.3674396445
 H   -2.2582528381   -0.5473535956   -2.5869930318
 H   -0.5861084254   -1.1181444895   -2.3592263603
 H   -2.2616029806   -3.3790715647    0.1502214414
 H   -0.5749820571   -2.9927301423   -0.3686122714