18

 O   -0.1094045986    0.2615594602    0.8836589340
 C   -0.0113730566    1.2805267513    0.2741776430
 O   -0.9810216275    1.9125043062   -0.4567429422
 C   -0.1097635331    3.0649591320   -0.7058675786
 C    1.0434367059    2.3691797926    0.0459078819
 C    1.6268963436    3.0100303544    1.3115879441
 C    2.8134570748    2.2407233098    1.8618969345
 C    2.9097267125    1.9269931201    3.3102123036
 N    2.6744219945    0.8568595521    2.3330567249
 H    0.0235628549    3.2262750787   -1.7768249234
 H   -0.5172570226    3.9590221163   -0.2279873764
 H    1.8398363594    2.0263748092   -0.6207617019
 H    1.9437066434    4.0343611291    1.0787562896
 H    0.8398971776    3.0911146907    2.0713827083
 H    3.7388860789    2.4086167458    1.3113909650
 H    3.8778047227    1.8979332690    3.8030741207
 H    2.0897275495    2.2482396820    3.9489824233
 H    1.6996058608    0.5635351208    2.3160643697