23

 C   -0.0587046539    1.5769478578   -0.1292377319
 C    0.0231973042    0.0612021734   -0.0077364729
 C    1.0574581639   -0.6549806565   -0.8849883586
 O    2.3563098626   -0.2162757140   -0.4521252996
 C    1.7162945574   -1.2819334229    0.2717155403
 C    2.4732826802   -2.5613340930    0.4322831092
 C    0.7222007805   -0.6107864284    1.2603113801
 C    1.3648841238    0.3213659373    2.2836987661
 C   -0.2039612384   -1.6247437152    1.9326901415
 H    0.9372276058    2.0257428194   -0.1026882246
 H   -0.5320067732    1.8622702243   -1.0755319488
 H   -0.6542444688    2.0125191840    0.6800818917
 H   -0.9689336953   -0.3829612858   -0.1443922863
 H    0.9727930820   -0.9856537202   -1.9155407248
 H    2.9590974299   -2.8338694857   -0.5085048499
 H    3.2515233608   -2.4612304938    1.1976875531
 H    1.8100556874   -3.3779866272    0.7333936613
 H    2.0886825876    0.9867099553    1.8087473394
 H    0.6105332308    0.9349179789    2.7889638096
 H    1.8879935609   -0.2544600121    3.0562511791
 H    0.3297473090   -2.2107259963    2.6897384584
 H   -1.0352210697   -1.1160324850    2.4335339752
 H   -0.6320088975   -2.3252669641    1.2068436527