19

 O   -0.0140843265    1.4716123696   -0.0809040102
 C    0.0048583861    0.0724009234    0.0079443376
 C    0.6219683390   -0.5684357868   -1.2499268437
 C   -0.1128289229   -0.1657963180   -2.5218914970
 C    0.1217481906    1.2486810938   -3.0999633913
 O    0.4790723843    0.7053840258   -4.3907061309
 C    0.4632705025   -0.6381937467   -3.8758616459
 C    0.7536782734   -0.3642195866    1.2500004050
 O    1.2495866629    0.4351573155    2.0066976017
 H    0.4680433319    1.7914858457    0.6984546933
 H   -1.0264021215   -0.3150850705    0.1143521420
 H    1.6764461583   -0.2723292346   -1.3201209225
 H    0.5973433544   -1.6611597549   -1.1379777782
 H   -1.1778323252   -0.3991383989   -2.4269181251
 H   -0.7474741180    1.9117729041   -3.1554205446
 H    0.9531507039    1.7913712609   -2.6356288891
 H    1.4744645646   -1.0675530910   -3.8125838032
 H   -0.1657364386   -1.3063254374   -4.4761995551
 H    0.8257499510   -1.4572518633    1.4244467771