16

 C   -0.7434078907    1.3425165002    0.0436842796
 C   -0.0031054421    0.0237079808    0.0133668088
 O    1.1305560000    0.0245743298   -0.9046974967
 C    1.9879997460   -0.6026268249    0.0754338418
 C    0.8963198655   -0.4350955944    1.1819191509
 C    1.7451434866    0.6664480718    1.8750002965
 C    2.8303833481    0.4828558712    0.7880032658
 O    3.9020513421    0.9710845391    0.5918888540
 H   -0.0847507060    2.1729302915    0.3102594276
 H   -1.1655317670    1.5533895121   -0.9438279175
 H   -1.5680639161    1.2996875261    0.7633717915
 H   -0.6937472356   -0.7810959692   -0.2768680779
 H    2.4473721039   -1.5313646991   -0.2731394646
 H    0.5388640254   -1.2489584280    1.8086926979
 H    1.3172129951    1.6658706227    1.9795796322
 H    2.1255880848    0.3563427304    2.8540954702