19

 C   -0.2642335142    1.3252453654   -0.2445344270
 C    1.1799211929    1.3571248469    0.1835021108
 C    0.4831949137    0.0308740936   -0.0184751196
 C    0.1414924895   -0.7842271151    1.1950056937
 C   -0.6725680638   -2.0511194230    1.3288220952
 C   -0.3068775201   -3.1825403480    0.3196723982
 O    0.7116139379   -2.7331987344   -0.5846694717
 C    1.0903205063   -3.1519706056    0.7338306113
 C    0.8014731055   -2.0188816923    1.7656986541
 H   -1.0144038877    1.6138841062    0.4851969187
 H   -0.5113593673    1.6015249618   -1.2636241940
 H    1.9308039406    1.6554447169   -0.5397735266
 H    1.3991658026    1.6671936905    1.2005391315
 H    0.7568697035   -0.5255987077   -0.9004498976
 H   -0.1196119556   -0.1262666455    2.0273702744
 H   -1.5477003202   -2.1148004095    1.9636699551
 H   -0.9484300508   -3.9912529487   -0.0086864060
 H    1.8390911210   -3.9302840152    0.8174386358
 H    1.1913684763   -2.0547771863    2.7754689938