19

 C   -0.0503514798    1.5703569802    0.0668523823
 C    0.0307692786    0.0468348825   -0.0015263028
 C    0.8067783488   -0.5102554291   -1.2341491812
 C    1.6050649795   -1.6908019890   -0.6803652942
 O    1.9218788739   -2.7757608689   -1.4937607850
 C    2.5261250661   -1.4008405687    0.4974974621
 O    2.1964537864   -0.1486127562    1.0966251137
 C    0.7907822159   -0.5850659126    1.1691639445
 C    1.1772717709   -2.0121320478    0.7357827989
 H    0.9550178869    1.9974540871    0.1285031461
 H   -0.5455259019    1.9814006183   -0.8185748557
 H   -0.6144796461    1.8993962266    0.9464500972
 H   -0.9825298227   -0.3771198238    0.0024568162
 H    0.1340030354   -0.8595384389   -2.0225556611
 H    1.4590157739    0.2573206731   -1.6658627877
 H    2.6468922360   -2.5150101358   -2.0723947911
 H    3.5342988765   -1.7865193650    0.6024745893
 H    0.3768890946   -0.4147467281    2.1651692957
 H    0.8601019072   -2.9723264439    1.1167039429