18

 C   -0.0481468251    1.5777813309   -0.0677459220
 C   -0.0012458790    0.0515428428    0.0501146212
 C    0.8033052346   -0.6191418716   -1.1143056266
 O    1.5333650021   -1.7512154618   -0.5846100983
 C    1.5947071978   -1.5413174241    0.7616228242
 C    2.2627257674   -2.1059704859    1.8150741091
 N    1.8129174549   -1.4159513895    2.9357833826
 C    0.9026833406   -0.4446754351    2.5880206735
 C    0.7524595349   -0.5090041145    1.2241425606
 H    0.9618240552    1.9997176813   -0.0472387478
 H   -0.5318721786    1.8890759504   -1.0004032078
 H   -0.6135299524    2.0165032243    0.7602260061
 H   -1.0325337854   -0.3289036528    0.0422678553
 H    0.1711885068   -0.9833276024   -1.9275855360
 H    1.5287602446    0.0974286607   -1.5244407796
 H    2.9828037081   -2.9017407885    1.8910778270
 H    2.1544778695   -1.5698131132    3.8671747958
 H    0.4576160141    0.1877202391    3.3392475229