20

 C    0.0633903055    1.3214217551    0.0653214407
 O    0.0373965557   -0.0877043682    0.0331566601
 C    0.6613369254   -0.6255160532   -1.1035806230
 C    0.4802964555   -2.1511227136   -1.0764594215
 C   -0.9437357359   -2.5038406708   -1.1590837968
 N   -2.0574130195   -2.7959057033   -1.2563811409
 C    1.2693607616   -2.8330769162   -2.1855252432
 C    2.7296634333   -3.1476405975   -1.9767961232
 C    1.7150909333   -4.2621704436   -2.0324214500
 H    1.0938356058    1.7096758677    0.0815391221
 H   -0.4566275034    1.7565630347   -0.8017124478
 H   -0.4475362440    1.6338337314    0.9784703664
 H    0.2268354648   -0.2123421206   -2.0287054481
 H    1.7402153432   -0.4007107106   -1.1123516924
 H    0.8483257344   -2.5031347810   -0.1045468435
 H    0.9750162000   -2.5252825822   -3.1847096443
 H    3.4053744157   -3.0172432429   -2.8143123189
 H    3.1683900157   -2.9107284531   -1.0127102065
 H    1.4703797524   -4.7721627410   -1.1066659910
 H    1.6909334705   -4.8995161910   -2.9085565082