23

 C    0.1329978483    1.6727815295   -0.0384893065
 C    0.0688563189    0.1416086613   -0.0644992128
 C    0.6807828567   -0.5171456314    1.1747355934
 C   -0.0671981938   -0.2626028427    2.4970262595
 C    0.3398492489   -1.4196930555    3.4164742879
 O    0.0896403094   -1.5113328203    4.5903571707
 C    1.1244599383   -2.4365799619    2.5804450127
 C    0.8268847380   -2.0701833772    1.1146095347
 C   -0.4190865469   -2.8022792350    0.5965629710
 H    1.1674118099    2.0246148440    0.0443453084
 H   -0.2911835823    2.1002123882   -0.9521987066
 H   -0.4253034537    2.0841931656    0.8087236054
 H   -0.9765686462   -0.1737522369   -0.1709750059
 H    0.5921004946   -0.2260046654   -0.9573565600
 H    1.6992718320   -0.1183251808    1.2929575640
 H    0.1469544955    0.6977103463    2.9722863325
 H   -1.1561821212   -0.3085680516    2.3593891590
 H    2.1875912607   -2.2885538632    2.8141508914
 H    0.8730765654   -3.4615300397    2.8650717275
 H    1.6699175422   -2.3318052705    0.4661324896
 H   -1.3069544960   -2.5829945688    1.2007817656
 H   -0.6467490634   -2.5341393794   -0.4387810969
 H   -0.2628995454   -3.8852668844    0.6320653755