21

 C    0.7973239340    0.9121573538   -0.8509369017
 O    1.2316583808   -0.4190539576   -0.6940734189
 C    1.3838409623   -0.7976721518    0.6379982207
 C    0.1400452132   -1.1755493740    1.5398000107
 C   -0.5037892844   -2.2622063295    0.6762467452
 C    0.5380755694   -2.9856033109    0.2554651456
 C    1.7449230277   -2.2887079811    0.8972880058
 C    1.1690860568   -2.0594857930    2.3533042991
 C    2.0444360540   -1.4119074676    3.4211752287
 H    1.4823617019    1.6256574441   -0.3652988439
 H    0.7722530575    1.1224845532   -1.9228253305
 H   -0.2100006837    1.0676175463   -0.4363454259
 H    2.0567542593   -0.0929675473    1.1444696690
 H   -0.4916970963   -0.4301612247    2.0234584698
 H   -1.5580146180   -2.3759693311    0.4686364135
 H    0.5708553368   -3.8531756701   -0.3873788534
 H    2.7450265357   -2.6822186008    0.7148027842
 H    0.7057509282   -2.9615062733    2.7601550258
 H    2.5448655659   -0.4978873021    3.0928101323
 H    1.4414623407   -1.1600219108    4.3010505163
 H    2.8203603381   -2.1128550919    3.7491288776