20

 C   -0.0599470725    1.5499255081   -0.0399835031
 C   -0.0042390348    0.0191106139   -0.0237903444
 C   -1.4056771238   -0.5621648299    0.1344145697
 O   -1.8710433437   -0.2243380667    1.4361617850
 C    0.8797297450   -0.5256525435   -1.1521688004
 C    2.0994786632   -0.4391132702   -0.3217053381
 C    1.1330214372   -0.4909725288    0.9273070359
 C    1.1640701600   -2.0080340894    0.7054341646
 N    1.5947386163   -1.7837942044   -0.7173858516
 H    0.9435430022    1.9854706341   -0.0577091127
 H   -0.5990089700    1.9141707096   -0.9223443030
 H   -0.5841022053    1.9142562462    0.8473366885
 H   -2.0575637795   -0.1362150319   -0.6464519715
 H   -1.3992423777   -1.6503501298   -0.0133195305
 H   -2.7666764302   -0.5597384456    1.5341925712
 H    0.7686425279   -0.3924222544   -2.2214553891
 H    3.1048733165   -0.0843230397   -0.5044811212
 H    1.2699204848   -0.0294862309    1.9030523007
 H    1.9911635253   -2.4950314610    1.2287965334
 H    0.2506108091   -2.5941918358    0.8481025066