14

 O    0.4784484856    1.2490061794    0.3289738094
 C    0.2295338186   -0.0629639402    0.1481301147
 C    0.2912397575   -0.6700205161   -1.1095218059
 C    0.0233944173   -2.0244508521   -1.2225828289
 C   -0.3013627745   -2.7442487412   -0.0713758512
 N   -0.3632117084   -2.1797840428    1.1278796669
 C   -0.1070086186   -0.8695586277    1.2562603118
 C   -0.2127742840   -0.3706867498    2.6550808022
 O   -0.0312300789    0.7616791542    3.0297728167
 H    0.6906380274    1.6537020753   -0.5202854812
 H    0.5477751601   -0.0764995077   -1.9834579374
 H    0.0648060856   -2.5180331699   -2.1873278245
 H   -0.5172066169   -3.8076716954   -0.1233118951
 H   -0.4901377608   -1.1932147558    3.3485842724