20

 C   -0.0230939959    1.5629739242   -0.1038100817
 C    1.5058953920    1.5729270587    0.0573868717
 N    2.1518276682    0.7977337646   -1.0033153930
 C    1.5449891076    0.0698686169    0.0954050439
 C    2.3178178047   -0.9586187552    0.8675895452
 O    1.6099137989   -1.3737539097    2.0274875079
 C    0.2823192144   -1.7847135636    1.7395186853
 C   -0.5744518890   -0.6002752959    1.2783653018
 C    0.0093969858   -0.0016623939   -0.0092597039
 H   -0.5601533907    2.0173848309    0.7324040285
 H   -0.3953750939    2.0004071348   -1.0365648893
 H    2.1043787900    2.3099106093    0.5811373259
 H    1.6001275511    0.7647540989   -1.8599435038
 H    2.5122835866   -1.8289559788    0.2149973870
 H    3.2834143419   -0.5688467886    1.2009095347
 H    0.2851690800   -2.5815437394    0.9748856608
 H   -0.1090240185   -2.2128360334    2.6670178145
 H   -1.6169144886   -0.9085149583    1.1394164885
 H   -0.5572744908    0.1473252952    2.0800264206
 H   -0.3606041738   -0.5465575667   -0.8870592248