17

 O    0.1125076475    1.0520605550   -1.1120054947
 C   -0.1436743968   -0.3109705117   -0.8742270837
 C   -0.8940554809   -0.4839970227    0.4600472739
 O   -2.0477130599    0.3691482899    0.4576973583
 C   -1.2327031060   -1.8792740618    0.7207096739
 C   -1.5325815281   -3.0346649513    0.8761236115
 C   -1.8894190154   -4.4383134294    1.0910788321
 C   -2.4589003443   -5.0862988899   -0.0919065734
 C   -2.9282518915   -5.6262432389   -1.0557134576
 H   -0.7137608032    1.5085202515   -0.9045719605
 H   -0.7455498996   -0.7684671616   -1.6777863366
 H    0.8169247543   -0.8338093979   -0.8366168522
 H   -0.2584225305   -0.0885340412    1.2607832643
 H   -2.7444084431   -0.0927647754   -0.0233745194
 H   -0.9973753426   -4.9916803368    1.4156826605
 H   -2.6008390865   -4.5113553557    1.9251736494
 H   -3.3415579335   -6.1027530524   -1.9100054656