24

 C    0.3624166122   -2.8452749733    0.2443536846
 C   -0.0378440015   -1.5042438677    0.8715463254
 C   -1.5032467637   -1.1937873840    0.6326749259
 C   -2.5517039699   -1.5817488677    1.6192540170
 N   -2.2557476316   -0.1747400366    1.3697404611
 C   -1.6156077710    0.5874810056    2.4326432571
 C   -2.6608452685    1.2310958427    3.3314578351
 O   -3.2768622321    0.2249117016    4.1080508475
 C   -4.3170514581    0.7165167009    4.9159785511
 H    1.4264973700   -3.0507872414    0.3951523336
 H   -0.2078002192   -3.6699150939    0.6842535407
 H    0.1718459959   -2.8497821851   -0.8344947173
 H    0.1792815173   -1.5263145833    1.9440702557
 H    0.5797258200   -0.7030130609    0.4438112836
 H   -1.7759072438   -1.2184893102   -0.4234486636
 H   -3.5312473589   -1.9276416439    1.2991752998
 H   -2.2112571185   -2.0053188272    2.5628106475
 H   -0.9426423708   -0.0090333724    3.0691563074
 H   -1.0176025085    1.3836418842    1.9727097037
 H   -2.1798038000    1.9786106498    3.9862147936
 H   -3.4073648642    1.7539169974    2.7124548248
 H   -4.7266645654   -0.1282378196    5.4756064336
 H   -3.9574889920    1.4742288340    5.6312977439
 H   -5.1224286377    1.1696443508    4.3163086980