17

 C    0.0152021548    1.5022950420    0.0861812266
 C    0.0072312242    0.0137893269    0.0042543372
 C   -0.0276112205   -0.8178929594   -1.1119826237
 C   -0.0561624457   -0.4231268401   -2.4658292747
 C   -0.0686012764   -0.1271687169   -3.6362442232
 C   -0.0167227680   -2.1785259511   -0.6412197797
 N   -0.1116336133   -3.3028657732   -1.4706616286
 C    0.0282389077   -2.1300424769    0.7306086288
 N    0.0430675381   -0.7916911170    1.0992670104
 H    0.9122658668    1.8832649541    0.5899734476
 H   -0.0054036391    1.9202731124   -0.9223703164
 H   -0.8561383575    1.8902870780    0.6283821533
 H   -0.0964801955    0.1461354291   -4.6612785476
 H    0.1715067928   -3.0914274353   -2.4195160587
 H    0.4058599627   -4.1011995415   -1.1280092349
 H    0.0417079491   -2.9145971242    1.4684340503
 H    0.0741846699   -0.4619297869    2.0476899732