15

 O    0.1189535539    1.3859182998   -0.1307598015
 C    0.0375014102    0.0217784940   -0.0644619960
 C    0.7014080479   -0.8135883169   -1.1581632091
 C   -0.5333535014   -1.7532406479   -1.0857133448
 O   -0.8994843022   -2.6631070780   -1.7732083273
 C   -1.1897746929   -0.9457888720   -0.0062872514
 C   -0.2200758174   -0.7531478288    1.1884608712
 C    0.6318580931   -1.8523926116    1.7294488348
 O    0.9418202946   -1.9361679866    2.8905624825
 H   -0.2099839792    1.7745155853    0.6871442608
 H    0.6921867503   -0.2806028483   -2.1137738604
 H    1.7002917813   -1.2173021952   -0.9785261766
 H   -2.2515115660   -0.7928189803    0.1449027580
 H   -0.6662501996   -0.1541994862    1.9817287209
 H    0.9616441874   -2.6096742675    0.9855632887