14

 C   -0.0150112754    1.4504664359    0.0179793565
 N   -0.0205860143    0.0032590618    0.0003386331
 C   -0.0840896892   -0.8055407429   -1.1235607185
 C    0.0007418086   -2.1106185115   -0.7162828354
 C    0.1293005938   -2.1173023205    0.7068292710
 C    0.1146913555   -0.7993264593    1.0980039885
 O    0.2075977001   -0.1884570043    2.3107832032
 H    1.0039165998    1.8550705222    0.0311174635
 H   -0.5280336901    1.8197550731   -0.8724137567
 H   -0.5404834382    1.8121671065    0.9040191123
 H   -0.1882967026   -0.3648610300   -2.1015636033
 H   -0.0328988140   -2.9768097950   -1.3589379902
 H    0.2137580293   -2.9752954839    1.3558509971
 H    0.2290364866   -0.8713993921    2.9872276089