16

 C   -0.0005495195    1.5558001797    0.1351122452
 C    0.0200833643    0.0630041606    0.0321540290
 C    0.0115304300   -0.6998940314   -1.1054815681
 O    0.0378859968   -2.0362471825   -0.7815576055
 C    0.0624715273   -2.1134721346    0.5686940377
 C    0.0534457749   -0.8719522060    1.1194963365
 C   -0.0192285505   -0.3444052999   -2.5354839024
 N   -0.0154829635   -1.4078009193   -3.3900613732
 O   -0.0453821047    0.8152218384   -2.9200603034
 H    0.8879774481    1.9207401377    0.6629476589
 H   -0.0313032909    2.0029154788   -0.8577712225
 H   -0.8729910160    1.8934253779    0.7060856128
 H    0.0845846627   -3.1088039658    0.9821940484
 H    0.0684136963   -0.6374457827    2.1728668109
 H    0.0012558824   -2.3549455908   -3.0563086439
 H   -0.0401801977   -1.2204000002   -4.3775250805