18

 O   -0.1382111906    1.4738669271    0.2031248804
 C   -0.0126379266    0.0690506996    0.0268450434
 C    0.8519280597   -0.5332030291    1.1491145561
 N    0.7948806694   -1.9826543030    1.1457049998
 C   -0.3098592715   -2.7426839408    0.8529113756
 O   -0.2910154485   -3.9578951142    0.9273880663
 C   -1.5233406528   -1.9850764968    0.4073415027
 C   -2.1025775197   -0.8845755861    1.2818384405
 C   -1.3978852211   -0.5298068144    0.0072502158
 H    0.7158753022    1.8785536142    0.0197456420
 H    0.4658307623   -0.1573579452   -0.9387934501
 H    1.8935038894   -0.2254494517    1.0057125261
 H    0.5213845481   -0.0982877166    2.1030118877
 H    1.5778758335   -2.5093407488    1.5020067595
 H   -2.2244730615   -2.6168037505   -0.1231824751
 H   -3.1825943466   -0.7998164223    1.3065418662
 H   -1.6222004241   -0.6740103455    2.2300316265
 H   -2.0128231615   -0.1946577960   -0.8215726933