17

 C   -0.0787370808    1.5690390027    0.0803722246
 C    0.0241019016    0.0659349575   -0.0344348355
 O   -1.1016310038   -0.6218165022    0.4370194798
 C    0.6521123885   -0.6477401168   -1.1832381235
 C    1.6029217337    0.1342416843   -2.0745625815
 O    2.6581558505    0.6256059876   -1.2314717531
 C    2.6094585665    0.0686894825    0.0235339750
 O    3.4902001840    0.2262666846    0.8182092424
 C    1.3395740793   -0.7012294849    0.1699213383
 H    0.8029227932    2.0791010854   -0.3120559625
 H   -0.9611689960    1.9220378937   -0.4625075014
 H   -0.1877372867    1.8625598919    1.1310500336
 H   -1.2194169169   -0.3988842200    1.3676053082
 H    0.1338759611   -1.5070251638   -1.5898890724
 H    2.0450069946   -0.5114419658   -2.8408227652
 H    1.1371556517    0.9928652609   -2.5681280039
 H    1.3314172193   -1.5604000374    0.8259917271