13

 C    0.0035330172    1.4830121243    0.1135401399
 O    1.2611115017    2.0418019343   -0.3360261893
 C    2.2770445270    1.2617382942   -0.7633716786
 N    2.3493559013   -0.0083506890   -0.8568516526
 C    1.1935395510   -0.6686366393   -0.4510261167
 C    0.8501901628   -1.9840474321   -0.3884470862
 O   -0.4040510647   -2.1035267406    0.0828708800
 N   -0.9271556109   -0.8315653138    0.3479679362
 C    0.0313001257   -0.0078676206    0.0257365493
 H   -0.1530527211    1.8296335060    1.1404801229
 H   -0.7827149192    1.9153435826   -0.5143003147
 H    3.1171372569    1.8876900861   -1.0507007032
 H    1.3612013924   -2.9018014023   -0.6305539668