18

 O   -0.0158555366    1.3119688821    0.1028618621
 C    0.0347187903   -0.0607033035   -0.0060370659
 C   -0.6110144882   -0.9319596270   -1.0836391595
 C   -0.3946134919   -2.1062097525   -0.0797319843
 C   -0.2856581547   -1.0363566925    1.0846656236
 C    1.1680062347   -0.8858375607    0.6460344671
 C    1.1342112262   -2.2428502250   -0.0055922645
 C    1.8988886152   -3.4568160375    0.3265841361
 N    2.0646816869   -2.7790726786   -0.9883201803
 H    0.6997196500    1.6848214077   -0.4242311650
 H   -1.6705638942   -0.6865228591   -1.1968239705
 H   -0.1323091651   -1.0127513970   -2.0669098010
 H   -1.0450000156   -2.9787126483   -0.0911024700
 H   -0.7528742466   -0.9406795930    2.0527488786
 H    1.9705917084   -0.3951762403    1.1811821789
 H    2.7695890777   -3.4042921448    0.9751503593
 H    1.3690388391   -4.4062372723    0.3597488944
 H    1.5633004744   -3.2940273176   -1.7096152091