20

 C    0.1026930626    1.4153001748   -0.1144825653
 O    0.0413067435   -0.0000903319   -0.0321495725
 C   -1.2563237160   -0.5610870463    0.0353990565
 C   -1.2410281557   -1.8714287831   -0.7555490462
 C   -0.9499961390   -1.6655797004   -2.2446546891
 O   -0.9768968122   -2.8828528579   -2.9722650161
 C   -1.6641169900   -0.8344746975    1.5062862191
 C   -1.8589538476    0.3719765133    2.3059964518
 N   -2.0266370001    1.3290848787    2.9321329820
 H    1.1573330459    1.6737717367   -0.2348466417
 H   -0.4543427540    1.7888821752   -0.9859314440
 H   -0.2825818936    1.9033043404    0.7875569021
 H   -1.9895722526    0.1282582192   -0.4106257949
 H   -0.4744601045   -2.5281038921   -0.3218746253
 H   -2.2043953572   -2.3826937530   -0.6506137486
 H   -1.7287015975   -1.0370073607   -2.6920442846
 H    0.0062027807   -1.1394901008   -2.3636728679
 H   -0.2110760302   -3.4019958895   -2.7073909491
 H   -2.5946937123   -1.4123816696    1.5287819560
 H   -0.8853955502   -1.4471500355    1.9731782277