10

 N    0.0424299192    1.2521600767    0.0088416845
 N    1.2605512275    1.8393267545    0.0002449667
 C    2.0159248320    0.7591364321   -0.0129895667
 O    3.3318889982    0.4381629654   -0.0275051402
 C    3.2745542006   -0.9520641598   -0.0345578939
 N    2.1084334673   -1.5082403581   -0.0262821764
 C    1.2607247393   -0.4066235986   -0.0120422040
 N   -0.0322207335   -0.0855944457    0.0022477872
 H   -0.7919720728    1.8159345985    0.0200156734
 H    4.2365482922   -1.4409779749   -0.0465597044