17

 O   -0.1896524500    1.2283966256    0.6593138694
 N    0.1519793409    0.1525728137   -0.1441446787
 C   -0.8190186348   -0.6792707902   -0.3069202280
 C   -0.5247717174   -1.8985444507   -1.1711515281
 N   -0.1331533956   -3.1430073408   -0.5055608315
 C    0.7901602453   -3.0909273870    0.6198012718
 C   -0.6367485699   -3.4725748632    0.8238536088
 C   -2.1168199174   -0.5113797024    0.2546887580
 C   -3.2354398755   -0.4070033709    0.6891462664
 H    0.6186227957    1.7540488380    0.6587420583
 H   -1.4134262513   -2.1165739983   -1.7724104098
 H    0.2888488408   -1.6273544587   -1.8496932419
 H    1.5699002855   -3.8478332901    0.6147354924
 H    1.0994147836   -2.1160975805    0.9895273062
 H   -1.2726454414   -2.7596246295    1.3411209482
 H   -0.9146353499   -4.5136076123    0.9655120624
 H   -4.2166868686   -0.3042381727    1.0832290362