16

 O    0.2856298151   -0.0284653233   -0.2258409687
 C    0.3020566394    1.1625008452   -0.2854604314
 O    1.0317602751    1.9215608479    0.5619047347
 C    0.9879989710    3.3268267423    0.3792476843
 C    1.7328286931    4.0408453919    1.5221511408
 N    2.9177593490    4.1833798284    0.6448680529
 C    2.1020255603    3.9033728828   -0.5647705439
 C    2.6846132438    3.0294037821   -1.5652142485
 C    3.1298291504    2.2967501520   -2.4076379200
 H   -0.2797222048    1.7630756479   -1.0105210263
 H   -0.0309355196    3.6526619958    0.1570403276
 H    1.2423646768    4.9806850272    1.8085710266
 H    1.9046747603    3.4332672756    2.4146214459
 H    3.3736522340    5.0886570480    0.6530523374
 H    1.7140069637    4.8108813181   -1.0528267595
 H    3.5363869125    1.6426243980   -3.1393286919