17

 O    0.4197186303    1.0602824243    1.4906786516
 C    0.2458537403    1.5900973717    0.4158443916
 N    1.1868025927    1.7051234632   -0.5632611981
 C    2.4955832655    1.1271490376   -0.4577721625
 C    3.6931406764    1.7720112212   -1.0903085230
 C    3.6079000348    3.3028798128   -1.0122849814
 C    3.4666308295    3.2058116715    0.5405159276
 C    3.5610143389    1.6808912839    0.4418373647
 H   -0.7162686563    2.0537746448    0.1139317016
 H    0.8988367002    2.0878157703   -1.4506087142
 H    2.5052407340    0.0398583559   -0.5023355186
 H    4.3317778502    1.2149612628   -1.7659681841
 H    4.5411002282    3.7834221205   -1.3123201826
 H    2.7860546629    3.7775966586   -1.5583393052
 H    4.3201704910    3.6467933336    1.0585491755
 H    2.5461775934    3.5967231322    0.9823140442
 H    4.0730112480    1.0332459552    1.1423884728