17

 C   -0.0139419358    1.5683234531    0.0866605171
 C   -0.0137443106    0.0584564847    0.0989998163
 O   -1.3335039545   -0.4352010209    0.1370617975
 C   -1.2918292090   -1.7705703394    0.6476048502
 C   -0.1711343445   -1.7629456545    1.7048358278
 C    0.8186635704   -0.7702161831    1.1185325568
 O    1.6135612613   -1.3384644677    0.0223460516
 C    0.9118812306   -0.6463555751   -0.9385937083
 O    1.0688223913   -0.6763386392   -2.1149906362
 H    1.0072825635    1.9590734555    0.0946267119
 H   -0.5126149977    1.9293415185   -0.8167242413
 H   -0.5514990275    1.9518362031    0.9582365379
 H   -2.2802426013   -2.0027458277    1.0479736573
 H   -1.0645015475   -2.4825821062   -0.1579956358
 H   -0.5441898510   -1.3761116979    2.6586068183
 H    0.2709353443   -2.7469635779    1.8750512049
 H    1.4663270380   -0.2550312252    1.8271483139