16

 C   -0.2352766578    1.5540967049   -0.0295595398
 C    0.1027768432    0.0539568636    0.0309583931
 C    0.8765637376   -0.4191573269   -1.1522460642
 C    2.1275499987   -0.9221406183   -1.3309013477
 C    2.2099002615   -1.1502439504   -2.7341993321
 C    3.3709920875   -1.7001019599   -3.4769345964
 O    3.4135653176   -1.8818641010   -4.6659231240
 N    1.0941874230   -0.8092082872   -3.3485181655
 O    0.2584312110   -0.3505516221   -2.3531751436
 H    0.6748603087    2.1599940740   -0.0612213920
 H   -0.8263524429    1.7833086152   -0.9197586830
 H   -0.8124811377    1.8479727043    0.8511916094
 H    0.6877175293   -0.1698256815    0.9278862147
 H   -0.8241943773   -0.5276315633    0.1024798028
 H    2.8798671616   -1.1065996374   -0.5817741853
 H    4.2349150760   -1.9407937040   -2.8186046864