16

 C    0.0023442323    1.5418828701   -0.0753569538
 C    0.0031275689    0.0334775656    0.0503709772
 O    0.0049658432   -0.5280408183    1.1308561730
 C    0.0018394681   -0.7337970755   -1.2118729921
 C    0.0026104865   -2.0928931665   -1.3758512737
 C    0.0055804130   -3.2530190371   -0.4554372831
 O    0.0004080898   -2.3358491462   -2.7175982362
 C   -0.0014683576   -1.1060190764   -3.2996631027
 N   -0.0007581255   -0.1234403382   -2.4702959138
 H    0.8799475704    1.8765147183   -0.6376682876
 H   -0.8708282613    1.8760033380   -0.6446127063
 H   -0.0011978172    1.9847614087    0.9208484050
 H   -0.8734362269   -3.8858272076   -0.6208214609
 H    0.8931655230   -3.8757592353   -0.6136849572
 H    0.0000546570   -2.8829349571    0.5692729219
 H   -0.0034416338   -1.0829903226   -4.3779836797