14

 C   -0.1568961230    1.4484987163   -0.0205552019
 N    0.0001999927   -0.0063609369   -0.0142554104
 C    0.1312595957   -0.6412819972    1.2200770695
 O    0.1111539298   -0.0538644109    2.2750668833
 C   -0.0332773907   -0.7659004609   -1.1873210416
 N   -0.2576452071   -2.0190211163   -1.1744627048
 C    0.2672587486   -0.0436393969   -2.4946972801
 O    0.1794959066   -0.6171269754   -3.5489054559
 H    0.7616580541    1.9620055882   -0.3225694410
 H   -0.9754522818    1.7487451889   -0.6791643312
 H   -0.3917621753    1.7400501333    1.0030628648
 H    0.2638717663   -1.7252464911    1.1106321484
 H   -0.1873598330   -2.3654855420   -2.1346853881
 H    0.5908864970    1.0118849511   -2.4377440510