19

 C    0.1816279484    1.4865115793    0.1513177887
 C   -0.2126536664    0.0322903302   -0.1343906556
 C    0.5683531433   -0.5445424456   -1.2982683347
 C    1.9402284261   -1.1293876225   -1.1313036043
 O    2.4212121031   -1.2038765322    0.1753716078
 C    0.7472648039   -2.0537285958   -1.4666369011
 N    0.2209479474   -2.9424453853   -0.4480136541
 C    0.6834293289   -2.5820412174   -2.8022663356
 N    0.6641209049   -3.0023416333   -3.8807404034
 H    1.2375323885    1.5552647450    0.4299057299
 H    0.0223851469    2.1227615662   -0.7260894642
 H   -0.4133685754    1.8966773402    0.9727865800
 H   -0.0583484023   -0.5699750154    0.7636772315
 H   -1.2813845484   -0.0316612047   -0.3680036104
 H    0.4287189557   -0.0085725503   -2.2334415698
 H    2.6891193208   -0.9439294654   -1.8986679085
 H    3.1173154794   -1.8696909190    0.2039941908
 H    0.4844742660   -3.8978995498   -0.6719310178
 H    0.6768586092   -2.7149846742    0.4326184607