22

 C   -0.6031364374    1.2280102045    0.2033132588
 C   -0.0255311285   -0.1648411153    0.0907233052
 C    1.4018049481   -0.3442821926   -0.3561014948
 C    1.0259106524   -0.6747949122    1.0656433898
 N    1.5169884502    0.1360502176    2.1473849097
 C    2.8692562076    0.6795957890    2.0744709483
 C    0.8442173093    0.2264856733    3.3503550575
 C   -0.4796179840   -0.5164776997    3.4445872387
 O    1.2894784231    0.8491639960    4.2993691176
 H    0.1229232814    1.9264249957    0.6285751829
 H   -0.8957336451    1.6053937245   -0.7822303970
 H   -1.4930402086    1.2476864169    0.8412744086
 H   -0.7291450839   -0.9213265437   -0.2473103170
 H    1.6604943723   -1.1666930309   -1.0134635282
 H    1.9769867463    0.5583007085   -0.5301629811
 H    0.9742592494   -1.7390008943    1.2921953530
 H    2.9303515579    1.5309470572    1.3869956815
 H    3.1425225671    1.0187379320    3.0725834892
 H    3.5724694288   -0.0883463078    1.7357874329
 H   -1.1829644732   -0.2098728351    2.6674587727
 H   -0.3311624888   -1.5966934059    3.3395289260
 H   -0.9036229443   -0.3097756679    4.4265013657