17

 O   -0.0909023819    1.3190117170    0.1414261293
 C    0.0439313608   -0.0599999566    0.0199886008
 C   -0.3794174709   -0.7621054916   -1.2445501172
 C   -1.1965948800   -0.9490726735    0.0204837846
 C   -0.8028922178   -1.9993412972    1.0696929071
 C    0.6988024821   -2.2939739841    0.7670331100
 C    0.9198251761   -0.7793189340    1.0604799653
 C   -0.1926609316   -1.0275733619    2.1368806031
 O   -0.4017646849   -0.7256517202    3.2674143617
 H    0.6690565567    1.7340839571   -0.2810525783
 H   -0.8498646032   -0.0950607247   -1.9594012514
 H    0.1874044813   -1.5640502487   -1.7024860352
 H   -2.1836132677   -0.5067247228    0.0726283818
 H   -1.5115226592   -2.7838641421    1.3246335084
 H    1.1561046555   -2.9303484150    1.5270912198
 H    0.9554483021   -2.6627008195   -0.2246041969
 H    1.8950557425   -0.3585171522    1.2969735170