18

 C    0.2261740274    1.2896083580   -0.2076015297
 O   -0.1117625948   -0.0720602207    0.0001625283
 C    0.5873010417   -0.6660352888    1.0745234910
 C    0.2366110894   -2.0934230405    1.4108074383
 C    1.0681817116   -3.0063767061    0.5734585011
 C    1.9598778488   -2.1658413480   -0.3324983841
 O    1.5423508881   -1.7217439519   -1.5878829140
 C    2.0255838733   -1.2028897403    0.8775126180
 N    1.6609338083   -2.3953651971    1.8167021957
 H    1.2762539403    1.4065265239   -0.5083502528
 H   -0.4160282557    1.6628714561   -1.0078997232
 H    0.0492552014    1.8839969358    0.7000668413
 H    0.5276888506   -0.0299927570    1.9679297796
 H   -0.6032456012   -2.4488039895    1.9954320892
 H    0.8577691418   -4.0683153234    0.5187798759
 H    2.9224124322   -2.6670405618   -0.4656567509
 H    0.7253504534   -1.2234762713   -1.4427748717
 H    2.9027705533   -0.5959872775    1.0903493781