15

 C   -0.0643034277    1.5650593658    0.0050362521
 C    1.4543381550    1.2850943801   -0.0056677513
 C    1.2335220230    0.1135864245    1.0129352082
 C    2.2123281864   -0.9884084581    0.6307362288
 O    2.1448465488   -0.9217919601   -0.8062194637
 C    1.2149055258    0.1215392531   -1.0129361723
 C    0.0378782465    0.0241765937    0.0023912966
 H   -0.4662273308    2.0223670292    0.9126806578
 H   -0.4879047183    2.0352072041   -0.8876846787
 H    2.2772232726    2.0014525263   -0.0073239711
 H    1.0485727819    0.3280817612    2.0661732258
 H    3.2390272873   -0.7983324570    0.9674378580
 H    1.9068023461   -1.9842638489    0.9750217839
 H    1.0528156238    0.2968356916   -2.0760771882
 H   -0.7689311805   -0.7102023554    0.0100182642