19

 O    0.0298869889    1.4083316746   -0.0983398197
 C    0.0770500606   -0.0030733476   -0.0122449419
 C   -1.3204110173   -0.6064924843    0.0509202957
 O   -2.0003370511   -0.2462713055   -1.1703383344
 C   -3.0908275006   -1.1596691057   -1.3511509035
 C   -2.6055783081   -2.4822254360   -0.7852180540
 C   -1.2066548926   -2.8762142145   -1.1794537366
 O   -0.5490686314   -2.3587665103   -2.2965781641
 C   -1.4202508700   -2.1200609743    0.1115039610
 H   -0.5383660593    1.6178854452   -0.8480392000
 H    0.6306820064   -0.4512938304   -0.8501826287
 H    0.6156201708   -0.2460102979    0.9096441151
 H   -1.8551658234   -0.1600473983    0.9045975503
 H   -3.9853656018   -0.8106120786   -0.8148980228
 H   -3.3140972140   -1.1832935500   -2.4226168277
 H   -3.3415524936   -3.2294223591   -0.5106483826
 H   -0.9596571004   -3.9270124053   -1.0687932010
 H   -0.8063838442   -1.4304849036   -2.3753607787
 H   -1.2485143890   -2.6075098383    1.0645690636