18

 O    0.0117817291   -0.0630557256    0.1146449525
 C   -0.0047232651    1.1422307886   -0.0407767879
 C   -1.3126506473    1.9393764810   -0.0968583100
 N   -1.2404699728    3.1538851954   -0.9147728189
 C   -0.1113690081    3.9872256880   -0.5654838901
 C   -0.0851000957    5.3547894280   -1.2125249049
 C   -0.4195790104    5.2481844546    0.2442968964
 C    1.1605159101    3.2886092714   -0.2947047434
 C    1.2220281124    1.9585679607   -0.1162824592
 H   -2.1095482381    1.2886875299   -0.4645251193
 H   -1.5745894668    2.2218804578    0.9328402457
 H   -1.1456317685    2.8807619306   -1.8898141603
 H    0.8773658186    5.7630427430   -1.5002333453
 H   -0.8969749062    5.5644640093   -1.8996285831
 H   -1.4559480228    5.3681397670    0.5351786339
 H    0.3111495802    5.5794722657    0.9730929759
 H    2.0627362103    3.8954264941   -0.2386918513
 H    2.1616330011    1.4401101605    0.0445693994