17

 C   -0.6734995754    1.4119972030   -0.0926108371
 C   -0.0114617924    0.0444275488   -0.0293108331
 C    1.3233733739   -0.1820417496   -0.8144267516
 C    1.9509917359   -0.8077789802    0.4575041220
 O    3.0403779277   -0.0841339391    1.0189408364
 C    2.5714122667    0.8382945123    1.9025988852
 O    3.2435809631    1.6372106831    2.4693259030
 O    1.2213929267    0.7208181389    2.0510080441
 C    0.7160916464   -0.3696010186    1.2803653051
 H    0.0198270678    2.2007269074    0.2119205143
 H   -1.0091404744    1.6265944049   -1.1122886119
 H   -1.5458695897    1.4619970905    0.5668833360
 H   -0.7370338509   -0.7362424746   -0.2812126515
 H    1.2675557087   -0.8303691324   -1.6906145837
 H    1.8300203023    0.7451387800   -1.0942182904
 H    2.2120063550   -1.8647591082    0.4179336824
 H    0.2138749886   -1.0679554261    1.9526136408