9

 O   -0.0797225519   -0.0053692339   -0.0012646350
 C    0.0120324808    1.1927020239    0.0064714600
 C    1.3032726759    1.9366869321   -0.0012550855
 N    2.4803092347    1.3580018892   -0.0175853239
 O    3.3608680805    2.4296490350   -0.0184952145
 C    2.6132924282    3.5401281537   -0.0031121044
 N    1.3400343446    3.3161192707    0.0081318834
 H   -0.8659459092    1.8689291454    0.0202307529
 H    3.1356866364    4.4851599239   -0.0015873431