16

 C   -0.0132134530    1.3817609968    0.0245013877
 C    1.4243020773    1.9204370935    0.0272844644
 O    2.1350921477    1.5377279706    1.1991495076
 C    1.9224759369    0.2033739958    1.4513628293
 C    0.9042878310   -0.5083494869    0.8723285263
 N    0.9608686559   -1.7975788931    1.3220420118
 C    2.0272911277   -1.9119420013    2.1951401088
 C    2.6430869939   -0.6842736902    2.2959789163
 O   -0.0358179899   -0.0522331536    0.0029549241
 H   -0.5420662722    1.7395464897    0.9178022952
 H   -0.5456374547    1.7142628164   -0.8695536209
 H    1.9477704947    1.5490233585   -0.8658259783
 H    1.4119847891    3.0133689085    0.0044646767
 H    0.3315035893   -2.5306970612    1.0483786786
 H    2.2571861118   -2.8549368367    2.6611444770
 H    3.5049138244   -0.4464555868    2.8985312153