17

 C    0.1823882234    1.3344511835    0.3335085619
 O   -0.0540068085    0.1282579959   -0.4061512938
 C   -1.2126065643   -0.4968174295   -0.1245034245
 C   -1.8942297651   -0.8268987726    1.0333443787
 N   -1.5755439382   -0.5058728834    2.3676392675
 N   -3.0165706146   -1.5029425887    0.6756783479
 N   -3.0657758129   -1.6225661682   -0.6252014845
 N   -1.9665657597   -1.0180889015   -1.1249693882
 C   -1.7036433886   -1.0003591889   -2.5469784367
 H    1.1928113082    1.6529207859    0.0743362180
 H   -0.5368180918    2.1085199265    0.0427469854
 H    0.0999576455    1.1584369666    1.4094282989
 H   -0.8097179049   -1.0729493336    2.7188349773
 H   -2.3853730851   -0.6931661787    2.9503652300
 H   -2.5912030725   -1.3959443600   -3.0403685115
 H   -1.5124763846    0.0209074264   -2.8854384262
 H   -0.8378696964   -1.6218939995   -2.7930423304