19

 C    0.0158191913    1.5539149610    0.2508869180
 C    1.5605847769    1.4219729217   -0.0748804083
 C    1.1434795557    0.2270445332   -0.9583373413
 C    0.5373499585    0.6378977886   -2.3222155552
 O   -0.7203144490   -0.0707458684   -2.3623885509
 C   -0.7273583148   -0.8533582363   -1.1717975297
 C    0.4633204695   -1.8783743087   -1.2873148053
 O    1.6843194197   -1.0786920615   -1.1313023857
 C   -0.0929789298    0.0337650549   -0.1021632335
 H   -0.2427300880    1.8201231249    1.2760222204
 H   -0.5091207114    2.2201435780   -0.4340980308
 H    2.0714213312    2.2623298370   -0.5501935476
 H    2.1179883241    1.1075553651    0.8102103656
 H    0.3498846410    1.7102108172   -2.4404537579
 H    1.1944210985    0.2990081171   -3.1304777604
 H   -1.7091504218   -1.3110291963   -1.0486353945
 H    0.4421344841   -2.6567991154   -0.5156069181
 H    0.4564062685   -2.3443891572   -2.2770071366
 H    0.1649657258   -0.5460669948    0.7877262318