19

 C   -0.0608318618    1.5583945255    0.0337867821
 C    0.0586754464    0.0530754948   -0.0015682470
 C   -0.8039228410   -0.8141291068    0.9089907179
 C    0.6863113920   -0.8011162710    1.1049122943
 C    1.4981174208   -1.9148104353    0.4455214904
 C    1.2019283676   -1.7339886578   -1.0310399820
 C    1.6853658123   -2.6361141673   -2.0716555887
 O    2.3440190088   -3.6331683125   -1.8622761014
 C    0.4510813955   -0.6398317378   -1.2559950063
 H    0.8666680588    2.0425596977   -0.2910071838
 H   -0.8681868650    1.9095862109   -0.6194799579
 H   -0.2824854948    1.9070768529    1.0468233687
 H   -1.4035845352   -0.2888470231    1.6459373833
 H   -1.2759562616   -1.6966918063    0.4889760240
 H    1.0742701086   -0.3269075477    1.9992289088
 H    2.5725049533   -1.8132837699    0.6398447745
 H    1.2165801730   -2.9136762383    0.7968932512
 H    1.4096618259   -2.3364392675   -3.1083641706
 H    0.1438375162   -0.2949847006   -2.2392602175