20

 C   -0.0024885559    1.4591507613    0.3863512493
 N   -0.0437650097    0.0042330280    0.4416644608
 C   -1.0504208314   -0.5944465729    0.0043187900
 O   -2.2201241318   -0.0983741263   -0.5606148880
 C   -2.7624255671   -1.4546640288   -0.7113546247
 C   -2.8732160776   -1.9380279261   -2.1635308350
 C   -1.9723979573   -3.1908075074   -2.2143410892
 C   -0.8006942803   -2.8700703995   -1.2601896779
 C   -1.4554551418   -2.0476696220   -0.1250697181
 H    0.8744657508    1.7706699502   -0.1920927742
 H   -0.8953893831    1.9176335255   -0.0545399825
 H    0.1298761548    1.8527178292    1.4003704123
 H   -3.6786443678   -1.5504662949   -0.1254535238
 H   -3.9031057136   -2.1412442828   -2.4675676900
 H   -2.4825342051   -1.1522237569   -2.8182655695
 H   -2.5279204241   -4.0582776547   -1.8373980179
 H   -1.6422903326   -3.4374816504   -3.2273417026
 H   -0.3009322850   -3.7678450878   -0.8896578465
 H   -0.0434100296   -2.2674940500   -1.7713298789
 H   -1.5302608719   -2.5864622136    0.8199697265