18

 C    0.0894145688    1.4603337773    0.0800406994
 C    0.0126619087   -0.0292297222    0.0003115023
 C   -0.0528611832   -0.7962677349   -1.0910509917
 C   -0.0967872982   -2.2748402619   -0.7921226294
 C    0.0119472517   -2.2850701926    0.7147095964
 N    0.1658050325   -3.2617112309    1.5109952208
 O    0.2160739216   -4.4874633902    0.8303797662
 C   -0.0088093422   -0.8643862160    1.2638613180
 O    1.1062889628   -0.5567748552    2.0899201269
 H    0.9827379424    1.7658519148    0.6356266352
 H    0.1209509746    1.9159315458   -0.9131210819
 H   -0.7721518172    1.8722519638    0.6210707047
 H   -0.0759793349   -0.4139096301   -2.1061791050
 H   -1.0240336090   -2.7604412605   -1.1265767121
 H    0.7192914692   -2.8449598342   -1.2545205104
 H    0.3404950983   -5.1184836179    1.5475107570
 H   -0.9426819230   -0.6873219233    1.8274524692
 H    1.2117373971   -1.3015258417    2.6932168945