14

 C   -0.0175584942    1.5961079724    0.0290465788
 C    0.0290486912    0.1043758196   -0.0022935880
 C   -0.0300280068   -0.7504578104   -1.0964063109
 N    0.0498831571   -2.0264623979   -0.6216284366
 N    0.1579027058   -2.0655203742    0.7187456448
 C    0.1452271742   -0.7901004436    1.0858499432
 O    0.2354950217   -0.4123424036    2.3747480613
 C   -0.1494488934   -0.4627344751   -2.4755843659
 N   -0.2470631875   -0.2295804012   -3.6062082173
 H    0.8884990881    2.0106094244    0.4836078447
 H   -0.1111655005    2.0063300356   -0.9792224892
 H   -0.8657789754    1.9528596744    0.6228820927
 H    0.0354759133   -2.8821828928   -1.1494063169
 H    0.3051077164   -1.2126289576    2.9105357592