17

 C    0.0043853703    1.4758392180    0.0183942169
 C    0.0338503407   -0.0244981855   -0.0042767238
 N   -0.8533096591   -0.8521132268    0.8508251492
 C    0.6231094283   -0.9091807823    1.0248837209
 C    1.3375332930   -1.9228466331    0.1034567048
 C    0.2859692857   -2.2761304909   -0.9715166619
 C    0.5460289536   -0.7829995035   -1.2618805753
 O    1.9513313714   -1.0072828235   -0.8788857624
 H    0.9330999340    1.8791255431   -0.3984980112
 H   -0.8309710202    1.8712028781   -0.5712930431
 H   -0.0976859942    1.8553501542    1.0408673736
 H   -1.2359231352   -0.2545144426    1.5837278305
 H    1.0840966602   -0.5481995374    1.9366940352
 H    2.0359761946   -2.6372043561    0.5373305337
 H    0.7241194613   -2.9025615666   -1.7475680561
 H   -0.7063888089   -2.6037843090   -0.6708323487
 H    0.4244342047   -0.3155178560   -2.2391395723