20

 C   -0.0392265917    1.5982650539   -0.1052024099
 C    0.0713937580    0.0896607984   -0.0134328641
 C    1.3109736991   -0.7464327823   -0.2330078501
 O    2.6021510443   -0.2195302457   -0.3400896102
 C    3.0791227546    0.6524558541    0.6869733495
 C    2.6990679646    0.2109154972    2.0888617194
 C    1.5794021155    0.8907746507    2.8134005314
 N    1.4058616203   -0.4460937692    2.2728774023
 C    0.6275256989   -0.7953848983    1.1149497506
 H    0.8561731882    2.1319334235    0.2074455642
 H   -0.2325345896    1.8876383762   -1.1440912829
 H   -0.8762830445    1.9661510549    0.4989576684
 H   -0.8099214438   -0.3887520672   -0.4392628493
 H    1.2457749034   -1.6052246753   -0.8931615394
 H    4.1669422418    0.6385612910    0.5799164279
 H    2.7508194765    1.6802188957    0.4884754569
 H    3.5024202222   -0.2412970206    2.6666106289
 H    1.5877262478    0.9444187814    3.8993926672
 H    1.1044739809    1.7359171075    2.3245695768
 H    0.0134580735   -1.6671185260    1.3240432624