18

 C    0.2263195388    1.5721903343   -0.0343046382
 C    0.0428846363    0.0638609185    0.0379886853
 O    0.6549820899   -0.5227400776   -1.1158298726
 C    1.1960281010   -1.7949219376   -0.7929644826
 C    1.4385329014   -1.7859457099    0.7069632555
 C    1.7274337502   -3.0547977909    1.4569286662
 O    2.1466895215   -0.6012040409    1.1153214787
 C    0.7163740754   -0.6166865377    1.2144523943
 H    1.2894312775    1.8173659240    0.0256769652
 H   -0.1707273868    1.9551739224   -0.9779840870
 H   -0.3022421646    2.0648364746    0.7880423510
 H   -1.0322261171   -0.1873732338    0.0677307514
 H    0.4977642542   -2.6103242652   -1.0461970359
 H    2.1131772212   -1.9314103544   -1.3767824635
 H    2.6662924026   -3.5028227428    1.1134858057
 H    1.8204296751   -2.8535922886    2.5266550067
 H    0.9294295653   -3.7888438149    1.3044655639
 H    0.2974688281   -0.5502348393    2.2156717860