12

 O    0.0769162697    1.3244529154   -0.1045791456
 C    0.0641445416   -0.0086583614   -0.0689710776
 C   -0.0072127325   -0.7477069909   -1.2634139311
 N   -0.0184859794   -2.0615255762   -1.2055425195
 C    0.0410713209   -2.6018468040    0.0273728880
 C    0.0273087284   -4.1010476591    0.0772936285
 O    0.0739785900   -4.7554560325    1.0839055942
 N    0.1091415383   -1.9261585299    1.1741611963
 N    0.1205900664   -0.6032740515    1.1190457305
 H    0.1289642655    1.6322072377    0.8141648366
 H   -0.0530998482   -0.2550965325   -2.2307860187
 H   -0.0318278007   -4.5504887451   -0.9356804516