17

 C   -0.0096502967    1.5006586566    0.0788689938
 C   -0.0201148794    0.0100358047   -0.0129994696
 C    0.0017735690   -0.7577890060   -1.1099012123
 C   -0.0354806698   -2.2107351122   -0.7685462838
 C   -0.7162671937   -3.2350803469   -1.5793999803
 O    0.7060930158   -3.1508208974   -1.5538632359
 C    0.0318756323   -2.2688734218    0.7397135091
 O    1.2048964995   -1.6666148305    1.2970780917
 C   -0.0000114861   -0.8769084915    1.2063610946
 H    0.8791803783    1.8535639843    0.6164875309
 H   -0.0185119887    1.9640240695   -0.9108815309
 H   -0.8799839904    1.8704801012    0.6355448739
 H    0.0769331935   -0.4101618418   -2.1337044045
 H   -1.1452113291   -4.1097839078   -1.0895607444
 H   -1.1916133020   -2.9469647419   -2.5163332919
 H   -0.3755902356   -3.1132864215    1.2878016128
 H   -0.4285504370   -0.5659134470    2.1549265769