19

 C    0.2008370047    1.2095864215    0.6502405873
 C   -0.0108273906   -0.0668465194   -0.1376601220
 C    0.5876024834   -0.2155079799   -1.4812904475
 O    1.1818152654   -0.8511087127   -0.3551370419
 C   -1.1982404218   -0.8220970287    0.1900444058
 C   -2.2016494448   -1.4187201431    0.4882519004
 C   -3.3929045950   -2.1682928375    0.8626488268
 C   -3.1345705531   -3.1483764088    2.0131972973
 O   -4.3638866686   -3.8015642504    2.2785050382
 H    1.1278805751    1.6959729653    0.3369184778
 H   -0.6348789062    1.8988507603    0.4961354038
 H    0.2657742805    0.9890348784    1.7196924491
 H    0.1184935425   -0.8801235151   -2.2044231357
 H    1.1476292745    0.6190215897   -1.9032520167
 H   -4.1941385203   -1.4830737587    1.1654170080
 H   -3.7765294786   -2.7339012770    0.0048359027
 H   -2.3488597763   -3.8590893816    1.7177732875
 H   -2.7684457470   -2.5938150773    2.8900102093
 H   -4.2220385338   -4.4358931151    2.9868661296