18

 C   -0.3367946096    0.9002372903   -1.0866853753
 C    0.0679421001    0.0515955871    0.1212079249
 N    1.2511792528   -0.8063963342   -0.0864404398
 C    1.1078484700   -1.8699210320   -0.9846690630
 C    1.5016910089   -2.0475297157   -2.3006562455
 O    2.1205035541   -1.0774839372   -3.0415176250
 C    1.1098681574   -3.3588602819   -2.6378147983
 N    0.5060642392   -3.9649387039   -1.6140102850
 N    0.5243344998   -3.0510583762   -0.6291279409
 H    0.4675681597    1.5879213966   -1.3694532804
 H   -0.5579163381    0.2683562392   -1.9517369679
 H   -1.2267881200    1.4968286950   -0.8596554631
 H    0.2832200115    0.6940105704    0.9822681999
 H   -0.7611842268   -0.5999565126    0.4174937181
 H    2.0487121771   -0.2423279787   -0.3591577823
 H    2.4709018397   -1.4773286031   -3.8424927130
 H    1.2329211585   -3.8785856716   -3.5778381455
 H    0.1607913558   -3.2865848416    0.2786877421