18

 C   -0.1052289465    1.4917143126   -0.0105107012
 N   -0.0120126251    0.0573922840   -0.0812638011
 C   -1.0243763039   -1.0006390515   -0.0609808992
 C    0.1441439761   -2.0326821328   -0.1266261833
 C    0.2222669284   -2.9131574511   -1.3397333441
 C    0.9988986911   -4.1572293943   -1.3417249178
 O   -0.4280617324   -4.1849876844   -1.2572339317
 C    1.0710505004   -0.7816335003   -0.1368379315
 O    2.2561291046   -0.5761414413   -0.1805347163
 H    0.9114325352    1.8909949265   -0.0394981226
 H   -0.6705770061    1.9005276280   -0.8567568090
 H   -0.5876443585    1.8187735707    0.9189252407
 H   -1.6237166501   -1.0306599457    0.8555250687
 H   -1.6907462032   -0.9981560558   -0.9313728392
 H    0.2508015302   -2.6316952324    0.7808825334
 H    0.0788788874   -2.4026993559   -2.2940076032
 H    1.4218426545   -4.5267354950   -2.2742123321
 H    1.5280586780   -4.4589376115   -0.4391613805