20

 N    0.0280450416    1.2929191690   -0.0912651022
 C   -0.0238710116    0.0321796450   -0.0069559847
 C   -1.3259992953   -0.7283162909   -0.0142531092
 C   -1.3679749774   -1.7601176292    1.1413314095
 C   -1.0343548216   -1.1322006430    2.4703024171
 C    0.1879425681   -1.0006364652    2.9927818013
 C    1.4840276819   -1.4870529353    2.3834114842
 C    1.9571897220   -0.6589859115    1.1770582188
 O    1.0562950010   -0.8198198973    0.0789007875
 H    0.9952990314    1.6242204802   -0.0893595101
 H   -2.1379884952   -0.0015643357    0.0580125273
 H   -1.4344234571   -1.2560311298   -0.9701277461
 H   -2.3647683237   -2.2122241554    1.1727381676
 H   -0.6562943331   -2.5579763277    0.9103178595
 H   -1.8699273715   -0.6982833855    3.0162393513
 H    0.2808218967   -0.4736665214    3.9397458001
 H    2.2785388022   -1.4682513483    3.1381315956
 H    1.3928239028   -2.5274831632    2.0489155056
 H    2.0566447806    0.4006384582    1.4417380075
 H    2.9297216679   -1.0188281730    0.8282627793