15

 N    0.0323345393    1.4737339764    0.1386020021
 C    0.0127154953    0.0570570557    0.0411737927
 C   -1.1278182277   -0.6711284092    0.0175547048
 O   -2.3566509062   -0.1197650109    0.0293440375
 O   -1.1597293664   -2.0188123625    0.0208854328
 C    0.0137034253   -2.8054689906   -0.0241416247
 N   -0.0773451229   -4.0716925074   -0.0653962602
 C    1.2419982083   -2.0498847344   -0.0062038729
 C    1.2316400596   -0.6972464949    0.0387071096
 H    0.4904975130    1.8983350314   -0.6618492301
 H   -0.9086169897    1.8457226143    0.1903041650
 H   -3.0046490344   -0.8349883069    0.0292792152
 H   -1.0510594218   -4.3725399757   -0.0643522975
 H    2.1561840522   -2.6270818703   -0.0177293349
 H    2.1641867062   -0.1424998550    0.0770737006