15

 N    0.0857719913    1.2972667677   -0.1582084611
 C   -0.0477869319   -0.0559494169   -0.0335815154
 N   -1.1378187687   -0.7278012185   -0.0106252834
 C   -0.7481855173   -2.1082345321   -0.0188134923
 C    0.0523915417   -2.6009467271   -1.1992920058
 C    0.7910736885   -2.1143756246    0.0296417399
 O    1.1400204252   -0.7292782531    0.0132423528
 C    1.6361658456   -2.9397691695    0.8238107293
 C    2.3340148778   -3.6603244584    1.4874584749
 H    0.9251222417    1.6860353303    0.2445380076
 H   -0.7590631489    1.8100799178    0.0421078089
 H   -1.3546825907   -2.8010641103    0.5518105478
 H    0.0862750108   -3.6716098977   -1.3653636922
 H    0.0951090330   -1.9826505635   -2.0901442336
 H    2.9512569419   -4.2923059041    2.0766461525