18

 C    0.3976179092    0.6463422690   -0.0171086855
 O   -0.8677363808    0.4222052125   -0.6091816875
 C   -1.7045836585   -0.4370654400    0.1344588786
 C   -1.2849784963   -1.8901872082    0.1120934206
 C   -1.1845985380   -2.6463728455   -1.1987359399
 C   -2.1927836247   -3.0828766332   -0.1808841314
 O   -1.7801684960   -4.0993249544    0.7213357038
 C   -0.7300321690   -3.5634770109    1.3973028709
 N   -0.3922217042   -2.3613441403    1.1573312651
 H    0.9192281707    1.3684076185   -0.6502236855
 H    0.2967486582    1.0655285819    0.9959224753
 H    0.9931754732   -0.2722533176    0.0534718858
 H   -1.7746665640   -0.1055053672    1.1824512286
 H   -2.6969849700   -0.3430761672   -0.3195197789
 H   -1.5775445480   -2.1383634382   -2.0724896892
 H   -0.3103532188   -3.2644787330   -1.3730572781
 H   -3.2617672666   -3.0751095268   -0.3509227336
 H   -0.2627046363   -4.2293262893    2.1122514210