17

 C   -0.0650278777    1.3681194673    0.0257218578
 O   -0.0242032544   -0.0550187341    0.0226799622
 C   -1.2216348636   -0.6694222576    0.0398619978
 N   -2.3730600293   -0.0223960359    0.0469429805
 N   -3.3067043984   -1.0343381761    0.0264866879
 C   -2.7428768975   -2.2648664944    0.0316004231
 N   -3.4710420686   -3.4479432623    0.0997534597
 C   -1.3717714592   -2.0833674943    0.0249694688
 N   -0.4208730119   -3.1394746563   -0.0208161124
 H    0.9742296796    1.7002210954    0.0050131394
 H   -0.6018029510    1.7470241049   -0.8503704650
 H   -0.5642580687    1.7445571597    0.9249019427
 H   -4.2681095268   -0.8038594975    0.2026005558
 H   -4.2145188779   -3.5071810133   -0.5862819068
 H   -2.8353824024   -4.2309206801   -0.0143870494
 H    0.1413805104   -3.1676605465    0.8251887876
 H    0.2318063476   -3.0089895987   -0.7882870797