21

 C    0.1391892544    1.6122785882    0.1789423785
 C    0.0405995019    0.0932164738    0.0176819982
 O    0.6083153375   -0.4478864692    1.2211659557
 C   -1.4469080600   -0.3398713221   -0.0813285191
 C   -2.2780550605    0.0807455878    1.1112376200
 O   -3.3477025887    0.6320323197    1.0355318009
 C    0.7878796362   -0.4581839547   -1.1924095990
 C    1.0658107653    0.3301477267   -2.4482677090
 C    2.1992585842   -0.0494707277   -1.5307780998
 H    1.1799364403    1.9442017069    0.1770713398
 H   -0.4054396603    2.1344508293   -0.6113028354
 H   -0.2948308790    1.9042675413    1.1389719862
 H    0.8592060545   -1.3612147787    1.0472248719
 H   -1.9132127354    0.0439604379   -0.9933406995
 H   -1.4766355137   -1.4389134807   -0.1240510935
 H   -1.8253210607   -0.1699818393    2.0939949840
 H    0.5640948054   -1.5112576072   -1.3603116559
 H    0.9717275309   -0.1803568038   -3.4002001977
 H    0.7709985190    1.3726935897   -2.4756142153
 H    2.6605878489    0.7356876176   -0.9430105817
 H    2.8882320797   -0.8235118854   -1.8501275594