23

 C   -0.0314912212    1.6595453293   -1.0366729803
 C    0.1791338399    0.4291432939   -0.1571572771
 N   -1.1120103796   -0.1643719813    0.1837186262
 C   -1.6104930082   -1.2520393103   -0.6479853519
 C   -1.1864877329   -1.5093797181    0.7617879772
 C    0.0356842755   -2.3283315776    1.0504018084
 C    0.4705673585   -2.5674462203    2.4606940309
 N   -0.0352634745   -3.6651307327    1.6490459305
 C   -1.3223367382   -4.2460603426    2.0050009962
 H    0.9252733391    2.1383439407   -1.2675513021
 H   -0.5095960740    1.3849902962   -1.9827652845
 H   -0.6751433393    2.3856421611   -0.5325679859
 H    0.8548266360   -0.2731575975   -0.6722988748
 H    0.6710640379    0.7175117119    0.7793114146
 H   -2.6624883786   -1.2141285210   -0.9197772270
 H   -0.9533292141   -1.6341596552   -1.4302141736
 H   -1.9660841214   -1.5868220910    1.5162311740
 H    0.8094276078   -2.2635667564    0.2889685372
 H    1.5246122934   -2.6053495786    2.7248125016
 H   -0.1790951699   -2.1731135216    3.2428939202
 H   -2.0165711598   -3.5600634436    2.5140785309
 H   -1.8128443512   -4.6247485455    1.1027442553
 H   -1.1436392052   -5.0937059498    2.6744290441