17

 C   -0.1482943114    1.5996016177    0.0106350345
 C   -0.0422196955    0.0831358690    0.0023581954
 C    1.1632299468   -0.5899355480   -0.6906320707
 C    2.1095569702   -0.3617693425    0.5298901816
 O    2.5325209510   -1.7493389494    0.6181223223
 C    1.1236288024   -1.8192630238    0.2653661563
 C    0.6919410088   -0.6136129501    1.1842002938
 C    0.3521029993   -0.6331321029    2.5712057517
 C    0.0491748971   -0.6312757653    3.7359154065
 H    0.8126572583    2.0716696613    0.2411360941
 H   -0.4795235115    1.9746016269   -0.9636221528
 H   -0.8723460520    1.9349616910    0.7603069917
 H   -1.0073032564   -0.3779093322   -0.2363899461
 H    1.4555107959   -0.5990770567   -1.7395595261
 H    2.8387943997    0.4195266232    0.7374555083
 H    0.6517734847   -2.7942545397    0.1493682211
 H   -0.2102097872   -0.6363821984    4.7656450684