18

 C   -0.0030930188    1.5324109579    0.0415087418
 C    1.4939360555    1.9216769513    0.0169819544
 C    2.1336565331    0.8686851267   -0.9042174104
 C    3.2394445547   -0.0560112743   -0.3501834862
 O    2.7583564432   -0.6109487248    0.8810929384
 C    2.3369383099   -1.2177855554   -0.3475584523
 C    1.1662597265   -0.3765846383   -0.9013281185
 C   -0.0101216012   -0.0144486602    0.0215106738
 H   -0.5373915567    1.9494854262    0.9008860449
 H   -0.4973299397    1.9142417620   -0.8611232864
 H    1.6543120346    2.9480799710   -0.3243686231
 H    1.9115523335    1.8322199756    1.0244946089
 H    2.3618804452    1.2383140303   -1.9064327245
 H    4.3150830944    0.0083146904   -0.4706269502
 H    2.5403410439   -2.2762602005   -0.4654610694
 H    0.8622711217   -0.6920056292   -1.9019509937
 H    0.1821224823   -0.3940403577    1.0296978838
 H   -0.9657623120   -0.4246471208   -0.3164712914