17

 O    0.1216287965    1.4251082700    0.1910500423
 C    0.0533961569    0.0124472769    0.2378461286
 C   -1.3439452516   -0.5225346006   -0.1293334992
 C   -1.3989551019   -2.0249359234   -0.0733883473
 C   -2.0309722282   -2.7095800586    0.9713451879
 N   -2.0635975643   -4.0393260691    1.0490164570
 C   -1.4501796344   -4.6996392537    0.0654162221
 C   -0.8163071225   -4.0315282978   -0.9788916692
 N   -0.7866698539   -2.7013626932   -1.0551540075
 H    0.0258581404    1.6954963611   -0.7278058745
 H    0.8011985622   -0.4591162188   -0.4157279325
 H    0.2964698462   -0.2654126732    1.2689961006
 H   -2.0824465368   -0.0821301489    0.5474700697
 H   -1.5859929290   -0.1995431625   -1.1489034298
 H   -2.5297743002   -2.1593609406    1.7660774024
 H   -1.4661296931   -5.7854064945    0.1088955156
 H   -0.3228842064   -4.5828837230   -1.7756918260