23

 C   -0.0176266810    1.5365966430   -0.2479362861
 C   -0.0112981761    0.0331270623   -0.0395637985
 C   -1.2610497272   -0.6548780645   -0.5593084860
 C    1.2983817086   -0.7103368735   -0.1665958983
 C    0.6393929202   -0.5728696109    1.1917860620
 C    1.2738393454    0.2311042248    2.2925030769
 C    0.4191482717    0.5826685443    3.5354623430
 O    1.3868084136   -0.0063656398    4.4264676658
 C    2.1562355003   -0.5207251032    3.3210077583
 H    0.9092980649    2.0098022009    0.0853320956
 H   -0.1391749048    1.7728563613   -1.3116187759
 H   -0.8485741530    2.0096016089    0.2892606463
 H   -1.3860697777   -0.4827199391   -1.6351290969
 H   -1.2206242266   -1.7366327168   -0.3979222095
 H   -2.1593749249   -0.2756815100   -0.0574873565
 H    1.3035166575   -1.6846548353   -0.6443864301
 H    2.1956067937   -0.1255130164   -0.3471344346
 H    0.1478155495   -1.4731837503    1.5580737139
 H    1.7869287398    1.1081701213    1.8928255364
 H    0.2596170928    1.6471318818    3.7446281321
 H   -0.5488888364    0.0633349816    3.5790224370
 H    2.0948788502   -1.6160631016    3.2518600227
 H    3.2109260697   -0.2275506387    3.3807162522