20

 N    0.0300206717    1.3275859272   -0.0184624690
 C    0.1961926731   -0.0235927638   -0.1420105720
 O    1.2933114255   -0.5275472524   -0.2913328544
 C   -1.0984702766   -0.8316413495   -0.0539037204
 C   -0.8834539509   -2.3452536954   -0.1649949749
 C   -2.1843429163   -3.1609702238    0.0711994228
 C   -2.1084480964   -4.3677002407   -0.8979685962
 C   -1.1006757727   -3.9090159514   -1.9261546089
 C   -0.4368706674   -2.8247513389   -1.5308822112
 H    0.8368909999    1.9179526016   -0.1364526191
 H   -0.8789768198    1.7544947968    0.0135046135
 H   -1.5876352222   -0.5900230836    0.8994620437
 H   -1.7831822681   -0.4891115672   -0.8418163615
 H   -0.1146103146   -2.6164132604    0.5710851049
 H   -2.3104981471   -3.4580434397    1.1158947403
 H   -3.0491218604   -2.5411512991   -0.1937624237
 H   -1.7547818596   -5.2762695182   -0.3898763439
 H   -3.0832900700   -4.6211759201   -1.3303082156
 H   -0.9230212715   -4.4488285387   -2.8502576789
 H    0.3706312133   -2.3393171926   -2.0645080954