17

 C    0.1829332255    1.5124207108    0.1594464499
 C   -0.2055993630    0.0611717058   -0.1488347760
 C    0.5884905746   -0.4959168583   -1.3106231042
 C    1.9232053544   -1.1277167944   -1.1222044721
 C    0.7313376217   -2.0240314663   -1.5084405806
 C    0.1959973982   -2.9054981288   -0.5012506963
 N   -0.2304838209   -3.5948439360    0.3230269544
 C    0.6821280341   -2.5252555946   -2.8591404739
 N    0.6526305489   -2.8955249678   -3.9538699442
 H    1.2411423040    1.5920511860    0.4283533566
 H    0.0072921520    2.1634076951   -0.7033602860
 H   -0.4070170179    1.8989198192    0.9949076876
 H   -0.0517306724   -0.5643151623    0.7369121788
 H   -1.2741640832    0.0030528401   -0.3858574887
 H    0.4460040677    0.0244592334   -2.2537461464
 H    2.6874470246   -1.0072417524   -1.8803410527
 H    2.2900675917   -1.2629478194   -0.1107945462