13

 N    0.0330159094    1.2721444885    0.0091589963
 C    1.1263692954    2.0593091850    0.0025845501
 C    2.3391645838    1.4223831874   -0.0127764517
 C    3.7113225054    1.7222529239   -0.0245972252
 C    4.3330449921    0.4727703239   -0.0376916972
 N    3.4805823993   -0.5946542658   -0.0350544245
 C    2.2704416865   -0.0450391562   -0.0199274567
 N    1.1073789684   -0.7303770138   -0.0121683277
 N   -0.0103277737   -0.0927930449    0.0022660573
 H   -0.8942590810    1.6705947452    0.0204691205
 H    0.9552798185    3.1307360631    0.0100570659
 H    4.1825885756    2.6931102019   -0.0239213998
 H    5.4022460204    0.2966820919   -0.0492634471