17

 C    0.0003007525    1.4187494615    0.0209416287
 C    0.0092359069   -0.0352124992    0.0192737212
 C    0.0107303456   -1.2402482797    0.0184453723
 C    0.0295346620   -2.6674001339    0.0212456078
 N    0.5933650054   -3.5124071202    1.1387059741
 C    0.1332132615   -4.5186011387    0.1316780914
 C   -1.1400569373   -3.6861892542   -0.2180467144
 N   -0.9272185600   -3.6833159461   -1.7003833097
 C    0.4586959463   -3.6548407777   -1.1342633421
 H    0.7044321588    1.8233838543   -0.7144466861
 H   -0.9948452181    1.8078737692   -0.2209303121
 H    0.2812027395    1.8128039479    1.0038235414
 H    1.6152801861   -3.4463884625    1.1348199334
 H    0.2242433382   -5.5964047800    0.2719590748
 H   -2.1181709573   -3.6930895809    0.2617685195
 H   -1.1291354897   -4.6115239050   -2.0817981646
 H    1.3637949796   -3.6216801150   -1.7443564256