18

 C   -0.0610289664    1.5134372298    0.0282135263
 C    0.0209756838   -0.0256637797   -0.0205654850
 C    0.7982944344   -0.5321721094   -1.2462067183
 N    2.2342587120   -0.3114137171   -1.1432764513
 C    2.7461141669   -0.3307522610    0.0090627995
 C    4.2049682834   -0.1462056795    0.2785647737
 O    2.0649314446   -0.5627877480    1.2025809503
 C    0.6849366231   -0.5378222140    1.2404865623
 O    0.1331554863   -0.8692558244    2.2471823818
 H    0.9329392558    1.9694868874    0.0131368639
 H   -0.6116111645    1.8798109053   -0.8432889120
 H   -0.5812255399    1.8469175317    0.9297335529
 H   -0.9934663052   -0.4328980000   -0.0194297624
 H    0.6240009188   -1.6075042292   -1.3920102847
 H    0.4331243939   -0.0340758634   -2.1503500931
 H    4.3636327164    0.7122530109    0.9391273471
 H    4.6061632957   -1.0255139278    0.7923981083
 H    4.7332287410    0.0062704383   -0.6615769492