20

 C   -0.0251876174    1.3981966890   -0.1200996819
 N   -0.0419395779   -0.0536670196   -0.1896453185
 C   -1.1107589524   -0.6740978081    0.0545789757
 O   -2.3175304046   -0.0804737834    0.3529717462
 C   -3.2202996008   -1.0359768871    0.9348423540
 C   -2.6537975967   -2.4029353608    0.6081158007
 C   -2.3678415252   -2.6559548440   -0.8434034045
 C   -1.2578180772   -2.1593287916    0.0692158250
 C   -0.0401647691   -2.9982173767    0.3575499140
 H    0.9349863958    1.7233004449    0.2931644644
 H   -0.0970376889    1.8194802783   -1.1309088971
 H   -0.8382822122    1.8224296501    0.4809827747
 H   -3.2682093851   -0.8706731898    2.0186155310
 H   -4.2123696591   -0.8531690114    0.5090405890
 H   -2.8680770429   -3.2293773671    1.2748702486
 H   -2.2928362119   -3.6893091659   -1.1640016130
 H   -2.7818510225   -1.9796169232   -1.5850924606
 H    0.7331094888   -2.8067565715   -0.3915122276
 H    0.3845648192   -2.7563650736    1.3368176684
 H   -0.2856564296   -4.0642153085    0.3413819914