12

 O   -0.1172283049    1.3534294403   -0.0843614679
 N    0.0541336696   -0.0390271315   -0.0614740708
 C   -1.0760378130   -0.6520033734    0.0636045329
 C   -1.1363514949   -2.0931026012    0.1099660491
 C   -2.3354006097   -2.6743543325    0.2407137955
 O   -3.5130945876   -2.0074523681    0.3342548072
 N   -3.5191151601   -0.6115814512    0.2955067230
 C   -2.3884758418   -0.0144072388    0.1708335451
 H    0.7878448674    1.6672300779   -0.1795325449
 H   -0.2342058733   -2.6858284324    0.0406208413
 H   -2.5072248671   -3.7428113276    0.2872076253
 H   -2.4623738947    1.0664407086    0.1474359741