19

 C   -0.1100601725    1.4114751136    0.0307421186
 N   -0.1192160036   -0.0297066953    0.0373143942
 C    0.1446406124   -0.7528205510   -1.1137237320
 O    0.1989551873   -0.3163351100   -2.2442655279
 N    0.3446206110   -2.0750963847   -0.7267046814
 C   -0.0957753895   -2.2775267959    0.6465273958
 C    0.0022830878   -0.8584717853    1.2087184170
 C    0.9314960458   -0.5248389040    2.3503252358
 C   -0.5773352635   -0.4932078820    2.5383750692
 H    0.7935100092    1.8275543299    0.4969837231
 H   -0.1361077049    1.7230655817   -1.0149450837
 H   -0.9874597089    1.8173571944    0.5461933982
 H    0.1498764502   -2.7694590728   -1.4307146878
 H   -1.1313683530   -2.6466626849    0.7017787583
 H    0.5495632615   -2.9771877726    1.1858539851
 H    1.4943043241   -1.3353259306    2.8013739696
 H    1.4513828473    0.4263725873    2.3364712596
 H   -1.0470262305    0.4779622417    2.6483582268
 H   -1.0466901401   -1.2797175391    3.1210914813