20

 O   -0.1744174674    1.3693991073   -0.7215614617
 C   -0.0009539044    0.1693095592    0.0201001286
 C   -1.3445988153   -0.5069755622    0.1077258857
 C   -1.8361581327   -1.3943450390   -1.0085406416
 C   -1.5087703113   -1.9920363752    0.3409258163
 C   -0.3453786222   -2.9453651170    0.5183029504
 C   -0.7540980035   -4.3924393128    0.1633504470
 C    0.3443594367   -5.3419900287    0.3248337421
 N    1.2275050726   -6.0753849118    0.4583029019
 H    0.6591867847    1.8493077154   -0.7119608184
 H    0.7331070166   -0.4906246153   -0.4669381140
 H    0.3755524681    0.3829087028    1.0336070354
 H   -2.0940513579    0.1216132534    0.5806726644
 H   -2.8726011274   -1.3234021638   -1.3182377224
 H   -1.1422397901   -1.5870640963   -1.8217922859
 H   -2.3687932721   -2.2535395024    0.9543992767
 H    0.4984456894   -2.6571323099   -0.1151225839
 H    0.0167652847   -2.9232781684    1.5526069265
 H   -1.5893999754   -4.7157669553    0.7955118063
 H   -1.1092029230   -4.4365721000   -0.8722998734