18

 C   -0.0712687472    1.5561313879   -0.0411882813
 C    0.0115378185    0.0453908638   -0.0382577732
 C   -1.1807187496   -0.6603231308    0.5818734636
 C    0.6716974979   -0.7221619065   -1.1879936146
 N    1.6258950201   -0.0478692396   -2.0093139536
 C    2.6747483765    0.4740296251   -1.2809435811
 O    3.5651767984    1.1811494133   -1.6573669521
 O    2.5357653710    0.0525144328    0.0243491615
 C    1.3309118724   -0.6698984176    0.1677095076
 H    0.7893454959    2.0309058991   -0.5155085136
 H   -0.9712405686    1.8868595395   -0.5716744126
 H   -0.1305079356    1.9361356366    0.9843601587
 H   -2.1019925966   -0.4129013302    0.0427749141
 H   -1.0657119194   -1.7492001104    0.5598167964
 H   -1.3110944538   -0.3611953888    1.6277233786
 H    0.2135579678   -1.6163090765   -1.5972109435
 H    1.4150068540    0.3601457241   -2.9044685511
 H    1.4262182383   -1.5119128319    0.8425916861