20

 C    0.2122205846    1.6615148992    0.0926302901
 C    0.1336656445    0.1343131413    0.1371112332
 C    0.6669650121   -0.5803082954   -1.1257914722
 C    1.1591737768   -1.9493200379   -0.6093545275
 N    1.5474055390   -1.7974714956    0.8114159605
 C    2.4161224029   -0.6620659417    1.0709756007
 C    0.9345290699   -0.5129552124    1.2620498596
 C    0.3931099039   -0.5146728471    2.6445381707
 O   -0.5602104753    0.1355382824    2.9996797907
 H    1.2453670746    2.0013042096   -0.0420787269
 H   -0.3812372128    2.0579239219   -0.7375788114
 H   -0.1730614063    2.0916134474    1.0205334946
 H   -0.9133436407   -0.1487657129    0.3009630452
 H   -0.0969686314   -0.6823721750   -1.9005208258
 H    1.4878842731   -0.0054927668   -1.5678507834
 H    0.3534248815   -2.6899471510   -0.6376484283
 H    2.0009754569   -2.3529274015   -1.1801415087
 H    3.0610916629   -0.7717706976    1.9389889085
 H    2.8659124124   -0.1212036598    0.2419323711
 H    0.9437469513   -1.1796216672    3.3460821493