17

 N   -0.3384044199   -1.1834665366   -0.2248870489
 C   -0.1802143302   -0.0422796178   -0.1304900148
 C    0.0042780806    1.4080085134   -0.0025721726
 C   -0.6664273571    1.9419668186    1.2769278127
 C   -0.1647403884    1.2757373798    2.5500823541
 O    1.1639822463    1.6192216905    2.9529877762
 C    2.2440865523    1.3748626665    2.1645313635
 N    2.4276853626    1.3900183076    0.9181766774
 C    1.4980630779    1.8047698732   -0.1049581204
 H   -0.4922523315    1.8633158533   -0.8690471581
 H   -0.5066378694    3.0245823812    1.3317099273
 H   -1.7473070639    1.7727617297    1.2194916048
 H   -0.7855628508    1.5779460974    3.3964537393
 H   -0.2306719585    0.1848568137    2.4517445606
 H    3.0995826704    1.1751842000    2.8111454653
 H    1.8792370420    1.4385908194   -1.0634260420
 H    1.5258075776    2.9027809502   -0.1606799143