18

 O    0.4762210156   -0.7338358823    1.1785025725
 C    0.0910056054   -0.1696826685   -0.0444347491
 C   -1.3750571619   -0.2490492267   -0.3241466525
 C   -0.7405560739    1.0942852976   -0.0054176934
 C    1.1106783770   -0.3715699328   -1.1529975537
 C    2.3595193926    0.4521636534   -0.9167882971
 O    3.0572210189    0.2002127155    0.3193221665
 C    3.7064820914   -0.1309318378   -0.9126190724
 H    1.3928144127   -0.4702257485    1.3358297311
 H   -1.7061000994   -0.4400739389   -1.3394241921
 H   -1.9834720063   -0.7061853971    0.4477087600
 H   -0.9351827325    1.5148280727    0.9741261740
 H   -0.6437399888    1.8217872240   -0.8052972717
 H    1.3667554164   -1.4363246278   -1.1999742111
 H    0.6822830816   -0.0896436046   -2.1214035243
 H    2.2682901603    1.5160188037   -1.1374176010
 H    3.8266358364   -1.1959580765   -1.1048047305
 H    4.5698161346    0.4862664146   -1.1546486453