18

 C    0.0667022010    1.4173083557    0.2246964996
 O    0.0558556886    0.0224016762    0.0161524363
 C    0.5892688655   -0.6847613222    1.0914394723
 C    0.5410001466   -2.1691271232    0.7877122178
 O    0.1199922401   -2.6880375443   -0.2030756667
 O    1.0726765203   -2.8379759388    1.8627066350
 C    1.1288606417   -4.2113535164    1.8035751164
 N    1.6119884689   -4.8299998450    2.7801132589
 C    1.6587762864   -6.2766805381    2.6896496033
 H    1.0893564015    1.8008431251    0.3645993239
 H   -0.3667143413    1.8774134247   -0.6654361712
 H   -0.5320785156    1.7029927556    1.1035249027
 H    1.6388179019   -0.4124595541    1.2978632737
 H    0.0344945494   -0.5100201551    2.0295329655
 H    0.7307877423   -4.6270785020    0.8755059749
 H    1.0981232837   -6.7074107747    3.5262006643
 H    1.2542082501   -6.6817411530    1.7495504019
 H    2.6966348988   -6.6100869305    2.7963315112