18

 C    0.0337592077    1.4841383793   -0.0160507724
 C   -0.0573445915   -0.0176446474    0.1049769496
 C   -1.4108117228   -0.6660187982    0.0499878061
 C   -1.3072604970   -1.9139463648    0.5266503422
 C    0.1298190671   -2.1529110646    0.8913392720
 C    1.0838242591   -2.0716957264   -0.3496771499
 C    1.8871594457   -0.9763030138    0.2248345874
 C    0.7193507181   -0.7450754650    1.2327495181
 N    0.9470521069   -0.6920824441   -0.8948106771
 H    1.0709725361    1.8215167215    0.0730561073
 H   -0.3427760450    1.8156280227   -0.9890979310
 H   -0.5568446365    1.9717833809    0.7665723274
 H   -2.2879679658   -0.2070337992   -0.3907713765
 H   -2.0863708615   -2.6666229413    0.5480200738
 H    0.3683320216   -2.9679166040    1.5737719543
 H    1.3439882788   -2.8592799776   -1.0447655455
 H    2.9411742315   -0.7358926303    0.2118513833
 H    0.7530436075   -0.3778453577    2.2584262709