24

 C    0.0490516264    1.5605400490    0.2575558938
 C    0.0611471178    0.0331415135    0.4219734753
 C    0.6221470014   -0.3338073691    1.8045183762
 C   -1.3395628380   -0.5908356455    0.2072944734
 C   -2.0378095622   -0.1046569112   -1.0818983835
 C   -1.3414474909   -2.1125921221    0.1932092698
 C   -2.6003553970   -2.8422911846    0.5864083092
 N   -0.2798858067   -2.7062471673   -0.1958712819
 O   -0.4354084747   -4.1050903046   -0.2059566780
 H    1.0351899015    1.9737535898    0.4932729086
 H   -0.2012637687    1.8714618796   -0.7600451604
 H   -0.6728205956    2.0280386379    0.9393757760
 H    0.7274540649   -0.3911288980   -0.3378305846
 H   -0.0041240718    0.0836853182    2.6030892610
 H    0.6771440693   -1.4153837568    1.9430757681
 H    1.6302612243    0.0736923062    1.9331675569
 H   -1.9703998599   -0.2862127185    1.0562214947
 H   -1.4031274102   -0.2944102039   -1.9538411165
 H   -2.9841519236   -0.6318128971   -1.2399216129
 H   -2.2607382742    0.9641191428   -1.0401932166
 H   -2.8592415298   -3.5993057242   -0.1587302477
 H   -2.4471221400   -3.3748272499    1.5320567534
 H   -3.4378944031   -2.1530079629    0.7110070320
 H    0.4256239807   -4.3990129313   -0.5205861860