18

 C   -0.2122815902    1.5055361176   -0.2225279500
 C   -0.0424286676    0.0046234234   -0.0312418345
 N    0.8388835096   -0.4897659657   -1.1687108331
 C    1.6331250268   -1.2437669622   -0.5344047060
 O    2.9476374117   -0.8685245006   -0.2407371945
 C    2.3630917609   -0.7876928919    1.1525951501
 C    3.3575358424   -0.5544497727    2.2402167052
 C    0.7769443140   -0.4152410371    1.2230457592
 C    1.3137545790   -1.7697324623    0.8990819544
 H    0.7631258942    1.9918454069   -0.3053870619
 H   -0.7800232573    1.7170085717   -1.1319745030
 H   -0.7497032958    1.9301900030    0.6337571857
 H   -1.0299579068   -0.4816524207    0.0027712743
 H    3.8223091621    0.4304618933    2.1392749799
 H    2.8620859889   -0.6039517453    3.2137315555
 H    4.1432805594   -1.3151253645    2.2050072101
 H    0.4223630875   -0.1649348646    2.2216173612
 H    1.1042504613   -2.7694886284    1.2561545972