21

 C   -0.0879139952    1.5570334301   -0.3092458220
 C   -0.0887463645    0.1471673792    0.2933050087
 C   -1.4294815615   -0.5345909721    0.1345029721
 C   -1.7818949750   -1.2576062766   -1.1360351403
 O   -0.8400914010   -1.3541683930   -2.1570060186
 C   -1.5704154651   -2.0646164770    0.1435131376
 C   -0.4218224400   -2.9195492420    0.1949058034
 C    0.5417423139   -3.6467249978    0.1662393711
 C    1.7021992497   -4.5268838977    0.1853536628
 H    0.8804488687    2.0463837903   -0.1648533660
 H   -0.2910487982    1.5136778291   -1.3833275170
 H   -0.8530443295    2.1904147102    0.1536899559
 H    0.6845119365   -0.4565416092   -0.1890431878
 H    0.1703174818    0.1914284205    1.3583624531
 H   -2.2581097406   -0.0221373755    0.6187432300
 H   -2.8007498235   -1.1865259701   -1.5100777930
 H   -0.3143394913   -2.1499862431   -1.9987553423
 H   -2.4627555710   -2.4607951993    0.6193182137
 H    1.8774801683   -4.9252898693    1.1908653970
 H    1.5736467909   -5.3792524726   -0.4910310116
 H    2.6094840265   -3.9943820440   -0.1204670771