18

 C   -0.0120999550    1.5202685660   -0.0246767384
 C    1.5339671438    1.7782965410   -0.0293005693
 C    2.0275359883    0.3285335655    0.0263667765
 C    1.0974060118   -0.3841896271   -0.9984445602
 O    1.3325488490   -1.7946496995   -1.0827814595
 C    1.4329008455   -2.3742869628    0.1358919987
 N    1.3348360144   -1.7667849894    1.2421178068
 C    1.0956412777   -0.3361197061    1.0976715559
 C   -0.0077943843   -0.0111489865    0.0324444405
 H   -0.5095326104    1.9614778037    0.8433184431
 H   -0.5059648061    1.9034821781   -0.9227242499
 H    1.8713881471    2.3002387033   -0.9298382078
 H    1.8662052016    2.3579787669    0.8362089500
 H    3.1006879213    0.1378402732    0.0326167387
 H    1.0339234308   -0.0221947372   -2.0259598661
 H    1.6111676709   -3.4435500763    0.0617055386
 H    1.0193864270    0.1383437346    2.0780401445
 H   -0.9608046835   -0.5399950374    0.0447446179