19

 C    0.0225964864    1.5056089908    0.0875096862
 C    0.0108593003    0.0114657668   -0.0008233292
 C    0.0207892254   -0.7441950037   -1.1046296540
 C   -0.0422822664   -2.2256643419   -0.8146223265
 C   -0.0089192309   -2.2966401384    0.7091629735
 C    1.2007105578   -1.7266170567    1.4316958602
 C    0.0115783810   -0.8402696029    1.2323055063
 C   -0.8229780648   -3.3002393431    1.4187943283
 O   -1.5295884515   -4.1215867971    0.8846075943
 H    0.9016831367    1.8671779623    0.6354588901
 H    0.0252473014    1.9636522969   -0.9049308250
 H   -0.8568926136    1.8764495075    0.6291255540
 H    0.0774192245   -0.3537143219   -2.1151047397
 H   -0.9640651794   -2.6880271881   -1.1878417131
 H    0.7873096480   -2.7794546701   -1.2720596014
 H    1.3884836729   -2.1052594077    2.4323487001
 H    2.0892388929   -1.5408559654    0.8375423601
 H   -0.5724401949   -0.5450854883    2.0989115467
 H   -0.7456040658   -3.2454796289    2.5307387992