17

 O   -0.0312500011    1.4210313684    0.2322974064
 C    0.0759189670    0.0184514464    0.0439494951
 C    0.6398241457   -0.6124907438    1.3403643185
 C   -0.1693687796   -1.6100780741    1.7390850069
 C   -1.3191602725   -1.2679743936    2.6945735689
 C   -2.1015879669   -1.1104979110    1.3340102868
 C   -1.3004708558   -0.6432964006    0.0226959601
 C   -1.1617539366   -2.0012530492    0.6136348975
 O   -1.4067440130   -3.2448123805    0.0742211627
 H    0.8378510037    1.8110106863    0.0908007739
 H    0.6086655175   -0.1944618878   -0.8974047082
 H    1.1314517164    0.0622363462    2.0375876613
 H   -1.7654277164   -2.0941921909    3.2585705943
 H   -1.1752125626   -0.3965797442    3.3384925954
 H   -3.1858770181   -1.1066661674    1.2549581345
 H   -1.9693214373   -0.4809206690   -0.8198414706
 H   -0.6806510602   -3.4649817651   -0.5203136836