19

 C   -0.0185659532    1.5860468184    0.0532257844
 C    0.0544929037    0.0596364211   -0.0131165151
 N    0.7949036779   -0.3857170736   -1.2091507587
 C    1.7087256471   -1.2089855520   -0.8531345489
 N    2.4976397262   -1.9091866114   -1.7349857974
 C    1.8313320481   -1.4356107376    0.6380958000
 C    2.4020769701   -2.6852335921    1.2427281433
 O    2.1443369801   -0.1813893432    1.2876862338
 C    0.7688492224   -0.5767033138    1.1780648566
 H    0.9841321211    2.0004637008    0.1859502942
 H   -0.4391545701    1.9812203133   -0.8746485119
 H   -0.6466486403    1.9131098607    0.8884096829
 H   -0.9667088320   -0.3451424367   -0.0670181022
 H    2.4451114570   -1.5737850486   -2.6870782268
 H    3.4359440965   -2.1202207073   -1.4301261948
 H    3.4692552990   -2.7853740100    1.0124406593
 H    2.2998492528   -2.6598000371    2.3300543877
 H    1.8907766144   -3.5726284188    0.8573774671
 H    0.2630563893   -0.7765981021    2.1196272465