13

 O    0.2812353968    0.3210377651   -2.0635684576
 C    0.0448230542    1.2360361166   -1.3028038678
 C    1.0896219971    1.9246606207   -0.5736034454
 C    2.0057681256    2.4588527647    0.0153197016
 C    3.0222062849    3.0646614710    0.6796931020
 C    3.9279798627    3.6020507776    1.2705795856
 C   -1.3616267790    1.7065237346   -1.0659307941
 C   -1.8347636033    2.0095111461    0.3013086953
 O   -1.5395888355    3.0483434571   -0.6181776071
 H    4.7233794111    4.0775627831    1.7903522604
 H   -2.0699786167    1.3451376526   -1.8085819670
 H   -2.8888597564    1.8574371763    0.5264852580
 H   -1.1462343614    1.9169570545    1.1389239361