23

 C   -0.0111310143    1.5280213154    0.0444595166
 C   -0.0352008093    0.0018941055   -0.0437102845
 C   -1.4744011064   -0.5160981323    0.1053760564
 C    0.6328024217   -0.4720724312   -1.3480369478
 C    0.7400880670   -2.0036785861   -1.4286314381
 C    1.1527247595   -2.6254392607   -0.1056829059
 C    2.4193982270   -2.2293117704    0.6231572404
 C    1.0757639981   -1.7915392165    1.1487203424
 O    0.7681201563   -0.4288121391    1.0722340993
 H    1.0146768943    1.8984808259   -0.0350892838
 H   -0.6069364019    1.9725001105   -0.7586690967
 H   -0.4191492936    1.8586787823    1.0038601851
 H   -2.0996149906   -0.1764069862   -0.7269956713
 H   -1.5121285260   -1.6078114473    0.1333986764
 H   -1.9084721727   -0.1398970397    1.0362981458
 H    0.0764258725   -0.0924409518   -2.2120850755
 H    1.6302034482   -0.0190151113   -1.3903876323
 H   -0.2353044430   -2.4167258060   -1.7117376535
 H    1.4347760512   -2.2906344000   -2.2270286651
 H    0.8638076357   -3.6666760950    0.0074178950
 H    2.9693410140   -3.0001516235    1.1522153638
 H    3.0350324378   -1.4455428628    0.1947272103
 H    0.6995552344   -2.2529173697    2.0593290831