10

 C    0.0212975624   -1.1916943387   -0.0041184591
 C   -0.0110251765    0.0100471347    0.0029331347
 C   -0.0016392373    1.4277350116    0.0106830304
 N   -1.1299558322    2.1182112477    0.0290033194
 O   -0.7487281368    3.4466842379    0.0314809899
 C    0.5907517674    3.5279269710    0.0148110732
 C    1.1389108588    2.2898759594    0.0009586313
 H    0.0334164952   -2.2535864388   -0.0101285946
 H    1.0015696982    4.5253735291    0.0151015162
 H    2.1780122108    2.0105868259   -0.0138429214