20

 C   -0.0209027603    1.5962111991    0.0822286719
 C   -0.0457526678    0.0648046637    0.0309970771
 C    0.7939737905   -0.5682891308    1.1493723668
 N   -1.4242481422   -0.4572287226    0.0348185155
 C   -2.3447709344   -0.0036091953    1.0626244236
 C   -1.7533065254   -1.3941851808   -0.9079231378
 O   -0.9744007023   -1.8161066505   -1.7501084947
 C   -3.1250587070   -1.8933853113   -0.8834792741
 C   -4.2258954351   -2.3724788642   -0.9611878730
 H    1.0056855071    1.9482161756   -0.0547455419
 H   -0.6359419916    2.0276167512   -0.7131225679
 H   -0.3747360664    1.9852254892    1.0426717493
 H    0.3651646802   -0.2604637922   -0.9260520821
 H    0.4245814400   -0.2968279021    2.1443774177
 H    0.7905003118   -1.6581322380    1.0634318536
 H    1.8304955909   -0.2241195008    1.0788086901
 H   -2.6036231316    1.0534169013    0.9340967131
 H   -3.2613996894   -0.5895922961    1.0154943486
 H   -1.9073852790   -0.1303482737    2.0592178311
 H   -5.1970927678   -2.7979318817   -1.0323614068