22

 C   -0.0829537992    1.5616634812    0.2103920290
 C    0.0437708058    0.0447177753    0.1201333778
 C    0.7030342539   -0.5431212670   -1.1678155974
 C    0.7727467891    0.2599931901   -2.4555573701
 N    1.9697172578   -0.6808767439   -0.4183035576
 C    2.8159451526   -1.8270257697   -0.6730869116
 C    1.2696878786   -0.5929548911    0.8680250249
 C    1.9644850104    0.2336358544    1.9272937486
 O    1.6376111306    0.2596704879    3.0867172396
 H    0.8550802396    2.0669105939   -0.0378013664
 H   -0.8531057970    1.9278623287   -0.4760812536
 H   -0.3689885431    1.8639887579    1.2227306233
 H   -0.9066695177   -0.4226309452    0.3835057708
 H    0.2581358639   -1.5318196833   -1.3809646025
 H    1.1943756276    1.2534688964   -2.2844354785
 H    1.4035193244   -0.2513289597   -3.1909521251
 H   -0.2230505720    0.3722002983   -2.8981020620
 H    3.2069111372   -1.7824685922   -1.6947200756
 H    3.6717483033   -1.8199508903    0.0103844330
 H    2.2866074066   -2.7905205547   -0.5488763992
 H    0.9934561614   -1.5661883171    1.3066218400
 H    2.8061426461    0.8505638000    1.5361205025