19

 O    0.1178845475    1.3073730626    1.1033557778
 C    0.0983062680    0.3523917397    0.0494347166
 C   -1.1955608795   -0.3082116851   -0.1167886382
 C   -2.2866188403   -0.8056234541   -0.2438985745
 C   -3.5912215825   -1.4305971625   -0.4030619464
 C   -4.2070477458   -1.3079490109   -1.8332379739
 C   -5.0063005219   -2.5816486614   -1.9627520655
 C   -4.6928024889   -3.4707932510   -1.0222705731
 C   -3.6249515990   -2.9598645434   -0.0862748438
 H   -0.6408784453    1.8863841972    0.9768763949
 H    0.4004889987    0.8091512305   -0.9070844073
 H    0.8700859547   -0.3831697982    0.3030640128
 H   -4.2912182434   -0.9460398848    0.2891875613
 H   -4.8077748404   -0.3985466125   -1.9390519902
 H   -3.4212045290   -1.2551891245   -2.5984745124
 H   -5.7164578789   -2.7426495900   -2.7662705047
 H   -5.1078701426   -4.4692218588   -0.9400430652
 H   -2.6552474211   -3.4288052180   -0.2994937317
 H   -3.8376145803   -3.1492564049    0.9708932534