17

 O    0.6698151445    0.0016985953    0.2743029076
 C    0.3892328504    1.1452826848    0.0179343902
 C    1.2622287741    2.0921304624   -0.8003604296
 N    2.5674835973    1.5850490033   -1.1416137279
 C    3.6057406262    1.8357881214   -0.1703104578
 C    3.7329935860    1.0876992070    1.1443054241
 C    4.7052973447    0.8368725203    0.0110504095
 C   -0.9080786037    1.7164866594    0.4412057748
 N   -1.9053125518    2.2051919601    0.7642967381
 H    0.6749480805    2.3236261071   -1.7049248706
 H    1.3490635856    3.0426896601   -0.2609436044
 H    2.5128585644    0.5983439382   -1.3680112397
 H    3.8992591029    2.8830093277   -0.1550720002
 H    4.0846055262    1.6302080140    2.0155635117
 H    3.0070595500    0.3108418415    1.3517948007
 H    4.6191795225   -0.1069683394   -0.5186433527
 H    5.7232625703    1.1989915768    0.0979872863