18

 C   -0.0397623493    1.4044902676    0.1108741374
 O    0.0143775834   -0.0254846214    0.1228467825
 C    0.7135857601   -0.5579783695    1.1244361507
 N    1.3268775671    0.0784923262    2.0590649255
 C    1.8236682445   -0.9428892668    2.9516766855
 C    0.7986460181   -1.8085673302    3.6693344581
 N   -0.5706915678   -1.4033143923    3.7898939380
 C    1.4343081522   -2.3042849743    2.3710167200
 N    0.8036167319   -1.9351551513    1.1322981450
 H    0.9625294034    1.8254887398   -0.0016255173
 H   -0.6648595568    1.6692910772   -0.7422870983
 H   -0.4747601176    1.7806662386    1.0408007503
 H    2.7755189511   -0.7441686178    3.4292466735
 H    1.2056073913   -2.3082531590    4.5469236360
 H   -0.6858076659   -0.4482365997    3.4661773996
 H   -1.1927727426   -1.9872073695    3.2411919939
 H    2.0703052971   -3.1817365516    2.3530128023
 H    0.0751295999   -2.4882597260    0.7084578771