19

 C    0.0237994103    1.4936755341    0.1651433229
 C    0.0486437197    0.0469818659    0.0043144702
 C    0.0705640781   -1.1480786292   -0.1355493713
 C    0.0869818489   -2.5961364627   -0.2933816519
 C   -1.2923433268   -3.2316432872   -0.1262976962
 O   -2.1492139078   -2.8667580060   -1.1925619319
 C   -2.9407856727   -4.0018131755   -1.5306884568
 C   -2.4411639178   -5.1045691413   -0.5758317958
 O   -1.1644785770   -4.6328926679   -0.1759594857
 H    0.9400451521    1.8585445560    0.6426929547
 H   -0.0708077542    2.0009373086   -0.8013909752
 H   -0.8208781285    1.8095016351    0.7874797566
 H    0.4603553985   -2.8818482857   -1.2834141707
 H    0.7505738939   -3.0563658354    0.4487623048
 H   -1.7480710029   -2.9242471500    0.8328663008
 H   -4.0061413842   -3.7833333257   -1.3916050090
 H   -2.7690925571   -4.2546884548   -2.5833665648
 H   -3.1073973504   -5.2104666419    0.2933271553
 H   -2.3195944422   -6.0802834164   -1.0506737060