14

 N   -0.0169848333    1.3893179683   -0.1278169532
 C   -0.0102937033    0.0196425081   -0.0479178936
 C   -1.1969023598   -0.7312731446   -0.0274827248
 C   -1.1269421021   -2.1112403717   -0.0018555759
 C    0.1247935457   -2.7363818046    0.0037157749
 N    1.2628081450   -2.0553298681   -0.0081363963
 C    1.1979546576   -0.7186120720   -0.0303202124
 C    2.4327036577    0.0126776934   -0.0276664578
 N    3.3740232995    0.6881291312   -0.0173912939
 H    0.8437077415    1.8734575983    0.0795800041
 H   -0.8539070121    1.8705360376    0.1582245261
 H   -2.1546156454   -0.2202206311   -0.0369193235
 H   -2.0329854594   -2.7070036216    0.0139292382
 H    0.2071997485   -3.8188488332    0.0220341181