18

 O    0.1463229708    1.4625122527   -0.1311943988
 C    0.0272411546    0.0740360382    0.0355963360
 C    0.2314312381   -0.5771995371    1.4192496140
 C   -0.4758545822    0.1659847145    2.5641974765
 C   -1.7672757774   -0.5430776506    2.1249431557
 C   -2.4572233646    0.1164405006    0.9128002486
 O   -2.6124709155    1.5095910651    0.8428752730
 C   -1.3872047101   -0.5276694798    0.0165478300
 N   -0.9945089817   -1.4786841049    1.1747533908
 H    1.0747080797    1.6716192338   -0.2742434834
 H    0.6312382853   -0.4698736648   -0.7051387633
 H    1.1918573772   -1.0557057348    1.6250736242
 H   -0.1337890738   -0.1593945309    3.5487595694
 H   -0.4750990106    1.2576787842    2.5135492223
 H   -2.3996610798   -0.9943876538    2.8931609235
 H   -3.4084973308   -0.4009588474    0.7211967853
 H   -3.4183043217    1.7482085359    1.3116792031
 H   -1.7279258675   -0.9556162109   -0.9277707470