19

 O   -0.0294655839    1.3165672482    0.0153019681
 C    0.0325212768   -0.0876198938   -0.0009676220
 C    1.1282966754   -0.6670078691   -0.8252125904
 C    1.0036721399   -1.8290808471   -1.4672206469
 C   -0.2461307306   -2.6711150246   -1.3676924941
 C   -1.1148366688   -2.2443768584   -0.1815839221
 C   -0.3932779256   -2.2608876820    1.2158665941
 C   -0.5085285156   -0.7405376772    1.2736281416
 C   -1.3198967422   -0.7211852246   -0.0224705981
 H    0.6771274302    1.6368731542    0.5865380582
 H    2.0394887031   -0.0787190862   -0.9046629503
 H    1.8172473068   -2.2029694999   -2.0832709985
 H   -0.8146340843   -2.6135524240   -2.3083879902
 H    0.0290841422   -3.7285045478   -1.2550428077
 H   -2.0538118551   -2.8015848668   -0.1651469401
 H   -1.0004245569   -2.7514648700    1.9804809557
 H    0.6162390139   -2.6839787257    1.2388101230
 H   -0.6434942474   -0.1296607008    2.1593007391
 H   -2.2005340581   -0.1471828943   -0.2817331296