18

 O    0.2129789229   -0.4139466367    0.3322231702
 C    0.0162174361    0.7779627257    0.2489067972
 N    0.9693973910    1.7133656794   -0.0388876526
 C    2.3466647334    1.3765641277   -0.2866830314
 C    3.0738944022    1.9712834165   -1.5170451328
 C    4.3576867587    2.0742357276   -0.6523790175
 C    3.4898155374    1.9400846464    0.6423350272
 C    3.1623351704    3.2757948928    1.2491170472
 O    3.1500761883    3.5161153326    2.4287277425
 H   -0.9790626993    1.2402824970    0.3970130951
 H    0.6786615108    2.6772384851   -0.0903828620
 H    2.3932242447    0.2870424561   -0.2818299736
 H    3.1043468706    1.3614379928   -2.4221923293
 H    2.6826118154    2.9597551368   -1.7792359051
 H    5.0172614286    1.2129565804   -0.7734884455
 H    4.9526512478    2.9849803271   -0.7497491923
 H    3.8382632380    1.2710032280    1.4304066566
 H    2.9236198832    4.0781550047    0.5072296361