18

 C    0.0001056084    1.4801077092   -0.0818086125
 C   -0.0717470270   -0.0329146304    0.0359027399
 O   -0.1175787727   -0.6110987500    1.1075547487
 N   -0.0813950923   -0.7128670745   -1.1462355505
 C   -0.0927154655   -2.1506848537   -1.1765566302
 C    0.1223274857   -2.6487811535   -2.5894468867
 O    0.2549551909   -1.8894965907   -3.5282404708
 C    0.1669556596   -4.1495215143   -2.8250290878
 O    0.3486376161   -4.4518003789   -4.1750401543
 H   -0.8366039311    1.9152423585    0.4702847089
 H    0.9209538723    1.8267514603    0.3952951991
 H   -0.0242237608    1.8407243902   -1.1130455661
 H    0.0118996039   -0.2498421115   -2.0371494163
 H    0.6818888488   -2.5658012829   -0.5170859827
 H   -1.0412041756   -2.5604829441   -0.7984907413
 H    0.9786018366   -4.5677608778   -2.2062755673
 H   -0.7683145637   -4.5875964526   -2.4392653141
 H    0.4173159562   -3.5962421032   -4.6262458560