21

 C    0.0759573299    1.5664512024   -0.1835746389
 C    0.0189573667    0.0566933269    0.0719228256
 C   -1.4035058568   -0.5213816833    0.1272585177
 C   -1.4429218370   -2.0454978462   -0.0952198142
 C   -2.8791318425   -2.5815188325   -0.1269279758
 C   -3.7012817245   -2.0504201483    1.0119189859
 C   -3.3517243100   -0.9723896948    1.7240690006
 C   -2.1353222903   -0.1799990938    1.4307136504
 O   -1.7664372137    0.7000702957    2.1850280352
 H    1.1131600185    1.9120793940   -0.2394242172
 H   -0.4086856336    1.8233292903   -1.1329915292
 H   -0.4249903327    2.1123609017    0.6175200634
 H    0.5689832710   -0.4657846509   -0.7210601645
 H    0.5317321148   -0.1748862524    1.0128687843
 H   -2.0028464512   -0.0590538498   -0.6755660519
 H   -0.9250856349   -2.2958070263   -1.0271086582
 H   -0.8914148994   -2.5404379606    0.7149717017
 H   -3.3670800583   -2.3035353306   -1.0745464331
 H   -2.8854039065   -3.6778789364   -0.1080330638
 H   -4.6193090266   -2.5819689285    1.2544274667
 H   -3.9421866629   -0.6222834866    2.5652280254