15

 C    0.0067471894   -1.2471984833    0.0133002976
 C   -0.0148137616   -0.0469482898    0.0320998598
 C   -0.0228644218    1.4108723501    0.0205313294
 C    1.4207268832    1.9861147859    0.0246551303
 C    2.1689762006    1.6257632780    1.2254267611
 N    2.7561338499    1.3544585331    2.1822000569
 C   -0.7809718686    1.9641244487   -1.2180376700
 C   -2.1899948738    1.5820874246   -1.2349805052
 N   -3.3082610146    1.2936047601   -1.2408494315
 H    0.0152826082   -2.3097797700    0.0171330481
 H   -0.5339541329    1.7739828579    0.9196061299
 H    1.9641980770    1.6233617624   -0.8544249285
 H    1.3791247947    3.0790979227   -0.0431169146
 H   -0.7181251833    3.0581584739   -1.2267404455
 H   -0.3036719361    1.6008056357   -2.1345081480