24

 C    0.2552463953    1.5565852464    0.2078789033
 C    0.3057718141    0.0320019907    0.0447434961
 C    0.7322387458   -0.4608879806   -1.3503426377
 C   -0.1968995038    0.0601562446   -2.4450446723
 C    2.2655316636   -0.2660641836   -1.5953200891
 C    2.5057697898   -1.7368074649   -1.1697067640
 C    0.9961198550   -2.0148231482   -1.3915173647
 C    0.2660019322   -2.9733060183   -0.4607599694
 H    1.2083595629    2.0232624112   -0.0634173128
 H   -0.5234410590    2.0084696931   -0.4135666085
 H    0.0414499051    1.8254799278    1.2471307712
 H    0.9939647911   -0.3756525696    0.7956087139
 H   -0.6813210621   -0.3851986390    0.2834395363
 H   -0.1687885083    1.1520764177   -2.5224787202
 H    0.0890145533   -0.3438839484   -3.4220446161
 H   -1.2376246581   -0.2313289863   -2.2556842389
 H    2.4891521772   -0.1022708907   -2.6538329915
 H    2.7687711878    0.5128220180   -1.0159362521
 H    3.2167413716   -2.3246800490   -1.7558630123
 H    2.7850991364   -1.8203844779   -0.1145476019
 H    0.8473371450   -2.3487701921   -2.4258785507
 H    0.4025936729   -2.7075275286    0.5922566460
 H   -0.8109986526   -2.9936437798   -0.6634619833
 H    0.6425635150   -3.9942361926   -0.5919689111