19

 C    0.1875109483    1.3898795687   -0.1813714681
 O    0.3049456636   -0.0349578872   -0.0758013873
 C    0.6448584089   -0.4986866146    1.1375154156
 O    0.8845522598    0.2092155830    2.0841920743
 C    0.6348360292   -2.0326681508    1.1560115311
 C    1.4397064275   -2.6364593241    0.0180398998
 C    0.8313283308   -2.6219793794    2.5697473013
 C   -0.6569622434   -3.0050247212    2.4719815555
 O   -0.7554848654   -2.4704246928    1.1300173569
 H    1.1360286409    1.8738086181    0.0643692220
 H   -0.0879266151    1.5887266183   -1.2168862824
 H   -0.5835415634    1.7615325120    0.4981462561
 H    2.4910913428   -2.3350546966    0.0860874727
 H    1.3860588148   -3.7274131784    0.0673443505
 H    1.0448831110   -2.3052461535   -0.9446035001
 H    1.5278204514   -3.4605257999    2.6102177239
 H    1.0852928896   -1.8834746691    3.3280695191
 H   -0.8847869124   -4.0765420663    2.4934439905
 H   -1.3250069089   -2.4831313061    3.1664651787