15

 O   -0.1148749660   -0.0308856573    0.4171877550
 C    0.0140032422    1.0724447576   -0.0648661858
 C    1.2317321748    1.8342019562   -0.0545452894
 C    2.2350632715    2.5097089826   -0.0678373606
 C    3.4301134253    3.2841896371   -0.0624260863
 C    3.8045772953    4.1213759517   -1.2723526303
 C    3.3614508790    4.8290295445   -0.0188343378
 C    2.1012542817    5.5050407610    0.0379930106
 C    1.0505504214    6.0861021122    0.0959895001
 H   -0.8322944835    1.5868925334   -0.5649361040
 H    4.2569386518    2.8578665409    0.4971318657
 H    4.8543806561    4.1637226903   -1.5378461814
 H    3.1130285941    4.1136537777   -2.1052047061
 H    4.1496356330    5.2764292294    0.5794607333
 H    0.1207422334    6.5965956028    0.1462244770