11

 N    0.0125096515   -1.1750711025   -0.0043377322
 C    0.0037261463   -0.0179224174    0.0025894909
 C   -0.0117610138    1.3964402397    0.0108690241
 C   -1.1219501106    2.2229451150    0.0296806169
 N   -0.6473484467    3.4852484537    0.0307208308
 N    0.6891745670    3.5660878153    0.0143212481
 C    1.0954400769    2.2973006230    0.0022324567
 C    2.4780968846    1.9653249126   -0.0170395847
 N    3.5947177941    1.6660248904   -0.0328107924
 H   -2.1747897507    1.9934916246    0.0416767935
 H   -1.1804557786    4.3406255054    0.0422246883