17

 O   -0.0102117892    1.4087022195    0.0919074049
 C    0.0140616024   -0.0075797280   -0.0189384182
 C   -1.3890721538   -0.5117599221   -0.0017402317
 C   -2.5310657321    0.2123782444   -0.0197404741
 N   -3.6777444451   -0.5639949849   -0.1202292800
 C   -3.2839289448   -1.9714584863    0.0283457623
 C   -1.7660869162   -1.9114294037    0.0011515593
 N   -0.9433004203   -2.8950599356   -0.0344897023
 O   -1.6582942215   -4.1171021801    0.0037827808
 H    0.8935023799    1.7264816149    0.0167439824
 H    0.5152096250   -0.3291837672   -0.9475183209
 H    0.5775178696   -0.4694428174    0.8085407199
 H   -2.6110587690    1.2901807377   -0.0084794208
 H   -4.4926435210   -0.2568287237    0.3901096114
 H   -3.6385220409   -2.4060546933    0.9716709236
 H   -3.6717457401   -2.5953732703   -0.7837162183
 H   -0.9500202028   -4.7666608939   -0.0489181083