21

 C    0.0210167458    1.5143591852   -0.0569074090
 C   -0.0132263095   -0.0023119185    0.0482894225
 C   -1.3204859210   -0.6920014229    0.5139857319
 C   -0.4771269351   -1.6742009265    1.3707694698
 C    0.7321535852   -0.6897879600    1.2324315818
 C    2.0995368431   -1.1982316398    0.9151085912
 C    2.5747735396   -1.1466311215   -0.3273696666
 C    1.7407359611   -0.6379176491   -1.4709916740
 O    0.3525912369   -0.6151362201   -1.1896524574
 H    1.0364807442    1.8801197861   -0.2449731108
 H   -0.6199342475    1.8502596257   -0.8785810724
 H   -0.3315720846    1.9772199058    0.8699671310
 H   -1.9340555994   -0.0250229087    1.1258093515
 H   -1.9304112749   -1.1122735795   -0.2876755635
 H   -0.8284895239   -1.8878151216    2.3823108398
 H   -0.2867166745   -2.6151677232    0.8514329718
 H    0.7649138958   -0.0195234164    2.0992475576
 H    2.7038750167   -1.5985261876    1.7257900338
 H    3.5831530469   -1.4745011505   -0.5653967384
 H    2.0998866048    0.3568180492   -1.7911057076
 H    1.8512328203   -1.2970070360   -2.3404174133