20

 C   -0.0423690724    1.4834231828   -0.0328077589
 C   -0.0023778998    0.0284977655   -0.0005882664
 C    0.0331424020   -1.1745211989    0.0182218542
 C    0.0725737056   -2.6333577662    0.0692599173
 N   -1.2577955375   -3.2200989532    0.0963880034
 C   -2.1138507628   -2.9931050422    1.2815032611
 C   -2.6576266370   -4.4346711095    1.0987613057
 O   -3.8601996321   -4.5349132591    0.3752818632
 C   -1.3678967173   -4.6835616137    0.2724209980
 H    0.6695099459    1.8841455701   -0.7629004593
 H   -1.0383628618    1.8455235082   -0.3105731342
 H    0.2063103886    1.9134343323    0.9437236842
 H    0.5970590107   -3.0238439629   -0.8133142753
 H    0.6703231470   -2.9490056816    0.9496570455
 H   -1.5425852756   -2.8786506959    2.2176766696
 H   -2.8304231833   -2.1708879143    1.1931019450
 H   -2.7893607331   -5.0328725738    2.0007129729
 H   -3.7615749125   -3.9977576351   -0.4195790555
 H   -1.4686874740   -5.2634058224   -0.6514940750
 H   -0.5575847805   -5.1130911202    0.8860844445