19

 O   -0.0058905591    1.4286983796   -0.2316368973
 C    0.0267530558    0.0517558377   -0.0929746188
 C    0.6263028756   -0.8964271714   -1.1397629177
 C   -0.5755820263   -1.8707882295   -0.9040283282
 C   -1.1633883914   -0.8783134227    0.1090985607
 C   -0.1857260143   -0.6189495118    1.2415784805
 C    0.7194947090   -1.6731450265    1.8715446594
 C   -0.0997145828   -2.6483566436    2.6888858064
 O   -0.2440638053   -3.8136976087    2.4204330548
 H    0.7959108702    1.7952374400    0.1576132313
 H    0.5919252910   -0.4450204954   -2.1334621187
 H    1.6381894950   -1.2751461216   -0.9604817882
 H   -1.1960196331   -1.9864703073   -1.7944235716
 H   -0.3365416432   -2.8632958749   -0.5128232965
 H   -2.2129853082   -0.6326850573    0.2153838586
 H   -0.6006509057    0.0884846928    1.9570808671
 H    1.2757862237   -2.2413109593    1.1230710389
 H    1.4427845105   -1.1784437222    2.5340748281
 H   -0.6087631213   -2.1993710380    3.5739398412