20

 C   -0.2708974139    1.2740140703   -0.1813171379
 N   -0.2876504531   -0.1718974987   -0.2568709841
 C    0.5386686836   -0.7171276314   -1.0313503986
 O    0.6006713428   -2.0651133246   -1.1294539828
 C    1.4838095379   -2.5740619508   -2.1339729493
 C    1.5010585772   -4.1077832696   -1.9862432261
 C    0.7838796803   -4.6100993303   -3.2617376557
 C    0.1192707270   -3.3360968825   -3.7979417142
 O    1.0157184214   -2.2844674138   -3.4198827877
 H   -0.0723586343    1.5865334339    0.8504474601
 H    0.4773284811    1.7503141248   -0.8362320627
 H   -1.2589218240    1.6672849824   -0.4467669381
 H    1.2598996482   -0.1795767505   -1.6645681751
 H    2.4594795789   -2.0870800040   -2.0303268173
 H    2.5230971817   -4.4837361923   -1.9123480918
 H    0.9711439639   -4.3827855803   -1.0731136954
 H    1.5079448459   -4.9893811290   -3.9879665281
 H    0.0630275991   -5.4045598777   -3.0573851493
 H    0.0165036025   -3.3047296899   -4.8844279324
 H   -0.8667583562   -3.1748991059   -3.3424775035