18

 C   -0.0505221231    1.4883191354    0.0066894807
 C   -0.0759518234   -0.0090293209   -0.0268402725
 C    0.8747132279   -0.9778833272   -0.8201530897
 O    1.9161922851   -0.9857109675    0.2005415198
 C    0.6637011641   -1.0050545840    0.9446294053
 C   -0.0712967310   -1.9585560260   -0.0547763969
 C   -1.2384530849   -0.9880356200   -0.1826152966
 N   -2.5127423832   -0.9366766698    0.5116667833
 C   -2.4747987466   -0.9994395871   -0.9784091670
 H    0.9714611572    1.8440998633    0.1721787432
 H   -0.4120064619    1.9127478033   -0.9361623917
 H   -0.6870222698    1.8689737153    0.8117377927
 H    1.1645269630   -0.9689925127   -1.8705900799
 H    0.6965602203   -1.0240527781    2.0335531596
 H   -0.0409551613   -3.0475163302   -0.0705301599
 H   -2.7565672275   -1.8498718666    0.8891086242
 H   -2.8280419514   -0.0997518157   -1.4756861011
 H   -2.7691768335   -1.9267651614   -1.4643948239