20

 C   -0.6875730601    1.0668032040   -0.0540805708
 O   -0.3232792442   -0.3020672545   -0.1271488983
 C    0.7200410697   -0.5746202185   -1.0476674963
 C    1.1770720164   -2.0329536272   -0.8851470515
 C    1.2316083210   -2.5543305978    0.5471627028
 C    0.2146443061   -2.8105931951   -1.8144192138
 N   -0.0866302174   -1.8300564524   -2.8436805032
 C    0.1408294004   -0.5330905721   -2.4812431641
 O   -0.1217423429    0.4559936435   -3.1347239749
 H    0.1653609299    1.6844079420    0.2666096535
 H   -1.0490077234    1.4452316776   -1.0162715864
 H   -1.4806254855    1.1396507625    0.6939469146
 H    1.5349687387    0.1526116394   -0.9317821476
 H    2.1754750647   -2.0935438291   -1.3351488574
 H    0.2611463681   -2.4488271811    1.0361096643
 H    1.5189763726   -3.6110414347    0.5622508417
 H    1.9672487732   -2.0001541825    1.1381048953
 H    0.6844807812   -3.7040536483   -2.2379456431
 H   -0.6895430703   -3.1235605174   -1.2742051384
 H   -0.6219116684   -2.0377227682   -3.6723936562