17

 C    0.0642341772    1.1978896971   -0.3516857990
 O   -0.1792337047    0.1408952398    0.5859713200
 C   -1.2782222068   -0.5938822972    0.3440754555
 C   -1.4150677385   -1.9288388070    0.1289012286
 O   -0.4461184157   -2.8813812457    0.0281108611
 C   -2.8246067227   -2.1932566132    0.0281164598
 C   -3.4629658380   -3.5241566703   -0.2069015201
 C   -3.4226483970   -0.9821571433    0.1866703988
 O   -2.5028925329    0.0081390238    0.3897065265
 H    1.0042017855    1.6645117601   -0.0524679891
 H    0.1517519908    0.8008776455   -1.3700622940
 H   -0.7405346606    1.9386765283   -0.3187630891
 H    0.4024968770   -2.4566936833    0.1980194175
 H   -3.2003481280   -4.2364933209    0.5830117795
 H   -4.5524286465   -3.4370261434   -0.2363837671
 H   -3.1319352826   -3.9646252057   -1.1539647221
 H   -4.4532957668   -0.6686643345    0.1762674832