23

 C   -0.0422426708    1.2914228839   -0.2460831221
 O   -0.1007308717    0.0026924714    0.3206795752
 C   -1.3560621129   -0.6209888791    0.1697090720
 C   -1.5973173250   -1.2797813951   -1.2231997480
 C   -0.8085892024   -2.5080542264   -0.6754393859
 C   -1.2988943941   -2.0582387471    0.7350662427
 C   -2.7327225262   -2.5479470951    1.0053620512
 C   -3.5363988983   -2.6482322446   -0.3135895536
 C   -3.0978457307   -1.5949531772   -1.3589628472
 H    0.9545235287    1.6906926565   -0.0426899172
 H   -0.2007250048    1.2789496577   -1.3346035045
 H   -0.7918889242    1.9637548321    0.2008504559
 H   -2.1543681167    0.0410311907    0.5460786450
 H   -1.2063967129   -0.7602023725   -2.1020319509
 H   -1.0788486138   -3.5053223510   -1.0316457565
 H    0.2669332861   -2.3628024397   -0.7801225203
 H   -0.6362851813   -2.2069047570    1.5908500007
 H   -2.7153416908   -3.5264948688    1.4981386784
 H   -3.2173510498   -1.8560666325    1.7060444683
 H   -3.3760307750   -3.6435771683   -0.7403344327
 H   -4.6110887479   -2.5774960828   -0.1196620352
 H   -3.6671225478   -0.6643411250   -1.2350560410
 H   -3.3246391179   -1.9634379304   -2.3658229440