15

 C   -0.0735918049   -1.2700132650   -0.1164364512
 C   -0.0785171120   -0.0686937491   -0.0182711626
 C   -0.0829022672    1.3306829146    0.0966008833
 C   -1.0944289118    2.2818254237   -0.0643246251
 N   -0.6615217569    3.5735573633    0.1452535955
 C    0.6097541282    3.4014247511    0.4322322652
 C    1.9828357955    3.9361017630    0.8020825041
 C    2.4121132440    2.4128274803    0.7776926050
 N    1.0086116522    2.1194443011    0.4205442327
 H   -0.0756229596   -2.3279486130   -0.2042551518
 H   -2.1207585812    2.0713703245   -0.3249938032
 H    2.4729053316    4.5590569639    0.0506994979
 H    2.0628728985    4.4158062536    1.7799860642
 H    3.1281582756    2.1361604527    0.0009332291
 H    2.7160521379    1.9922328852    1.7385994469