15

 C    0.0128259790    1.3787245710    0.0070763574
 O   -0.0456835997   -0.0509581420    0.0038330060
 C   -1.2518833282   -0.6074265631    0.0112093460
 N   -2.3183149225    0.1377816374    0.0208559034
 C   -3.5523967518   -0.4860397974    0.0278778387
 N   -4.7059218336    0.0539125560    0.0376169462
 N   -3.5016104331   -1.9008243639    0.0235700501
 C   -2.3326819944   -2.5609278844    0.0133681696
 N   -1.1711196995   -1.9847345307    0.0066858611
 H    1.0752529377    1.6227337252   -0.0006461011
 H   -0.4838571498    1.7884450093   -0.8758476136
 H   -0.4698332420    1.7838078729    0.8998750944
 H   -4.5957820343    1.0665225226    0.0396656223
 H   -4.3892058787   -2.3820138750    0.0285798050
 H   -2.3915842090   -3.6470965877    0.0107556343