18

 C   -0.1154992549    1.5588136014    0.1639858524
 C   -0.0119300117    0.0631867530   -0.0398231126
 C    0.5552814108   -0.5812564654   -1.2768063944
 C    1.1390198988    0.2008070618   -2.4350347893
 O    2.2222602391   -0.4836238058   -3.0435985624
 C    1.3278418848   -0.6692815417    0.0424633744
 C    2.5625131325    0.0450006367    0.1864952399
 C    3.6136404869    0.6259298188    0.2831111238
 H    0.7836560474    2.0843569212   -0.1636635472
 H   -0.9717532858    1.9703258547   -0.3810427976
 H   -0.2557663189    1.7860634132    1.2259027625
 H   -0.8270466511   -0.4920731818    0.4174274837
 H    0.0976386436   -1.5186339654   -1.5809422287
 H    0.3805578232    0.3217755404   -3.2159958191
 H    1.4384782178    1.2066383503   -2.1143466709
 H    2.9293133338   -0.5142421609   -2.3884651114
 H    1.3137739979   -1.6352118510    0.5386214707
 H    4.5343664460    1.1434977805    0.3928039362