16

 C   -0.1140551290    1.5116922858   -0.0260035547
 C    0.0781789880    0.0180056310   -0.0205930627
 O    1.1448738396   -0.5417969247   -0.0383513117
 N   -1.1217932381   -0.7457087791    0.0079843910
 N   -2.3439665897   -0.1190951745    0.0287683655
 N   -3.2470645032   -1.0347725517    0.0518956858
 C   -2.6426036478   -2.2651807615    0.0471979562
 C   -1.2824365907   -2.1133490414    0.0194837480
 C   -0.1835481574   -3.1182392808    0.0038286305
 H    0.8706809210    1.9771288538   -0.0467248967
 H   -0.7031491910    1.8194798618   -0.8933493087
 H   -0.6717248276    1.8302288284    0.8580206946
 H   -3.2187072726   -3.1764205518    0.0639817166
 H    0.4434093692   -3.0129316770   -0.8854340787
 H    0.4773178878   -3.0031359749    0.8669559916
 H   -0.6144589385   -4.1219754333    0.0178136734