11

 O   -0.0719837713   -0.0337770179    0.0040919550
 C    0.0344286652    1.1491105615    0.0086901269
 O   -1.2039099027    1.9041383183    0.0299478461
 C   -1.1447295018    3.2241362990    0.0358797919
 N   -0.0763867868    3.9398909516    0.0245592576
 C    1.0924339639    3.1960053804    0.0043154374
 N    1.1861241415    1.8945573930   -0.0036617152
 C    2.2992915885    3.9590031051   -0.0086712519
 C    3.3086895848    4.6120069171   -0.0194781372
 H   -2.1289713523    3.6872538741    0.0521033497
 H    4.2052636910    5.1832913478   -0.0291140402