15

 N   -0.1375158927    1.2932531966   -0.5278226191
 C   -0.0891957658   -0.0474108967   -0.1750408720
 C   -1.0720803974   -1.0050120989    0.0044666284
 C   -2.5616744290   -0.9148590604   -0.1759619231
 C   -2.9704589945   -0.0391776998   -1.2736749827
 C   -3.2930889861    0.7042136903   -2.1629443342
 N   -0.4752621181   -2.1540477803    0.4345608106
 N    0.8047185835   -1.9830289140    0.5353815960
 N    1.0504018579   -0.6943061876    0.1681678772
 H    0.6331726763    1.5934499807   -1.1117863930
 H   -1.0194166328    1.5244050049   -0.9719332803
 H   -2.9384842693   -1.9290578267   -0.3505604393
 H   -3.0468477015   -0.5696266644    0.7483819813
 H   -3.6070573456    1.3305114062   -2.9613038271
 H    1.9933655152   -0.3418732598    0.1960509473