16

 O   -0.1969424435   -0.0915113594   -0.3163611601
 C   -0.0692422971    1.0704848818   -0.0932569754
 N   -1.0390934337    2.1225754775    0.0508848153
 C   -0.0497335627    2.9334996232    0.7873301216
 C    0.9221317053    4.1954095409    0.7016837394
 C    1.9734461251    3.0198645319    1.0551557486
 C    1.4661915646    2.5867664993    2.4300443483
 C    0.1449686467    2.5482470278    2.2632563901
 C    1.0555270565    2.1729662293    0.0742091537
 H   -1.9808956045    1.9253266668    0.3734217037
 H    1.0526572604    4.6210191501   -0.2954511571
 H    0.7980617224    4.9715943768    1.4598612000
 H    3.0409190553    3.1487718902    0.8855208235
 H    2.0722753535    2.3912309316    3.3031303297
 H   -0.6514493832    2.3048263830    2.9526716575
 H    1.1871741450    2.5630608595   -0.9407719687