16

 O   -0.2143370509    0.2015034690   -0.7092723215
 C   -0.0928971165    1.2526537639   -0.1212364540
 N    1.0922250203    1.7789950676    0.3040549548
 C    2.3540644904    1.0840040803    0.1316679385
 C    3.4296815118    1.9273415324   -0.5570995652
 O    4.0583152584    2.6675452550    0.4960521145
 C    4.2135246680    1.7789744750    1.5862394481
 C    3.0189716960    0.8223426410    1.5117837672
 O    2.6574011796    0.0468777445    2.3509471308
 H   -0.9447952353    1.9139132272    0.1276376484
 H    1.0846955292    2.6616541366    0.7914125167
 H    2.1227370340    0.1446419969   -0.3726823598
 H    4.1627671234    1.2778921796   -1.0604876230
 H    3.0293164321    2.6408729094   -1.2787980061
 H    5.1469662733    1.1944364060    1.5169055577
 H    4.2287597463    2.3421599656    2.5228933829