19

 C   -0.0719534880    1.3438986499    0.3562047340
 O   -0.0888294660   -0.0492085871    0.1444335712
 C   -1.3887725076   -0.5944335248    0.1720735765
 C   -1.2516171294   -2.0845485457   -0.0760384252
 C   -0.6805666248   -2.9266873954    1.0848366385
 O   -1.9175516791   -3.6678840104    1.2226595118
 C   -2.5145055604   -2.9716883055    0.1173218533
 C   -3.8127385324   -2.2909665086    0.5045424634
 O   -4.4071058311   -1.5280966553   -0.2138288180
 H    0.9702916054    1.6681966770    0.3106534670
 H   -0.6470178672    1.8796961274   -0.4147281284
 H   -0.4859249850    1.6119075787    1.3409200262
 H   -1.8664230296   -0.4047807108    1.1501650721
 H   -2.0331665842   -0.1325562410   -0.5926035148
 H   -0.7477173252   -2.2430264062   -1.0306686543
 H    0.1575491243   -3.5826389443    0.8263803636
 H   -0.4343705413   -2.3672817665    1.9945903341
 H   -2.7214869009   -3.6389589516   -0.7321364843
 H   -4.1714533075   -2.5607386599    1.5236089534