13

 O   -0.0681034219    1.2708647949   -0.0757562679
 C    0.0208101212   -0.0695376975   -0.0900877224
 C    0.2883220665   -0.9792695430   -1.0953405694
 O    0.5850237115   -0.6177217650   -2.3959229769
 C   -0.2692913980   -1.0472753484   -3.3717687974
 O   -0.0801444138   -0.8103678042   -4.5220444532
 C    0.2594082370   -2.2427411874   -0.4674328390
 N   -0.0183435684   -2.1320608457    0.8256684598
 N   -0.1530858720   -0.7950629178    1.0324977385
 H    0.1589494258    1.5957869347   -0.9559156616
 H   -1.1165845645   -1.6202604304   -2.9543733754
 H    0.4299829384   -3.2137565731   -0.9081939586
 H   -0.3575583417   -0.4469715470    1.9539855236