17

 C   -0.2152008743    1.3781346795   -0.2526072771
 O   -0.2850371501   -0.0282179833   -0.3331957602
 C    0.9197768685   -0.6075909597   -0.8154651762
 C    0.6905649821   -2.0623612026   -0.9922573487
 C   -0.3610717336   -2.8000929009   -1.4468015239
 N   -1.5762023850   -2.3732041118   -1.9604813884
 N   -0.0390932665   -4.1478964263   -1.3767985407
 C    1.1640643666   -4.1614247603   -0.8968957241
 O    1.6838063895   -2.9528274494   -0.6286158888
 H    0.5702135662    1.7049757340    0.4460241620
 H   -0.0142194596    1.8347180903   -1.2342610302
 H   -1.1820940219    1.7313780262    0.1127843445
 H    1.2026019760   -0.1147975043   -1.7634215148
 H    1.7501490224   -0.4464540315   -0.1096075815
 H   -1.8626263268   -1.4849670119   -1.5700244881
 H   -2.2953700346   -3.0779256900   -1.8697174750
 H    1.7869434210   -5.0181635881   -0.6930673290