20

 C    0.0255434534    1.6082241309    0.0310691521
 C    0.0100185558    0.0925177801   -0.0068911240
 C    1.1118215521   -0.5895023738   -0.8104937774
 C    1.1262140692   -0.6387551284    0.6980603701
 O    2.0608081152    0.1211147365    1.4108392998
 C   -1.3292696317   -0.5989022967   -0.0036537291
 C   -2.5065955191   -0.1181332935    0.8097646056
 C   -2.5461144707   -0.0364330630   -0.6976142404
 H    1.0475809304    1.9725831540    0.1439324214
 H   -0.3928491814    2.0339642450   -0.8868831126
 H   -0.5492458256    1.9958332837    0.8787820249
 H    0.8767529476   -1.4932773688   -1.3636625261
 H    1.8465949960    0.0541477928   -1.2839193893
 H    0.8658131332   -1.5862392979    1.1716178733
 H    2.9308116781   -0.2610973774    1.2564656650
 H   -1.2381232315   -1.6811179073   -0.0635839839
 H   -3.1201221011   -0.8627052538    1.3051854858
 H   -2.4114501080    0.8099720797    1.3617550225
 H   -2.4717340512    0.9474208737   -1.1467861659
 H   -3.1901825907   -0.7207047455   -1.2391040617