25

 C   -0.1910989708    1.5263031112   -0.1272923853
 C    0.0346982159    0.0172880006   -0.0611918870
 C    1.2980566888   -0.4579714866   -0.8403019253
 C    2.0737104666   -0.5222475567    0.5019511130
 C    0.7097645194   -0.5208786636    1.2478570238
 C    0.5589493954    0.2279493740    2.5688684355
 C    1.3054570107   -0.4288114500    3.7135795616
 C    2.7494819503   -0.0912273401    3.9950723498
 C    1.6676568646    0.3550089777    4.9487438629
 H    0.7221786685    2.0870270270    0.1010879499
 H   -0.5101417550    1.8191743890   -1.1336846287
 H   -0.9657170966    1.8527922543    0.5747188218
 H   -0.8956963913   -0.4934913504   -0.3303381062
 H    1.1615803294   -1.4481664770   -1.2841422640
 H    1.6815762714    0.2157037577   -1.6120944987
 H    2.7410867430   -1.3716078457    0.6654409876
 H    2.6399494563    0.3953204576    0.6908432367
 H    0.3875040719   -1.5592583331    1.3969619068
 H    0.9113336655    1.2618290898    2.4587620442
 H   -0.5084552797    0.2947362962    2.8251245472
 H    1.0278251744   -1.4669420894    3.8840741747
 H    3.4187705928   -0.8849886658    4.3084317297
 H    3.2219929156    0.6669176684    3.3792002570
 H    1.4152635450    1.4105076456    4.9692891414
 H    1.5960378979   -0.1349460607    5.9136558116