17

 C    0.7255219288    1.3987956765   -0.0453016430
 C   -0.0830559353    0.1122922527    0.0590905210
 C    0.3732970495   -1.0115179672   -0.9324672020
 C    1.1252801966   -1.6270150922    0.2294035831
 N    2.1883310964   -2.2968040582    0.3897603363
 O    2.7087855551   -2.7399566170   -0.8382759496
 C    0.3656585051   -0.8170857333    1.2577989490
 O    1.0411966609   -0.2869621109    2.3623939951
 H    1.8014910213    1.1923516389   -0.0903836730
 H    0.4592235707    1.9552608716   -0.9493362699
 H    0.5479260629    2.0410768529    0.8219171609
 H   -1.1538269643    0.3297153996    0.0470858169
 H   -0.4448241195   -1.6388771557   -1.2981500960
 H    0.9896536147   -0.7085393975   -1.7822237126
 H    3.5017818963   -3.2135448527   -0.5643765831
 H   -0.5007376682   -1.3683360114    1.6436581755
 H    1.9774802991   -0.2456183162    2.1397056415