16

 C    0.0417047452    1.4349150987    0.1426370374
 C    0.0722770973   -0.0582006627   -0.0072312756
 C   -0.3626407630   -0.7113023068   -1.1769148516
 N   -0.3298563491   -2.0235615791   -1.2940943130
 C    0.1469737486   -2.6733531054   -0.2176704666
 C    0.2191204021   -4.1804496516   -0.2677954954
 O    0.7296718256   -4.7457046872    0.9071519944
 N    0.5670311515   -2.1008396514    0.9030486291
 N    0.5316739673   -0.7736995284    1.0160195163
 H    0.6538482601    1.9211786758   -0.6245461248
 H   -0.9779045905    1.8212281760    0.0382320679
 H    0.4243770774    1.7103920733    1.1263272794
 H   -0.7413855078   -0.1413570196   -2.0238580461
 H   -0.7938700531   -4.5585082717   -0.4784198811
 H    0.8344937028   -4.4584755912   -1.1381786653
 H    0.9263685155   -4.0056452788    1.5008614449