20

 C   -0.1147636951    1.5658893841    0.0132328566
 C    0.0741773622    0.0528450980   -0.0137481757
 C    0.9841480294   -0.5203236468   -1.1297068444
 C    1.2042834967   -1.9841793278   -0.6308768583
 C    1.9461762573   -1.2333171616    0.5131735495
 C    2.4186243354   -0.2349119166   -0.5774152632
 N    0.8487301307   -0.4809949205    1.1320799217
 C    0.4077274848   -0.5563675319    2.4062495957
 O   -0.6240124483   -0.0589816895    2.8179414386
 H    0.8410661899    2.0972709032    0.0079590703
 H   -0.6910986778    1.8853124739   -0.8614648265
 H   -0.6638036704    1.8493510961    0.9134606452
 H   -0.9129347700   -0.4248518319   -0.0336797614
 H    0.6956866682   -0.2897510160   -2.1542909886
 H    0.3275512410   -2.5770446730   -0.3578344042
 H    1.8765888365   -2.5542525194   -1.2741274074
 H    2.6083027906   -1.7119739259    1.2333375926
 H    3.1990411312   -0.6479091229   -1.2183489587
 H    2.6756522084    0.7764630633   -0.2579874843
 H    1.1120441595   -1.1133852050    3.0579786627