16

 O   -0.0291320603    0.2637955410   -0.8159843295
 C   -0.0174633244    1.3015737936   -0.2165236765
 C   -1.0803598124    2.1529112266    0.5228035760
 C   -0.0157912895    3.2662590777    0.6130202098
 C   -0.1421029718    4.7152070439    0.4868242894
 O    0.1972888705    4.0894813313    1.7394237837
 C    1.0428977634    2.3461010193    0.0365887865
 C    2.4259346900    2.0739142837    0.5254533817
 N    2.2022990015    2.6953079266   -0.7773938484
 H   -1.9834020016    2.3724048715   -0.0518701485
 H   -1.3633724714    1.7359271351    1.4942209266
 H    0.6612686378    5.2790972098    0.0170663197
 H   -1.1301446545    5.1712004894    0.4487507768
 H    2.8265340327    2.7354350483    1.2877340626
 H    2.7441760925    1.0359603838    0.5744390087
 H    2.3001427374    2.0059823483   -1.5223777485