24

 C    0.0220335020    1.5691175522    0.1838042064
 C    0.0089249329    0.0456249488    0.0401690853
 C    0.6677152046   -0.4460073153   -1.2559602738
 O    2.0182116636    0.0110510495   -1.3583627307
 C    0.5801006760   -1.9709850511   -1.4047760457
 C    1.2117396280   -2.5422786481   -2.6875428111
 C    1.2999417250   -4.0721371622   -2.6085753124
 C    0.4541154317   -2.1098422864   -3.9506418564
 H    1.0432876567    1.9525276527    0.1145937163
 H   -0.5634862321    2.0436701706   -0.6115824779
 H   -0.4021442690    1.8824324916    1.1425086069
 H    0.5287599864   -0.4161839952    0.8929492008
 H   -1.0218850423   -0.3289661535    0.0755100174
 H    0.1617119071    0.0344897470   -2.1026516673
 H    2.5148893762   -0.3958608237   -0.6388737552
 H    1.0709480188   -2.4259172722   -0.5304305854
 H   -0.4751088801   -2.2732752765   -1.3480716788
 H    2.2303761644   -2.1401516715   -2.7516504169
 H    0.3019932910   -4.5215257651   -2.5334750717
 H    1.7818651985   -4.4872086446   -3.5001140802
 H    1.8755390740   -4.3967418037   -1.7348968254
 H    0.9172519442   -2.5364343045   -4.8464818473
 H   -0.5872462548   -2.4541617343   -3.9207925869
 H    0.4454911870   -1.0230254544   -4.0729888402