13

 N   -0.0625353565    1.3193972580   -0.0085312322
 C   -0.0102792859    0.0628208960   -0.0008407377
 N   -1.1220019751   -0.7722612547   -0.0164864870
 C   -0.8093392747   -2.1071007851   -0.0047086015
 O   -1.5501210871   -3.0509632508   -0.0285883087
 C    0.7408028190   -2.1172396440    0.0336725584
 O    1.1073703047   -0.7211915702    0.0123889508
 C    1.2720775162   -2.7934668360    1.2031499057
 C    1.7027579111   -3.3585192848    2.1703394880
 H    0.8724936701    1.7210396113    0.0071343718
 H   -2.0613393038   -0.4073943596   -0.0328513316
 H    1.1132160792   -2.5837921395   -0.8860471844
 H    2.0838354728   -3.8610588305    3.0255056085