21

 C    0.1055663482    1.3918975558    0.0265800315
 O   -0.0027054950   -0.0129098138    0.0466013887
 C   -1.3266799569   -0.5670478598    0.0218317762
 C   -2.1269896344   -0.1459281564    1.2625977891
 C   -2.0759697537   -0.2581246837   -1.2748090955
 C   -2.4055109686   -1.3631736398   -1.9444677793
 C   -1.8964051921   -2.5921865302   -1.2689835472
 C   -0.3841385512   -2.6817655271   -1.1701314435
 C   -1.1755994707   -2.0927261659   -0.0349248663
 H    1.1750393075    1.6191677140    0.0164960616
 H   -0.3486169163    1.8388706075   -0.8695217509
 H   -0.3372557969    1.8684624767    0.9127559455
 H   -2.3865418387    0.9165684947    1.2452463512
 H   -3.0611369010   -0.7125116458    1.3111614092
 H   -1.5462779233   -0.3477652904    2.1691297315
 H   -2.2912650979    0.7550588902   -1.5928439495
 H   -2.9421338921   -1.3892904589   -2.8870166041
 H   -2.4830863156   -3.5038111792   -1.2690210368
 H    0.0502354371   -3.6624371803   -1.0047918262
 H    0.2078616673   -2.0136777376   -1.7844521048
 H   -1.2199492756   -2.6371856700    0.9009989697