21

 C    0.0146320613    1.5285097076   -0.0277381010
 C   -0.0279856657    0.0051856686    0.0260622923
 O    0.5373969452   -0.4340223988   -1.1998244856
 C    0.6989945575   -1.8277244764   -1.3800047739
 C    1.9344408452   -2.4017829601   -0.6681517579
 C    1.9964935362   -2.0706329818    0.8205497254
 C    0.6338735681   -2.0463966349    1.5418553502
 C    0.7142073929   -0.5300042821    1.2715993460
 O    2.1347055961   -0.6356309755    1.0232596975
 H    1.0540974413    1.8692305283   -0.0105566895
 H   -0.4516117612    1.8858100380   -0.9490773756
 H   -0.5141442693    1.9634866756    0.8254473872
 H   -1.0771859614   -0.3374660562    0.0947888800
 H   -0.2125435114   -2.3652455978   -1.0725352580
 H    0.8055675882   -1.9769460008   -2.4596091481
 H    1.9445314887   -3.4917881927   -0.8050186484
 H    2.8407397041   -2.0036689321   -1.1383670004
 H    2.8111661570   -2.6134552316    1.3109951590
 H   -0.1957067249   -2.6126827206    1.1149864040
 H    0.7211595203   -2.2758449264    2.6051164040
 H    0.4965799218    0.1200489996    2.1268089829