20

 O   -0.0270743040   -0.0177193728    0.1858294826
 C    0.0283719044    1.1947064685    0.1107108878
 N    1.1731714204    1.9063579103    0.0167802952
 C    2.5118832849    1.2981344391    0.0462332625
 C    3.4051757480    2.5540745073   -0.0317893157
 C    3.2652179775    3.1681126577   -1.4485351567
 C    1.8132928107    3.7532874840   -1.4428675722
 C    1.3148908452    3.3664766570   -0.0316097347
 C    2.5868712228    3.5530848428    0.8192189804
 H   -0.8698443262    1.8457045087    0.1152258628
 H    2.6540333103    0.7283038495    0.9716830194
 H    2.6557727318    0.6116479234   -0.7941703638
 H    4.4332891194    2.3715875182    0.2815257926
 H    4.0084152917    3.9553521216   -1.6030707614
 H    3.4131786931    2.4213178160   -2.2332011911
 H    1.8138564711    4.8402178348   -1.5696080866
 H    1.1775044742    3.3252751962   -2.2208947012
 H    0.4034366077    3.8652025377    0.2991713812
 H    2.4527551996    3.2429193118    1.8585547149
 H    2.9796005773    4.5726362582    0.7862915540