21

 C   -0.6167195718    1.2718016963    0.3489728529
 C    0.1722772681    0.0597527371   -0.1619069233
 C    0.9543963812   -0.5968720176    0.9500319509
 O    0.2329915361   -1.4082306240    1.8969638704
 C    1.2354640826   -2.0348005618    1.0978105173
 C    0.8042683478   -3.1614191254    0.1912994929
 C    0.1313407280   -4.3539053381    0.9206865089
 C   -1.1151499571   -3.9579461460    0.1069197080
 O   -0.3872068887   -2.9191571690   -0.5840414743
 H    0.0449991125    2.0233194538    0.7947081637
 H   -1.1672121973    1.7523992169   -0.4651225130
 H   -1.3384449828    0.9674116629    1.1132067599
 H   -0.4933261311   -0.6737366083   -0.6171706529
 H    0.8848934241    0.3788935574   -0.9343739940
 H    1.6702523388    0.0712731704    1.4391504462
 H    2.1429045377   -2.3035950434    1.6500976933
 H    1.6494386500   -3.4317383024   -0.4572888303
 H    0.5494657305   -5.3332242539    0.6853930460
 H    0.0434796064   -4.2392439250    2.0015993045
 H   -1.4993467048   -4.7119623314   -0.5893115699
 H   -1.9450872604   -3.5475423984    0.6926799325