23

 C   -0.4350479678    1.3268671074   -0.0038925861
 C   -0.1683225963   -0.1640119977    0.2161531252
 O    0.1375915453   -0.7926771920   -1.0287985712
 C    0.9366324456   -0.4253587818    1.2639648774
 C    0.5529182239    0.0055459948    2.7154606244
 C    0.3388657765   -1.2728837974    3.5128476825
 C   -0.6445917980   -2.2856372548    2.9784351541
 C    0.8283091969   -2.4440644838    2.6940479660
 C    1.3581363430   -1.9234112681    1.3667188367
 H    0.4802832339    1.8336704549   -0.3363474654
 H   -1.1968581215    1.4588127666   -0.7768869569
 H   -0.7768570460    1.8259770761    0.9070140665
 H   -1.0994509116   -0.6475401021    0.5340340552
 H    0.9395184664   -0.3818476690   -1.3718486827
 H    1.8006880171    0.1662398497    0.9323611414
 H    1.3698154729    0.5799578678    3.1657121451
 H   -0.3288040266    0.6560407499    2.7329337328
 H    0.4930984572   -1.2327547928    4.5858372166
 H   -1.0884386625   -2.9689699505    3.6948022468
 H   -1.3131126647   -2.0074463380    2.1704067002
 H    1.3487775621   -3.2735927418    3.1605819174
 H    0.9967954912   -2.4875384346    0.5022255697
 H    2.4511037632   -2.0034946428    1.3635250743