16

 O   -0.0667473176    1.4157255696    0.1092940346
 C    0.0351757800    0.0420491224    0.0891474438
 C    0.9625654330   -0.8214765803    1.0214933550
 C    0.6700925862   -1.9449355666   -0.0215438309
 N   -0.8076035328   -2.1646535879   -0.0757923845
 C   -1.5729332676   -1.7518198622    1.1122069048
 C   -1.2814782145   -0.7374033538    0.0735566374
 C    0.7751570052   -0.7621736814   -1.0279808263
 O    1.3361903298   -0.4888378329   -2.0426855007
 H    0.6701413165    1.7795563466   -0.3961111877
 H    2.0033055963   -0.4929875578    0.9849592155
 H    0.6568312450   -0.9670834264    2.0553192707
 H    1.2589215291   -2.8538266362   -0.0981718574
 H   -2.5716978213   -2.1781614665    1.1160854310
 H   -1.1129924921   -1.7121304204    2.0923813770
 H   -2.0517742950   -0.3873625164   -0.6067514523