20

 C    0.0128947653    1.5685574449    0.0300582887
 C   -0.0182652888    0.0336598000   -0.0140925351
 C    0.6768267973   -0.4993114635   -1.2825837295
 C    0.2190035428   -1.9137781473   -1.6483059521
 O   -0.1037178608   -2.6895052013   -0.4895717797
 C    0.8595841161   -2.7742773201    0.4846505552
 N    1.7581292744   -3.6581825069    0.5525295457
 O    0.6854641520   -1.9037776625    1.4971675541
 C    0.6637556528   -0.4893546569    1.2598527738
 H    1.0421752088    1.9452418504    0.0088247719
 H   -0.5123284478    1.9903418626   -0.8318624098
 H   -0.4656136636    1.9543046672    0.9359070526
 H   -1.0633175405   -0.2977166015   -0.0123117797
 H    0.4778566776    0.1598485474   -2.1352390926
 H    1.7635769307   -0.4808874631   -1.1283797471
 H   -0.7120099502   -1.8867493665   -2.2205371796
 H    0.9750073864   -2.4330974631   -2.2525831679
 H    1.6553718315   -4.3021037820   -0.2316050310
 H    1.7055739395   -0.1357543137    1.2678107870
 H    0.1664747262   -0.0792603340    2.1426059850