18

 C    0.0291660186    1.4206176343   -0.3043759582
 C    1.2994888946    0.6898978192   -0.0521390376
 C    2.0024449110    0.8449133544    1.2957853809
 O    1.4158573002    1.8570344979    2.1095599448
 C    0.4785614382    1.2011936924    2.9662077212
 C    0.4938566564   -0.2494193780    2.4602806870
 C   -0.4410882109   -0.5405608595    1.2642809457
 N    0.0107307252   -0.0142993601   -0.0317958241
 O    1.8535812574   -0.3606520119    2.0235351709
 H   -0.2862797481    2.1225428486    0.4618717613
 H   -0.2502592456    1.6894188732   -1.3198692481
 H    1.9559889626    0.4193687684   -0.8768080465
 H    3.0685067031    1.0540966072    1.1788781230
 H    0.8268551697    1.2636145947    4.0036929073
 H   -0.5038445458    1.6790873203    2.8888829618
 H    0.3288053279   -0.9777799085    3.2567075938
 H   -0.4972621170   -1.6289041080    1.1519850971
 H   -1.4556684173   -0.1831754345    1.4743217598