23

 C   -0.2846493411    1.7979965014    0.0295307725
 C   -0.1568824586    0.3227966965    0.4266139637
 C   -1.3913230732   -0.4920576551    0.0534639363
 C   -1.7227847933   -0.7357302935   -1.4467359682
 O   -0.5236048673   -0.7204943795   -2.2092527561
 C   -2.2054638938   -2.1629013810   -1.0703958596
 C   -1.4604501076   -2.0379794755    0.2896413261
 C   -0.1250645139   -2.7636988579    0.3161962544
 O   -0.4052870501   -4.1602142077    0.3370583519
 H    0.5991081464    2.3680395038    0.3329743543
 H   -0.3907901982    1.8980787108   -1.0549076405
 H   -1.1584574602    2.2638273211    0.4996941579
 H    0.7280689383   -0.1021396812   -0.0566283376
 H    0.0054101662    0.2446851779    1.5096709859
 H   -2.2729730812   -0.0356331601    0.5194383568
 H   -2.4691388628   -0.0669881647   -1.8965130086
 H   -0.7185151876   -1.1025123819   -3.0710334022
 H   -3.2914813867   -2.2156692385   -0.9551061738
 H   -1.8802740771   -2.9743573900   -1.7270528950
 H   -2.0358854045   -2.3485641194    1.1665458022
 H    0.4647179850   -2.4907012885   -0.5697368955
 H    0.4481061797   -2.4638634363    1.2081995190
 H    0.4312294517   -4.6317634808    0.2896831260