20

 C   -0.0186290453    1.5809760672    0.0231970728
 C    0.0174040657    0.0626145457   -0.0704158060
 C    1.1473255652   -0.5904228993   -0.9038993145
 C    1.9678871675   -0.5164586867    0.3984959954
 N    0.6488427427   -0.5725142554    1.1586600700
 C    0.3575475800   -2.0086992866    1.2129428904
 C   -0.8538913341   -2.6470017765    0.5821563056
 C    0.4957733763   -2.7403999526   -0.1023769862
 O    0.7918948133   -1.9376186068   -1.2236110637
 H    0.9671639243    2.0191869276    0.2001282287
 H   -0.4147306586    2.0058823757   -0.9052535105
 H   -0.6709439719    1.8860563943    0.8467191855
 H   -0.9856918311   -0.2978894178   -0.3012145141
 H    1.5062590185   -0.1429651924   -1.8337926948
 H    2.6586094219   -1.3335104358    0.6167013465
 H    2.4668130635    0.4414655416    0.5514826820
 H    0.7512012589   -2.4667397344    2.1161269729
 H   -1.2179905106   -3.5501079299    1.0614188156
 H   -1.6341308990   -2.0479366125    0.1307633939
 H    0.9791765528   -3.7098995254   -0.1701415694