19

 C    0.0948506885    1.3685620913   -0.0491112567
 O   -0.0803032384   -0.0214770570    0.1707942341
 C   -1.4002434345   -0.5587990050   -0.0160158956
 C   -1.1457055180   -2.0976159732   -0.1400084759
 O   -2.2316008833   -2.8836655726    0.2859733834
 C   -2.2502767087   -0.2665429971    1.2381964937
 O   -1.6898237477   -0.9023792598    2.3757059994
 C   -2.0724909050   -0.0328839975   -1.2041792911
 C   -2.6552925921    0.3910338617   -2.1666408516
 H    1.1483403760    1.5754613241    0.1527289426
 H   -0.1380245429    1.6460245173   -1.0831659364
 H   -0.5193938420    1.9823352174    0.6236925225
 H   -0.9524171989   -2.3448655637   -1.1860410886
 H   -0.2335425045   -2.3039130104    0.4332334182
 H   -2.2552239395   -2.8040832531    1.2478531964
 H   -2.3416428151    0.8186219156    1.3824942229
 H   -3.2518436354   -0.6766025242    1.0992268523
 H   -0.7578676694   -0.6502226147    2.3932854248
 H   -3.1692878389    0.7537702312   -3.0227999544