13

 C   -0.0164973753    1.4721189049    0.0734251325
 C   -0.0052992560   -0.0140615797   -0.0720558520
 N   -0.1033130204   -0.5961031339   -1.2177747054
 C   -0.0788295745   -1.9737688487   -1.2017742315
 C    0.0395528222   -2.7164774737   -0.0772560386
 C    0.1493879416   -2.0635772906    1.2054987175
 O    0.2608250514   -2.5396999867    2.2976532981
 O    0.1166046549   -0.6452733268    1.1089211384
 H    0.9073663298    1.8099704012    0.5534979299
 H   -0.1165466580    1.9346367151   -0.9073246754
 H   -0.8456923038    1.7804697490    0.7180861180
 H   -0.1623634889   -2.4461987390   -2.1763257790
 H    0.0569429869   -3.7980473310   -0.0866693424