18

 C    0.1727884906    1.3402507831   -0.5066595699
 N    0.0091689040   -0.0903440227   -0.3502215083
 C   -1.1205291258   -0.6167504172   -0.0888284708
 N   -2.4301452052   -0.1756402799    0.1084021806
 C   -3.0098996374    1.1455915154   -0.0075250609
 N   -3.2680260734   -1.2353352761    0.3507891513
 N   -2.5837226361   -2.3007217395    0.3430840407
 N   -1.2931763944   -1.9834657411    0.0887198287
 C   -0.2510156857   -2.9758303639    0.0053603267
 H    0.1166984425    1.8801065588    0.4511116139
 H    1.1690450960    1.5328077372   -0.9161360409
 H   -0.5493821550    1.8065615435   -1.1931480154
 H   -3.0997885810    1.4600359970   -1.0523217442
 H   -4.0067026957    1.0955358037    0.4326689818
 H   -2.4133651355    1.8775572779    0.5380062199
 H   -0.7016546123   -3.9483360646    0.2028977514
 H    0.2037302539   -2.9654327103   -0.9894927531
 H    0.5301800305   -2.7643602212    0.7409735385