18

 C    0.0349452332    1.5395941655    0.1152496068
 C    0.0508504108    0.0301538022   -0.1560490806
 C   -1.3352260755   -0.5947288812   -0.0083971283
 C   -1.5405386472   -2.1204424802   -0.1056861497
 C   -0.8795065711   -2.8157613408    1.0303455357
 C   -2.2325922362   -2.1561026235    1.2805943487
 C   -2.0351599809   -0.6726284786    1.3820082629
 O   -2.4054730432    0.1661792839    2.1559601799
 H    1.0410224080    1.9634393203    0.0431355164
 H   -0.6008183967    2.0622395714   -0.6080166075
 H   -0.3594404886    1.7522531972    1.1127886570
 H    0.4242168096   -0.1653118844   -1.1696663193
 H    0.7554392460   -0.4579587632    0.5274928748
 H   -2.0425369609   -0.0781391088   -0.6718717427
 H   -1.8689156986   -2.6423514403   -0.9949708824
 H   -0.9213529257   -3.9001882304    1.0205988149
 H    0.0182487078   -2.4160642673    1.4914509416
 H   -3.0806931209   -2.7283658317    1.6346874217