20

 C   -0.0243377973    1.5553717830    0.0500782058
 C   -0.0292465461    0.0160911975   -0.0174251864
 C   -1.4655703373   -0.5374316216    0.0502364223
 C    0.6938023489   -0.4819981749   -1.2404416258
 C    1.7932759855   -1.2393382970   -1.3070596309
 C    2.1580351703   -1.4907393984   -2.7369808176
 O    1.1573939015   -0.8015455442   -3.4896926601
 C    0.2748898034   -0.1935505355   -2.6318537202
 N   -0.7233420177    0.4938831369   -3.0054038388
 H    0.9974655917    1.9480657982    0.0495048251
 H   -0.5562622044    1.9762817144   -0.8060789227
 H   -0.5165220023    1.8920218999    0.9682415210
 H    0.5236203868   -0.3645757580    0.8512919850
 H   -2.0485288128   -0.1907334435   -0.8059649023
 H   -1.4680420884   -1.6320924845    0.0498544344
 H   -1.9555899964   -0.1974967674    0.9683463125
 H    2.3626484823   -1.6314401361   -0.4739896519
 H    3.1466509618   -1.0950392320   -3.0072468088
 H    2.1406473742   -2.5554993423   -3.0071039734
 H   -0.7733085437    0.5281708154   -4.0247132273