20

 C   -0.0880709721    1.4930139233    0.0261714377
 C    0.1172591046    0.0121366891   -0.0207119197
 N   -0.7477250676   -0.9492321741    0.7130583515
 C    0.7223325381   -0.9244613684    0.9637858143
 C    1.2909802402   -1.8165705478   -0.1432347864
 O    0.8556898368   -3.1455211988   -0.1665025083
 C    0.7041322586   -0.7987950339   -1.2068240528
 C   -0.2500529802   -1.3400147619   -2.2536208720
 O    1.8154425238   -0.1285925756   -1.7847778513
 H    0.7864147253    2.0037263058   -0.3889089887
 H   -0.9689026808    1.7977587063   -0.5516728912
 H   -0.2253393764    1.8439885336    1.0548166163
 H   -1.1984577128   -0.4430467108    1.4742070054
 H    1.1083830421   -0.7462103160    1.9606514811
 H    2.3805863776   -1.8093926980   -0.2062219594
 H   -0.0758948001   -3.1158900232    0.0912917805
 H   -1.1118094217   -1.8188986801   -1.7846432387
 H   -0.6244423062   -0.5305861795   -2.8942193180
 H    0.2588198492   -2.0730125125   -2.8858492698
 H    1.4826607817    0.4725877923   -2.4600115305