18

 C   -0.0294425908    1.5211802755    0.0108861123
 C   -0.0083317266    0.0123710703    0.0361762308
 C   -1.3079304491   -0.7494778441   -0.2608018125
 C   -1.2574303669   -1.9586480593    0.6487561387
 C   -0.1683241514   -1.9516092329    1.4270786675
 C    0.7187918052   -0.7944713256    1.1321991981
 C    1.2539278194   -0.7396510937   -0.2931758486
 O    1.2821082517   -1.8458368943   -1.1380936580
 H    0.9516665518    1.9370470694    0.2627762846
 H   -0.3006730336    1.8972492560   -0.9829287736
 H   -0.7544357594    1.9239442275    0.7283242470
 H   -2.1925371528   -0.1308997345   -0.0581407000
 H   -1.3651178421   -1.0380519961   -1.3192570596
 H   -2.0230797561   -2.7265665225    0.6449482825
 H    0.0787558961   -2.7070076400    2.1649283263
 H    1.2897701238   -0.3245130001    1.9266054458
 H    2.1460937195   -0.1369826952   -0.4391866709
 H    0.7015408213   -2.5173215205   -0.7553478106