20

 O    0.0861178316    1.3928382120   -0.1292205274
 C    0.0322764423   -0.0158503304    0.0061442506
 C    0.6196093767   -0.4925164381    1.3646782933
 C   -0.5793732937   -0.5287290210    2.2958408330
 N   -1.4286315880    0.6835768133    2.1787802533
 C   -1.8132590651   -0.5685903059    1.4715325540
 C   -1.4131455361   -0.5442609541    0.0257905796
 C   -2.3637801339   -0.2313306855   -1.0919237375
 C   -1.8613309225   -1.6428207320   -0.9069922798
 H   -0.4418874685    1.7344613138    0.6089134072
 H    0.5957933228   -0.4176898305   -0.8406179917
 H    1.0366257054   -1.5026838972    1.2761073142
 H    1.4143538124    0.1818915193    1.6944521752
 H   -0.5159749579   -1.0225305187    3.2600297333
 H   -1.9913743817    0.7911138667    3.0184682524
 H   -2.7113780948   -1.0906200024    1.7866494264
 H   -3.3987619694   -0.0205663475   -0.8430662265
 H   -1.9765176995    0.3524820563   -1.9195987146
 H   -1.1393577849   -2.0304700372   -1.6185211822
 H   -2.5531490852   -2.3889992109   -0.5278943427