19

 O    0.1105804884    0.2622191573    0.8546729545
 C    0.0462055425    1.2479686972    0.1586632988
 C   -1.2603901909    2.0084663001   -0.0445250494
 C   -1.2640198022    2.9224743211   -1.2760123832
 C   -0.0985104571    3.9007059814   -1.2330823983
 O   -0.1184426553    4.7244328090   -0.0405396776
 C    1.1682607456    4.2300479995    0.3873848669
 C    1.2729703669    3.2901795074   -0.8339160705
 C    1.2746087139    1.7832909009   -0.5789299343
 H   -2.0797173192    1.2848724371   -0.0530590070
 H   -1.4012267240    2.6300980902    0.8493511167
 H   -1.1954300130    2.3351972035   -2.2013830607
 H   -2.2046771363    3.4815099361   -1.3271435423
 H   -0.0790661519    4.5238387135   -2.1357367858
 H    1.9182594538    5.0286113401    0.4347203188
 H    1.1141466792    3.7381454802    1.3678506864
 H    2.0877912235    3.5529513558   -1.5113877896
 H    2.1674812626    1.4581587008   -0.0364487498
 H    1.2968863334    1.2586409988   -1.5459763237