14

 N   -0.0001169422    1.3542451568    0.0159685091
 C   -0.1132088678   -0.0289953292    0.0141687431
 C   -1.2015956823   -0.8460512382    0.0896131974
 C   -0.7084849167   -2.1984944125    0.0425051208
 C    0.6421932895   -2.0484428249   -0.0575631130
 O    1.3377170436   -3.1861243330   -0.1181020412
 C    0.3486411672   -4.1656178473   -0.0513953912
 C   -0.8981917040   -3.6263008291    0.0461233240
 O    1.0842586954   -0.7935349347   -0.0812518703
 H    0.5364361154    1.7056727133    0.8028781539
 H    0.4126181285    1.7179548223   -0.8372537747
 H   -2.2162913309   -0.4898462672    0.1683487530
 H    0.7190151200   -5.1753617780   -0.0867440096
 H   -1.8165048858   -4.1886457682    0.1107493489