14

 C    0.0711734570    1.5369159191    0.0148024476
 C   -0.0153990439    0.0438489125   -0.0196151074
 C   -1.1741358512   -0.6730892021    0.0449144846
 N   -2.4375822724   -0.1254522550    0.1895536048
 C   -1.0945587283   -2.1148647085    0.0318864706
 O   -2.0551048331   -2.8553764343    0.1037857688
 N    0.2240548604   -2.6646861877   -0.0821467829
 N    1.2630563719   -2.0188357993   -0.1630895525
 O    1.1774305894   -0.5618963815   -0.1269112462
 H    1.0601957904    1.8458882231    0.3586389729
 H   -0.0900256660    1.9701898840   -0.9801238459
 H   -0.6879303567    1.9429424809    0.6899818561
 H   -2.6264095107    0.7262156469   -0.3169124168
 H   -3.1557146968   -0.8300514481    0.0718422662