23

 C    0.2603549844    1.5283436586   -0.2482173581
 C   -0.0518687300    0.0468536584    0.0351294762
 C    0.6079057698   -0.4804009293    1.2745688599
 C    0.0588556882   -0.8878475255    2.4223896849
 C   -1.3811896666   -0.9216502423    2.8259960458
 C    1.1461201507   -1.3320364174    3.3767609080
 C    1.0223145733   -2.7727156401    3.8761886629
 O    2.3663070880   -1.1842382656    2.6473908774
 C    2.1074991254   -0.6138652635    1.3728220664
 H    1.3335834395    1.6951328738   -0.3821075438
 H   -0.2441140084    1.8622787798   -1.1600912285
 H   -0.0746338358    2.1631114515    0.5780252282
 H   -1.1362929081   -0.0865299998    0.1048097076
 H    0.2742975654   -0.5518755232   -0.8271252570
 H   -2.0362881735   -0.5170154421    2.0509075636
 H   -1.7132926268   -1.9437572187    3.0454104637
 H   -1.5453959506   -0.3376072858    3.7409263962
 H    1.1743342039   -0.6635488662    4.2570838186
 H    0.9385620435   -3.4659405292    3.0334507977
 H    1.9088700646   -3.0400867021    4.4578852874
 H    0.1441763407   -2.8909866445    4.5195222199
 H    2.5218559291   -1.2623447423    0.5831284512
 H    2.6197400431    0.3588173555    1.2841647118