14

 C   -0.0599534732    1.4406718432    0.0199231831
 N    0.0388349715   -0.0058510797   -0.0337733916
 C    0.1771959054   -0.7848221767   -1.1425357496
 C    0.1603677109   -2.0898971888   -0.7093019154
 C    0.0041957804   -1.9959644494    0.6947678325
 C   -0.0645297727   -3.1189510956    1.6411176110
 O   -0.1909993575   -3.0306316434    2.8385046341
 N   -0.0709103806   -0.7158814430    1.0893006907
 H    0.4652447280    1.8706665639   -0.8347705554
 H   -1.1064642976    1.7600124462    0.0004477207
 H    0.4001760970    1.7837077380    0.9466414151
 H    0.2767046465   -0.3501396396   -2.1244301407
 H    0.2565727988   -2.9818619252   -1.3073891304
 H    0.0124723030   -4.1111449397    1.1397534759