12

 C   -0.0416731343    1.3635175009    0.0598686823
 O    0.0142567175   -0.0693246766   -0.0112215490
 C    0.6293495586   -0.5581416330   -1.1015944061
 O    1.1129736900    0.1125746374   -1.9800752574
 C    0.6370612754   -2.0016470531   -1.0864638099
 C    0.6897487290   -3.2092216750   -1.1565726621
 C    0.7397875782   -4.5647394987   -1.2189575581
 C    0.7852252710   -5.7699295598   -1.2762852485
 H    0.9658104174    1.7865495213    0.0720853346
 H   -0.5847107115    1.7691960809   -0.7972397902
 H   -0.5647799251    1.5892381514    0.9884662549
 H    0.8242744039   -6.8303874957   -1.3249499804