19

 C    0.1747225107    1.5844992641    0.0251856754
 C    0.0072451059    0.0586592666   -0.0098346356
 O    0.6439551022   -0.4216053266    1.1819774561
 C   -1.4799364450   -0.3794450307   -0.0376216611
 C   -2.2755233266    0.0687055288    1.2051454118
 C   -3.6063960959   -0.5230970528    1.2490680400
 C   -4.6983865566   -1.0255641171    1.2621676536
 C    0.6777931153   -0.4965090130   -1.1960083714
 C    1.2150476293   -0.9843369871   -2.1546151955
 H    1.2354194987    1.8390822995   -0.0175100900
 H   -0.3350426385    2.0487147943   -0.8225114902
 H   -0.2365704638    1.9841005872    0.9551094694
 H    0.7524297424   -1.3749918617    1.0923781480
 H   -1.9529501040    0.0016296805   -0.9482328744
 H   -1.5115969628   -1.4722455608   -0.1051957093
 H   -1.7098872206   -0.2091549680    2.1015964767
 H   -2.3667587408    1.1610054909    1.2229996734
 H   -5.6651181194   -1.4635799506    1.2871768847
 H    1.6977232696   -1.4049573736   -3.0023145817