13

 C   -0.0276389643    1.5028639542    0.0578845234
 C   -0.0126248385    0.0162774435   -0.0024177911
 N   -0.0381045421   -0.6367459550   -1.1108033205
 O   -0.0126828786   -2.0081079838   -0.7644897267
 C    0.0299617435   -2.1613904879    0.5930255139
 O    0.0577435759   -3.1973109503    1.1738373979
 N    0.0292344638   -0.8318204810    1.0976127400
 C    0.0643931582   -0.4568462818    2.4523428824
 O    0.0994439425   -1.2226545702    3.3688726222
 H    0.8692965949    1.8910637883    0.5507443171
 H   -0.0620097722    1.8852359005   -0.9629357674
 H   -0.9025584092    1.8710608410    0.6029099356
 H    0.0543418461    0.6416383826    2.5604907033