16

 C    0.0812942207    1.5113673223    0.1827263112
 C   -0.0710993096    0.0438705078    0.0571624439
 C   -1.0877544943   -0.8142184726   -0.0895417803
 C   -2.4855195401   -1.2912579217   -0.4503500709
 C   -1.8147671949   -2.7064832241   -0.6575163969
 N   -0.5633013117   -2.0994706115   -0.1616713406
 C    0.8076640987   -2.0795247055   -0.1582845506
 O    1.6349872011   -2.9392163436   -0.2798180228
 O    1.0986678241   -0.7282903197    0.0761516063
 H    0.7188232187    1.9146402438   -0.6122198136
 H   -0.8976415216    1.9928515964    0.1198543767
 H    0.5385614389    1.7876177987    1.1398751693
 H   -3.2163469029   -1.2597130679    0.3603855938
 H   -2.9223391457   -0.8491940091   -1.3472167987
 H   -2.1909709205   -3.5175902232   -0.0314088739
 H   -1.7550236610   -3.0338679801   -1.6983365829