19

 O   -0.3271139908    0.0388568626    0.0054038268
 C   -0.0982511506    1.2120536990    0.1451671778
 C    1.2405202878    1.8719706670   -0.0924747408
 C    1.1418484222    2.9978552721   -1.1416163118
 C    2.4428150223    3.7786491233   -1.2614765178
 C    3.7039218729    3.2542433952   -2.0135488730
 C    3.0237354060    3.5041834081   -3.3808015251
 C    2.7776456468    4.7200265156   -2.4550751000
 O    4.2010167055    4.6495339368   -2.0488834930
 H   -0.9022821338    1.9177479265    0.4646401157
 H    1.5738343179    2.3020135401    0.8632412823
 H    1.9612208484    1.1051156261   -0.3903639182
 H    0.8396071967    2.5677012780   -2.1014870798
 H    0.3432613046    3.6935949330   -0.8504610550
 H    2.7211978139    4.2389298380   -0.3084157328
 H    4.4134863335    2.4783268792   -1.7240781034
 H    3.7156938652    3.6936466256   -4.2016612197
 H    2.1793619556    2.8806191279   -3.6800794597
 H    2.3726595458    5.7042888559   -2.6936284225