11

 O    0.0533556369    1.3959271764    0.3110777661
 C    0.0022155468    0.0276441137    0.1019666715
 C   -0.4093543002   -0.7918369918    1.2730068246
 C   -1.3590655419   -0.6756555834    0.0820912298
 C   -2.5448890403    0.1221786799    0.1843749718
 N   -3.4992943688    0.7744999580    0.2354921278
 H   -0.2782860233    1.8458452558   -0.4743282806
 H    0.7489313318   -0.3802620568   -0.5787075520
 H    0.0555636906   -1.7561084702    1.4384818222
 H   -0.6835632442   -0.2418908672    2.1649678341
 H   -1.4566742172   -1.5438513044   -0.5610128654