18

 C    0.1066557047    1.5301946658    0.0361577613
 N   -0.0742031567    0.0888392451   -0.0230074454
 C   -0.1113254003   -0.6404282802    1.2535588060
 C   -1.5091147704   -1.0966955676    1.7006857186
 O   -1.9208595195   -2.3083375173    1.1222249574
 C   -0.1960358134   -0.6158898448   -1.1775390025
 O   -0.4430074838   -1.8204441566   -1.2050608577
 C   -0.0040553052    0.1085893302   -2.4237407198
 C    0.1397840148    0.6157412500   -3.5046758001
 H    1.0612047853    1.7821404998    0.5133593409
 H    0.0964384255    1.9480049307   -0.9694401611
 H   -0.7011188979    1.9925858315    0.6150834678
 H    0.5322138313   -1.5226620376    1.1732588856
 H    0.3167184845    0.0298930527    2.0043383837
 H   -1.4871296805   -1.2469381806    2.7880733537
 H   -2.2248704902   -0.2773738486    1.5056945783
 H   -1.5540214255   -2.3394019013    0.2237811997
 H    0.2661282375    1.0594794489   -4.4623115666