19

 C    0.0273659553    1.5618638631   -0.0759023163
 C    0.0297797959    0.0318095009   -0.0627359433
 C    0.7572955962   -0.5256293034    1.1675736277
 C    0.9199580963   -2.0309605619    1.1247636026
 O    1.9438247429   -2.6079754238    1.3910946649
 O   -1.2879367225   -0.5095901438   -0.0088712767
 C   -1.9961903806   -0.4676645438   -1.2359698454
 C   -3.2457104729   -1.2049295009   -1.1034062803
 C   -4.2819660515   -1.8054783245   -1.0198063608
 H    1.0522295377    1.9447813825   -0.0957221450
 H   -0.4892179584    1.9565081124   -0.9554835115
 H   -0.4719777441    1.9467994823    0.8185842430
 H    0.5297035655   -0.3346603914   -0.9760459489
 H    1.7433825744   -0.0694803575    1.2872685480
 H    0.1523199929   -0.2763560357    2.0506725445
 H    0.0042926794   -2.5833747347    0.8251750824
 H   -2.2157517860    0.5688574342   -1.5351377805
 H   -1.3884262474   -0.9097498881   -2.0434601889
 H   -5.1966532030   -2.3394145359   -0.9409807555