20

 C   -0.8279738657    1.4507411720    0.3975183436
 C   -0.3128748588    0.0367050985    0.2293296353
 N    1.0252206997   -0.2994969877   -0.2361476227
 C    1.9956692297    0.7333624855   -0.5717814581
 C    0.6920715880   -0.5880663711    1.1712150597
 C    1.2967267441    0.1707247623    2.3617128009
 N    2.5932144562   -0.3098301481    2.8273486886
 C    0.5641303893   -2.0092050325    1.4500932192
 N    0.4618183501   -3.1285107029    1.7233191229
 H   -0.0994968337    2.1387019740    0.8276414497
 H   -1.1339375505    1.8510732500   -0.5748687565
 H   -1.7107042382    1.4484659522    1.0445346765
 H   -1.0672906060   -0.6408048390   -0.1696106422
 H    1.9947097767    1.6252337829    0.0687056257
 H    2.9974961625    0.2935126944   -0.5455975186
 H    1.8032142523    1.0577336849   -1.5988946627
 H    1.3906918929    1.2300310414    2.1165446653
 H    0.5896602467    0.1066261987    3.1964682032
 H    2.5243844471   -1.2845995952    3.1066963805
 H    3.2759604775   -0.2740990601    2.0762087397