19

 C    0.0859987729    1.4209862758   -0.3101761063
 C    0.0033401565   -0.0550530975    0.1011222766
 C    0.6228808494   -0.2925729648    1.4847549672
 C   -1.4385230461   -0.5734814983    0.0374803825
 C   -2.0004111423   -1.0374235317   -1.2980939543
 C   -1.6832881576   -2.0496427262   -0.2377106255
 C   -2.3636737491    0.0761521325    0.9343918659
 N   -3.0913264760    0.6088302469    1.6600192135
 H    1.1252610669    1.7634324951   -0.3085837749
 H   -0.3228880390    1.5797314580   -1.3128959151
 H   -0.4763939249    2.0520199012    0.3861081926
 H    0.5640075729   -0.6486437401   -0.6332574867
 H    0.0827216845    0.2675041820    2.2553654320
 H    0.5956631923   -1.3520061301    1.7580616195
 H    1.6664719391    0.0360573710    1.5008118620
 H   -3.0412836175   -0.8264130155   -1.5116087029
 H   -1.3360572703   -0.9540229483   -2.1512395410
 H   -0.7994527593   -2.6667204434   -0.3569888885
 H   -2.5070403924   -2.5316534367    0.2747614835