13

 O   -0.2871605646    0.0209148251    0.0018256160
 C   -0.0949570799    1.2163058035    0.0091542327
 N    1.1274445556    1.8264370125    0.0022050039
 C    2.3687586532    1.1777587894   -0.0129557430
 C    3.6064074824    1.7937058704   -0.0182980184
 N    4.5165077923    0.7865262351   -0.0338278469
 N    3.9607320395   -0.4338724111   -0.0388835532
 C    2.6491262782   -0.2114312749   -0.0259864779
 H   -0.9116613082    1.9640784196    0.0203008900
 H    1.1322379435    2.8344474071    0.0086756718
 H    3.8948488196    2.8325938116   -0.0125301152
 H    5.5184588168    0.8680667758   -0.0415236230
 H    1.9427622418   -1.0228800140   -0.0263120469