17

 O   -0.1080697382    1.1282086104   -0.7677071223
 C    0.0060294328   -0.1978414712   -0.2938076810
 C   -1.3317260026   -0.6485647468    0.2830171353
 O   -2.3874474586   -0.4675142451   -0.7050470120
 C   -2.5437192847   -1.8773249459   -0.8827949589
 C   -2.0274454733   -2.3908740934   -2.2171443752
 O   -1.4726950737   -1.7039912127   -3.0325100252
 C   -1.6189775965   -2.1757201628    0.3260136620
 O   -0.5839997526   -3.0788266605    0.0294101354
 H   -0.8137622898    1.1049198538   -1.4267354414
 H    0.3280764888   -0.8866659479   -1.0843218708
 H    0.7717040509   -0.1981749437    0.4904031193
 H   -1.5696992144   -0.0859933590    1.1924723374
 H   -3.5881378183   -2.2002436705   -0.7679824248
 H   -2.2187907294   -3.4732362374   -2.3870642131
 H   -2.1769282005   -2.4795082397    1.2186403060
 H   -0.0935137698   -3.2732971776    0.8339025292