18

 C    0.0794121202    1.5125057617   -0.0771219555
 C    0.0236613488   -0.0065586414    0.1368643182
 O    0.7061553909   -0.3977835655    1.3267368690
 C   -1.3570494023   -0.5015657906    0.1208286824
 C   -2.5059346476   -0.8720543256    0.1553999796
 C   -3.8299168223   -1.3948821709    0.1708759217
 C   -4.0520745521   -2.8653246717   -0.0888658690
 N   -4.7786471540   -0.5561497797    0.4128646315
 O   -6.0189398646   -1.1931629909    0.3986219584
 H    1.1209329342    1.8432790104   -0.0530015137
 H   -0.3630654131    1.7870149775   -1.0389776888
 H   -0.4754952241    2.0303213560    0.7116965111
 H    0.5832160628   -0.4969761553   -0.6691066782
 H    0.1775119203   -0.0953246151    2.0739644632
 H   -4.5697872440   -3.3226252035    0.7600726852
 H   -4.6986888947   -2.9993699790   -0.9618145813
 H   -3.1051807341   -3.3777161702   -0.2563059249
 H   -6.6233783243   -0.4675335863    0.5890710212