20

 C    0.0857305930    1.3386329978    0.1086380505
 O   -0.1624931758   -0.0303831558   -0.1047216432
 C    0.5548484018   -0.5808411587   -1.1948921223
 C    2.0703788571   -0.7777917059   -0.9215494720
 C    2.4814380325   -2.0042994367   -1.7640541128
 C    1.2141555833   -2.8441068086   -1.8725558208
 C    0.4323725323   -3.0917263749   -0.6081812413
 C    0.0322549082   -1.9645622800   -1.5288076223
 H    1.1263447092    1.5369553237    0.4069942859
 H   -0.1313763084    1.9372365894   -0.7911940839
 H   -0.5749388611    1.6670047504    0.9152040419
 H    0.4193757774    0.0714573771   -2.0754474520
 H    2.6637154426    0.1082244013   -1.1599483601
 H    2.1997177557   -0.9730576870    0.1478431732
 H    2.7927948774   -1.6905875211   -2.7675554815
 H    3.3249393506   -2.5472938903   -1.3231769611
 H    1.1476622567   -3.5775737910   -2.6686626946
 H   -0.2180972707   -3.9591452248   -0.5918097036
 H    0.8745400532   -2.8567738282    0.3539938768
 H   -0.9088082949   -2.0368063169   -2.0614368469