20

 C    0.0041776914    1.5841397023    0.0303760700
 C    0.1208596022    0.0579881895    0.0140482290
 C    0.5868373198   -0.4859822759   -1.3433169940
 C    0.7400482674   -2.0039699672   -1.3482091234
 C    1.3770789285   -2.7119022565   -2.5600746730
 N    2.7504494649   -2.2056511714   -2.6543854823
 C    2.4471321866   -3.3495805202   -1.7190180689
 C    1.8586409634   -2.6854968047   -0.4924521406
 O    2.0629472260   -2.7660348900    0.6836316821
 H    0.9694703209    2.0564230899   -0.1831046679
 H   -0.7090550957    1.9364162332   -0.7235884989
 H   -0.3353701166    1.9472344787    1.0053689320
 H    0.8170590554   -0.2732154216    0.7928114484
 H   -0.8504564640   -0.3871966217    0.2687588408
 H   -0.1322601506   -0.1962331540   -2.1222435676
 H    1.5453192793   -0.0344154258   -1.6207928348
 H   -0.2034881055   -2.4940724173   -1.0716040046
 H    0.8656672063   -3.1428892749   -3.4110020407
 H    3.1892556576   -2.6305908357   -3.4717826210
 H    2.9669278226   -4.2939465668   -1.8171812447