15

 C   -0.0077026836    1.4127150845    0.0079512480
 O   -0.0234207150   -0.0140218857    0.0034423889
 C   -1.2335221598   -0.6047479322    0.0107928895
 N   -2.3167732563    0.1073991745    0.0214619794
 N   -3.4805302350   -0.5845841670    0.0281392611
 C   -3.6748038531   -1.9615455868    0.0250758222
 O   -4.7942953079   -2.4456128667    0.0320783287
 C   -2.4105464205   -2.6965853759    0.0129804466
 C   -1.2307593747   -2.0416110041    0.0060707491
 H    1.0452408594    1.6952648023    0.0007025826
 H   -0.5164146939    1.8114376427   -0.8751244523
 H   -0.5026265305    1.8056716312    0.9013898867
 H   -4.3128555531   -0.0114814769    0.0364091320
 H   -2.4802393469   -3.7776965399    0.0099781005
 H   -0.2760857091   -2.5557891701   -0.0029332128