18

 C   -0.0336914914    1.4289930387    0.0408048661
 N   -0.0027103846   -0.0201480518   -0.0056098892
 C   -0.1363875096   -0.7357025089    1.2536034516
 C    0.0149275461   -0.6735710020   -1.2030105640
 N    0.0130863373   -2.0206587947   -1.1902522701
 C    0.0477960713   -2.6399441908   -2.3644504312
 N    0.0820503013   -2.0974669906   -3.5807038881
 C    0.0753042072   -0.7554762091   -3.5823482822
 C    0.0402010992    0.0150111425   -2.4382760619
 H    0.8020692810    1.8672357104   -0.5166270568
 H   -0.9690352504    1.8413651168   -0.3627457278
 H    0.0548611711    1.7474343868    1.0806383324
 H   -1.1056214042   -0.5270208568    1.7261121036
 H   -0.0592782692   -1.8030078688    1.0594173214
 H    0.6563338053   -0.4341987564    1.9482274408
 H    0.0470314284   -3.7279204296   -2.3221374566
 H    0.0963790227   -0.2752615695   -4.5586594752
 H    0.0262889383    1.0939084637   -2.5031939228