21

 C    0.0980193659    1.4948190369   -0.0401239043
 N    1.2843649717    0.6161278213    0.0231165019
 C   -0.0701815916    0.0227828560    0.0046214057
 C   -0.4660993567   -0.6925689464    1.2829587265
 C    0.0192380659   -2.1487263292    1.2303143250
 C   -0.6430202939   -2.9459312989    0.0904983857
 C   -0.7555045235   -2.1583859078   -1.2105898596
 N   -1.8710335410   -1.1933612874   -1.2839686968
 C   -0.4875143055   -0.6906762297   -1.2469431159
 H   -0.0777759280    2.0874913631    0.8539923205
 H   -0.1206324731    2.0118114699   -0.9718464758
 H    1.7104742514    0.5493398388   -0.8993820166
 H   -0.0164655057   -0.1696337137    2.1317073243
 H   -1.5552946366   -0.6565488447    1.3976005350
 H    1.1067702620   -2.1373521156    1.0872109818
 H   -0.1675478146   -2.6503928276    2.1854668458
 H   -0.0738863735   -3.8643817907   -0.0908044914
 H   -1.6525913852   -3.2537378974    0.3864100911
 H   -0.5333884903   -2.7134836551   -2.1195246849
 H   -2.2373360279   -1.1405899358   -2.2303893589
 H   -0.0777590398   -0.2716478762   -2.1664957791