18

 C   -0.0272918873    1.5777741431    0.0466676384
 C   -0.0775173670    0.0387526163   -0.0077551466
 C   -1.5303149099   -0.4736542473    0.0216436971
 C    0.6861656470   -0.5065038178   -1.1762175570
 C    1.7971007823   -1.3184081653   -1.2663616244
 O    2.5021625527   -1.8463611022   -0.2435461733
 N    2.1164625320   -1.5369226416   -2.5625185859
 N    1.2574795503   -0.8993997365   -3.3192955238
 N    0.4025299247   -0.2835244171   -2.4928972091
 H    1.0041732270    1.9401361628    0.0576687175
 H   -0.5305160205    2.0232426313   -0.8195226163
 H   -0.5318850909    1.9462945400    0.9452186981
 H    0.4343348443   -0.3471045854    0.8809473566
 H   -2.0966882651   -0.1143178041   -0.8455730013
 H   -1.5649922112   -1.5664034754    0.0148890838
 H   -2.0442274231   -0.1178539135    0.9200378563
 H    3.2156287722   -2.3640001609   -0.6371359495
 H   -0.3429620975    0.2665976836   -2.8884815606