19

 C   -0.0003626577    1.5325992394    0.0449636115
 C   -0.0000887074    0.0315797147   -0.0262602526
 C    0.0086758109   -0.6476643545   -1.1735980049
 C   -0.0347710904   -2.1491318190   -1.2338670228
 O   -0.3404540874   -2.7546469939    0.0097922738
 C    0.4044948438   -2.1827442720    1.0792040814
 C   -0.0097201315   -0.7146801307    1.2883501777
 C    0.1986354196   -2.9916825628    2.2765111033
 C    0.0395439942   -3.6223429056    3.2861870011
 H    0.8845135777    1.9050896421    0.5770562390
 H   -0.0170026055    1.9844296938   -0.9504524653
 H   -0.8730902378    1.9000526818    0.6003605547
 H    0.0467357244   -0.1273018668   -2.1278829716
 H   -0.8174206303   -2.4834458740   -1.9251551833
 H    0.9225134476   -2.5408720788   -1.6264288427
 H    1.4783085022   -2.2024597106    0.8224746761
 H    0.6777139225   -0.2435920056    2.0020821985
 H   -1.0056175880   -0.6798558471    1.7480426005
 H   -0.1009419167   -4.1925541805    4.1710262755