14

 N    0.4265383857    1.0181568936    0.6352108646
 C   -0.0776245072   -0.2167037161    0.0410174141
 C   -1.5234978988   -0.1324228124   -0.1858403025
 C   -2.7027871656   -0.0598653426   -0.3968040961
 C    0.6088442397   -0.5961415166   -1.2601468867
 N    1.3085839243    0.1720778607   -2.0398600979
 C    1.6696340297   -0.7019732794   -3.0371165701
 N    1.2376512372   -1.9234119779   -2.8935944809
 O    0.5194556626   -1.8581367038   -1.6893860626
 H    1.4318593029    0.9369517312    0.7622895305
 H    0.2887910137    1.7798424956   -0.0236653026
 H    0.1112413085   -1.0354562401    0.7484565977
 H   -3.7485849548    0.0017315869   -0.5732090702
 H    2.2724348621   -0.4181289393   -3.8874359972