21

 C   -0.2269491116    1.4742879646    0.1437444676
 C   -0.0346402303   -0.0033112980    0.0298703075
 C    0.1105913819   -0.7428645205   -1.0660764201
 C    0.2424027222   -2.1930037403   -0.7051850511
 O    0.2142075705   -2.2246682449    0.7182229351
 C    0.0039814590   -0.9102267949    1.2444023460
 C    1.0844498266   -0.5724867886    2.2489075203
 C    0.7741334365    0.3366998229    3.4151190269
 C    1.0036866767   -1.1344946675    3.6434804456
 H    0.5674786530    1.9339075098    0.7427228003
 H   -0.2372912331    1.9525967390   -0.8390447839
 H   -1.1726778663    1.7114829198    0.6475964052
 H    0.1204029631   -0.3820354181   -2.0876995630
 H   -0.5823168469   -2.8005685671   -1.1136896124
 H    1.1801724828   -2.6429824711   -1.0673906115
 H   -0.9677955707   -0.8869843310    1.7729439444
 H    2.0767040037   -0.4907566230    1.8135045932
 H    1.5363073518    1.0379931737    3.7356366875
 H   -0.2398173415    0.7118396762    3.5122827381
 H    0.1453573326   -1.7521860644    3.8860342466
 H    1.9247135201   -1.4455929468    4.1229571776