17

 O   -0.0865957205    1.4571450777   -0.1088648107
 C    0.0342113268    0.0459879351   -0.0777610390
 C   -1.3732217614   -0.5260631475    0.1246293197
 C   -1.4122648295   -2.0149761495    0.1362843241
 C   -1.6481885784   -2.8856010609    1.1417856236
 N   -1.5427064975   -4.1757698640    0.6240935744
 C   -1.2485908281   -4.1513918821   -0.7331033318
 O   -1.1046112835   -5.0855789016   -1.4965601776
 N   -1.1594967843   -2.7893174382   -1.0021380696
 H    0.7912128099    1.8346432647   -0.2161097235
 H    0.4656691530   -0.3414162436   -1.0148458567
 H    0.6844635256   -0.2920286209    0.7434885278
 H   -1.7685468234   -0.1504361453    1.0731589707
 H   -2.0200308268   -0.1247370949   -0.6665152590
 H   -1.8765257116   -2.6971571790    2.1766909371
 H   -1.6953267462   -5.0373153616    1.1164633830
 H   -0.9909488442   -2.4477887583   -1.9318814425