20

 C   -0.3629592577    1.4799072151   -0.0706264892
 C   -0.0447864204    0.0028447419    0.0207954043
 C    1.3122878022   -0.5866488457   -0.3475941068
 N    2.4037197740    0.2790704337   -0.6708025771
 C    2.8498217944    1.0403707956    0.2360428520
 O    2.4425522954    1.1715003348    1.5212891148
 C    1.6369453340    0.1174038512    2.1040888690
 C    0.8230339775    0.7540422007    3.2224449526
 C    0.8194721300   -0.6451620397    1.0798345916
 H    0.4688955154    2.1133221327    0.2390386047
 H   -0.6250582156    1.7496579391   -1.0990918860
 H   -1.2216086757    1.7261094595    0.5638520398
 H   -0.8757083309   -0.6270799717   -0.2899502783
 H    1.3046312207   -1.4910183171   -0.9469227517
 H    3.6585141578    1.7384477524    0.0283148367
 H    2.3484466138   -0.5967842839    2.5431090568
 H    0.1062761750    1.4747510164    2.8217651265
 H    0.2698951778   -0.0188506426    3.7650027629
 H    1.4809097249    1.2699155521    3.9273781633
 H    0.4822439876   -1.6063792645    1.4593786942