18

 C   -0.0106639941    1.4254403156   -0.1176658184
 O   -0.0227593995    0.0250202187    0.0554429657
 C   -1.3070971549   -0.5677262851    0.0264700638
 C   -1.8194658809   -0.7712878360   -1.4010540169
 C   -1.1645948599   -1.9171979901    0.7605744426
 C   -0.8170957322   -1.7656412631    2.1624182555
 C   -0.5460347862   -1.6344910543    3.3324479731
 C   -0.2379345107   -1.4831806412    4.6533330690
 N    0.0219698772   -1.3537115046    5.7784570349
 H    1.0248669317    1.7512184653    0.0028075913
 H   -0.3583260676    1.7310890784   -1.1149254022
 H   -0.6318755994    1.9299938877    0.6375485635
 H   -2.0175443315    0.0611689341    0.5865636825
 H   -1.8938995523    0.1832215572   -1.9284250783
 H   -1.1382350687   -1.4191947123   -1.9615754646
 H   -2.8146767683   -1.2268924110   -1.3979696652
 H   -2.1007912338   -2.4816808496    0.6762407749
 H   -0.3874736689   -2.5021161497    0.2529020288