14

 O    0.0755848492    1.2499102022   -0.1157229592
 C    0.0649720008   -0.0867025120   -0.0587336751
 N    0.0173929305   -0.8174166603   -1.1675571871
 N    0.0254474895   -2.0634025878   -0.6238791432
 C   -0.0048061624   -3.3805332737   -1.1093409505
 C    0.0256466305   -4.2176508584   -0.0620205236
 C    0.0807911725   -3.4235367087    1.2391488143
 C    0.0751652618   -2.0167021578    0.7217166332
 N    0.1022136713   -0.7610742627    1.1339545721
 H    0.1119816624    1.5610886416    0.7968216284
 H   -0.0454494697   -3.5673479659   -2.1708106595
 H    0.0136170964   -5.2951168658   -0.1120193308
 H   -0.7776794659   -3.6298823350    1.8888803365
 H    0.9804876432   -3.6464889956    1.8244283946