16

 O   -0.6374771711    1.3005166218    0.5624030033
 C    0.1565678776    1.3887950384   -0.3296314793
 C    1.3630445256    2.3376580366   -0.3312582592
 O    2.1222538906    2.3650888023   -1.2715105220
 O    1.4423618243    3.0586342021    0.7809355964
 C    2.5765813068    3.9606964788    0.8975650344
 C    2.2912084010    5.3002774087    0.2789187301
 C    3.4214568939    6.0665266801   -0.3099277188
 N    2.3888819334    5.4881539143   -1.1754113551
 H    0.1129410592    0.7933616520   -1.2631107246
 H    2.7336489742    4.0475392971    1.9751299848
 H    3.4474123518    3.4894116470    0.4338201503
 H    1.4715335291    5.8459473226    0.7411329861
 H    3.4239404701    7.1508250899   -0.2489087579
 H    4.4093150351    5.6115720114   -0.2923997860
 H    2.7219467685    4.6286011468   -1.6062359425