16

 C   -0.0390874648    1.4829947987   -0.0504971647
 C    0.0052165591   -0.0070960835    0.0286063831
 N    0.0532024366   -0.7597822558   -1.0589841167
 N    0.0823813368   -2.0359531250   -0.5997534038
 C    0.0550021486   -2.1376493642    0.7447777400
 C    0.0784163692   -3.4319881592    1.4845859223
 C    0.0039011607   -0.8240643115    1.2010675898
 C   -0.0396323637   -0.4067676078    2.5499705073
 N   -0.0755600965   -0.0617198168    3.6562081709
 H    0.8172979439    1.9316718578    0.4635119035
 H   -0.0259591261    1.7977913312   -1.0953963033
 H   -0.9431240303    1.8772746359    0.4250610859
 H    0.1206130332   -2.7888580833   -1.2668814548
 H    0.9864376486   -4.0039302845    1.2647229697
 H    0.0489888380   -3.2431031644    2.5592037894
 H   -0.7822995934   -4.0582048077    1.2257895213