17

 N    0.1143844830    1.4266533338   -0.3553992301
 C   -0.0014246634    0.0593830457   -0.0909385279
 C   -1.1150612856   -0.7040373625    0.1002323485
 O   -0.6777760346   -2.0050649429    0.2744684981
 C    0.6612660932   -1.9368711096    0.1593793505
 N    1.1269704999   -0.7493878076   -0.0544254072
 C   -2.5521807903   -0.4290775863    0.1478418277
 C   -3.5704880339   -1.4808113631   -0.2420251416
 C   -3.4537538441   -1.0574848658    1.1964486426
 H    1.0796147747    1.7190960683   -0.2715527245
 H   -0.4707858163    2.0023319459    0.2359075203
 H    1.2090799049   -2.8607261036    0.2567042358
 H   -2.7868614843    0.5912051113   -0.1382829031
 H   -4.4355633166   -1.1589745574   -0.8108452089
 H   -3.1886966888   -2.4583926191   -0.5122188905
 H   -2.9920952809   -1.7515869493    1.8896064799
 H   -4.2387692470   -0.4439247378    1.6246481804