19

 N   -0.0375436208    1.5109537269    0.0001825320
 C   -0.0100675511    0.0489753499   -0.0898702743
 C   -1.4201461797   -0.5417214119    0.1081497902
 C   -2.0219201979   -0.1912471075    1.4623016985
 C   -2.6594535024    1.1978609973    1.6845909832
 O   -3.8867663340    0.6035860248    2.1591619431
 C   -3.4429733076   -0.7119064187    1.7777076355
 C    0.5811310187   -0.4426200312   -1.3546129962
 N    1.0417116754   -0.7853933335   -2.3584004657
 H    0.9059233402    1.8840431809   -0.0447749833
 H   -0.5378275207    1.8961467296   -0.7964406513
 H    0.6287119161   -0.3140487359    0.7248965593
 H   -2.0734478806   -0.1907821859   -0.7011759131
 H   -1.3533875857   -1.6307676140    0.0012106118
 H   -1.3157621774   -0.4423422594    2.2597988923
 H   -2.1936148171    1.8465277897    2.4325347521
 H   -2.8156998291    1.7747942076    0.7637101491
 H   -3.9883392249   -1.0919353297    0.9010308088
 H   -3.5384641514   -1.4364261591    2.5945487979