15

 C   -0.0065776827    1.4867101240   -0.0189800158
 N    0.0082702998    0.0262375687    0.0005443908
 C    0.0439593327   -0.6831779486   -1.1749028188
 C    0.0624469673   -2.0286533360   -1.2376967473
 C    0.0447540851   -2.8094881125   -0.0109106744
 O    0.0579663163   -4.0189082439    0.0843413470
 N    0.0085042894   -2.0015448561    1.1425037306
 C   -0.0105199768   -0.6242337550    1.2405802047
 O   -0.0407759801   -0.0357489947    2.3006025592
 H    0.9032487316    1.8739829377   -0.4875036120
 H   -0.8790139067    1.8526368408   -0.5683193130
 H   -0.0565568654    1.8275202950    1.0133253263
 H    0.0561680216   -0.0685399705   -2.0683711244
 H    0.0899995222   -2.5529004062   -2.1813787091
 H   -0.0048985743   -2.4916063325    2.0270815863