21

 C    0.3030166852    1.4472686414    0.0051625580
 C   -0.0939579645   -0.0437651571   -0.0163042635
 C   -1.6327437465   -0.1736551492    0.0456021127
 C    0.4071531828   -0.6834060003   -1.2917281153
 C    1.0885329245   -1.8227062907   -1.3766999230
 C    1.4848945992   -2.6670633612   -0.1975015887
 C    1.2456299982   -1.9855305754    1.1289443875
 O    1.9186469581   -0.7373573195    1.3294571809
 C    0.4933311577   -0.7253207739    1.2115722090
 H    1.3907519359    1.5520569398   -0.0037194099
 H   -0.1050900418    1.9688554634   -0.8670934979
 H   -0.0826844875    1.9419333820    0.9036127369
 H   -2.0940001657    0.2972245968   -0.8282305795
 H   -1.9410794605   -1.2235687944    0.0633115568
 H   -2.0314044811    0.3182653854    0.9401707251
 H    0.1605221124   -0.1434195120   -2.2044702127
 H    1.3878145026   -2.1928604891   -2.3543238961
 H    0.9286463769   -3.6161319372   -0.2105995442
 H    2.5445075126   -2.9489239847   -0.2722857354
 H    1.2615941160   -2.6383966565    2.0027398887
 H   -0.0208793546   -0.4908115777    2.1463081107