16

 O   -0.0529586472    1.4671113332   -0.1219575423
 C    0.0037004403    0.0516552450   -0.0132265031
 C   -0.0204878290   -0.6236121383    1.3987355403
 C   -1.5149880116   -0.1663257606    1.5250781198
 O   -1.8562257962    1.1464379320    1.8239220099
 C   -1.3702786162   -0.6685612698    0.0422868646
 C   -0.6073543216   -1.8669439973    0.6556474912
 O    0.1968841077   -2.5947959411   -0.2388401157
 H    0.8414545774    1.8120247146   -0.0368957448
 H    0.7249227557   -0.3581981189   -0.7221898813
 H    0.7556767499   -0.6110689129    2.1664901135
 H   -2.1352894300   -0.8056971987    2.1613091123
 H   -1.3274626107    1.7104549101    1.2409151750
 H   -2.1307495651   -0.7037840398   -0.7377424171
 H   -1.2176036350   -2.5305747394    1.2801886109
 H    0.7587113516   -3.1817528781    0.2764530469