23

 C    0.1195583523    1.3673438674   -0.3284496858
 C    0.1202390332   -0.0827056446    0.1124801755
 O    0.2541371929   -0.9624972217   -0.9988358476
 C    1.3172407340   -1.8857038649   -0.7437396984
 C    2.4897194087   -1.5859819072   -1.6726828357
 C    1.5768516051   -1.7107438347    0.7793492528
 C    0.6499529814   -2.6259157765    1.5941966429
 C    3.0234933774   -1.8631159905    1.2328407605
 O    1.2123839585   -0.3338323841    0.9634118984
 H    1.0612478961    1.6060771929   -0.8289239529
 H   -0.7081002387    1.5424753817   -1.0206950396
 H   -0.0029823908    2.0231164191    0.5381929886
 H   -0.8273106509   -0.3239882293    0.6264960900
 H    0.9388230965   -2.8950687087   -0.9490556330
 H    2.9212117140   -0.6041197689   -1.4581070516
 H    3.2755911097   -2.3429552614   -1.5834926912
 H    2.1354663664   -1.5821941091   -2.7071354318
 H    0.9674642272   -3.6699016238    1.5068482880
 H    0.6762201326   -2.3435292990    2.6504830792
 H   -0.3837062833   -2.5612746970    1.2429577930
 H    3.6741850039   -1.1501591673    0.7235835018
 H    3.0954321700   -1.6813581975    2.3090158765
 H    3.3874588836   -2.8760681648    1.0356417905