21

 C    0.0060839674    1.5881398468   -0.1540674911
 C    0.0117922430    0.0573643348   -0.2298563296
 C   -1.3631255673   -0.5558959447    0.0508958927
 C   -2.4318327708   -0.1810914386   -1.0098675673
 O   -3.2456429660   -1.3273831683   -1.2022431850
 C   -2.3649910183   -2.4289334783   -1.1543378026
 C   -1.4279651702   -2.1316677952    0.0460835829
 C   -0.1597097269   -2.8371483322   -0.0267244115
 C    0.8763339577   -3.4435397937   -0.1003866359
 H    1.0069233737    1.9931798162   -0.3315383353
 H   -0.6640198038    2.0313265304   -0.8987306339
 H   -0.3226020832    1.9333369295    0.8328415509
 H    0.3590272127   -0.2652401045   -1.2195934702
 H    0.7364548024   -0.3423386643    0.4870773841
 H   -1.6974411730   -0.2117073895    1.0350307431
 H   -3.0823640198    0.6429405506   -0.7082103414
 H   -1.9365786840    0.0962988752   -1.9560601182
 H   -2.9528356473   -3.3404449715   -1.0287320481
 H   -1.7729537096   -2.5110933200   -2.0798961693
 H   -1.9459851470   -2.4487676579    0.9575818956
 H    1.7914788605   -3.9786547447   -0.1604366700