19

 C    0.0288450440    1.5521377048   -0.0339550821
 O    1.3370962325    2.0798414065    0.1676506378
 C    2.2177977826    1.1730046863    0.8099673662
 O    1.5561120705    0.4578393885    1.8284684690
 C    0.5644024642   -0.4449076660    1.3310838805
 C    0.0110064553    0.0206586812   -0.0317964146
 C    0.7909064066   -0.5946509494   -1.2122803241
 C    2.2873009859   -0.4905196668   -1.0835267614
 C    2.9208397553    0.2673994668   -0.1918331979
 H   -0.6388396217    1.9190033671    0.7601643370
 H   -0.3354575776    1.9500367299   -0.9879125494
 H    2.9537234791    1.7948939754    1.3258431103
 H    0.9788729491   -1.4602075195    1.2595217798
 H   -0.2277465698   -0.4538752010    2.0867241316
 H   -1.0342215323   -0.2983192252   -0.1145942092
 H    0.5242651790   -1.6571069810   -1.2988338547
 H    0.4610453315   -0.1364117777   -2.1565950076
 H    2.8695902371   -1.0998914358   -1.7715852032
 H    4.0061715086    0.2657389458   -0.1489440478