17

 C    0.1815066906    1.5100338799    0.0129413853
 O    1.1800650247    0.5170932866   -0.2062102303
 C   -0.1614874561    0.0744365116    0.0137433209
 C   -0.4439365747   -0.6762027641    1.2688999315
 C    0.4598371169   -0.6601351724    2.3346618266
 C    0.1716859677   -1.3475032242    3.5092282470
 C   -1.0205603574   -2.0589341869    3.6327343802
 C   -1.9208742074   -2.0858593486    2.5703038249
 C   -1.6308714324   -1.4021002953    1.3929378147
 H    0.2437678808    2.0345017574    0.9652401122
 H   -0.0657234561    2.1262757484   -0.8507747619
 H   -0.6527692406   -0.3160850878   -0.8784180128
 H    1.3946468500   -0.1228946046    2.2198777579
 H    0.8826611014   -1.3330921905    4.3289867827
 H   -1.2429579163   -2.5956389578    4.5489667163
 H   -2.8471189730   -2.6447091459    2.6549928844
 H   -2.3315179281   -1.4304788858    0.5631905505