18

 C   -0.3169665887    1.4612469513    0.3128419238
 C   -0.1361076064   -0.0462084659    0.2671766815
 O    0.8047109844   -0.6330425403    0.7721723902
 N   -1.1125937986   -0.7255893704   -0.3993350197
 C   -2.4720054532   -0.3841589211   -0.8355284305
 C   -2.7803236417   -1.9007298649   -0.9139583042
 C   -1.3175579313   -2.1703240794   -0.4036625657
 C   -3.8533819038   -2.4113298425    0.0124967760
 O   -4.5207080130   -1.7193328164    0.7379743841
 H    0.5907339561    1.9077738660    0.7175814989
 H   -0.5198502657    1.8732652593   -0.6805493395
 H   -1.1617226967    1.7262028297    0.9584496504
 H   -3.0765842853    0.1367680093   -0.0862825664
 H   -2.5183215245    0.1561455659   -1.7867052692
 H   -2.9559419412   -2.2927704318   -1.9191322311
 H   -0.6721181485   -2.7169726718   -1.0972084453
 H   -1.2360595687   -2.6269043501    0.5891667088
 H   -3.9802167532   -3.5174769470   -0.0011411420