16

 C   -0.0588716390    1.5955238870   -0.0403184801
 C    1.4794905266    1.3365119544    0.0060030143
 O    1.1771031844    0.1815189806    0.8798148292
 C   -0.0138281795    0.0364179885    0.0140065104
 C    0.6376300431   -0.3007919157   -1.3117437095
 C    0.7117799037   -1.0433840446   -2.4522001708
 N    1.8102508360   -0.5705640014   -3.1540514844
 C    2.4340606345    0.4560480384   -2.4614323743
 C    1.7157157752    0.6377981630   -1.3175224669
 H   -0.4292758429    2.0267197278    0.8921944328
 H   -0.4866559666    2.0814702408   -0.9202525971
 H    2.1986994388    2.0378844913    0.4239903428
 H   -0.8049708798   -0.5771327277    0.4400898478
 H    0.1137897468   -1.8487480208   -2.8474478307
 H    2.1313002247   -0.9447194391   -4.0296000159
 H    3.3116527841    0.9353390576   -2.8645901475