21

 C   -0.1312322301    1.5751379042   -0.0294790838
 C    0.0250874617    0.0548759625   -0.0025491239
 C    0.7621273038   -0.5737288385   -1.2276626448
 C    1.7168229287   -1.5692809578   -0.5317492681
 C    2.9236219771   -0.8123634876    0.0598968247
 C    2.2703793871   -0.1631714556    1.3220039073
 O    2.3948906689    1.2439489955    1.4247552255
 C    0.7977959540   -0.6151980764    1.1638535921
 O    0.9867517707   -1.9441587022    0.6555144425
 H    0.8269358868    2.0799926663   -0.1531801579
 H   -0.7910351755    1.8668886875   -0.8539868123
 H   -0.5811159354    1.9433843460    0.8988144259
 H   -0.9766767518   -0.3861408678    0.0478282237
 H    0.0677839906   -1.0867089121   -1.8975486317
 H    1.3047960559    0.1731646019   -1.8145082265
 H    1.9601037404   -2.4650886775   -1.1032540118
 H    3.7286403680   -1.5001556708    0.3303382980
 H    3.3262480286   -0.0484467781   -0.6110741435
 H    2.6644601247   -0.6400502691    2.2291773858
 H    3.3120835322    1.4474383798    1.6297156564
 H    0.2456146437   -0.6548341102    2.1036706223