21

 C   -0.1945696962    1.5088047539   -0.1099539526
 C   -0.0823163716   -0.0051613986   -0.0661017344
 O   -1.3848655774   -0.5527675077    0.0236802239
 C   -1.4070086384   -1.9647508421    0.0512346060
 C   -2.8626151863   -2.4005611417    0.0345830348
 N   -3.4937695576   -1.9469108759   -1.1997461663
 C   -4.9309371890   -2.1721208073   -1.2144485186
 C   -5.5340977074   -1.6644108173   -2.4505077387
 N   -6.0166740038   -1.2473300964   -3.4133044522
 H    0.7989348327    1.9618487561   -0.1761752432
 H   -0.7783009544    1.8259636154   -0.9788301399
 H   -0.6879707670    1.8841910705    0.7909957105
 H    0.4245288408   -0.3843184521   -0.9687862874
 H    0.5197672754   -0.3251093414    0.8006742433
 H   -0.8841990586   -2.3757409678   -0.8269404432
 H   -0.9075610447   -2.3474310828    0.9559881841
 H   -2.9113102469   -3.4958546300    0.0833518464
 H   -3.3611417610   -2.0092673476    0.9405060840
 H   -3.2949498383   -0.9573537807   -1.3100209957
 H   -5.1238339301   -3.2514050053   -1.1585706365
 H   -5.4703399904   -1.7172238812   -0.3621565643