19

 C    0.0368210209    1.5300671304    0.0568277039
 C   -0.0112568111    0.0344567045   -0.0164188206
 C    1.0265106872   -0.8731397295   -0.6460515584
 O    0.4563678673   -1.8700370748   -1.4476961488
 C   -0.7424789119   -2.1017410508   -0.7617062792
 C   -0.5876935353   -1.9225476033    0.7405431635
 C    0.6734704340   -1.0464570547    0.8230119347
 C   -1.2875440838   -0.8520172973   -0.0997260380
 C   -2.7080674723   -0.3764777332   -0.1223174746
 H    1.0654089083    1.8791229051    0.1968975042
 H   -0.3455202085    1.9892477142   -0.8626388452
 H   -0.5567234525    1.9144101423    0.8944731336
 H    1.9913162058   -0.5194913578   -0.9856566232
 H   -1.3762075849   -2.8583099027   -1.2058223584
 H   -0.9729674467   -2.5996118838    1.4905906258
 H    1.3731198242   -0.9698253673    1.6440110202
 H   -2.9357009323    0.2622736630    0.7389864761
 H   -2.9245237384    0.1976614005   -1.0311411465
 H   -3.4016355100   -1.2236061049   -0.0942136793