21

 C   -0.0422730983    1.5420182877   -0.0008561324
 C    0.0584787592    0.0275049716    0.0411995685
 C   -1.1730682536   -0.6653247187   -0.5231712012
 C    1.3441453377   -0.7209720320   -0.2075403013
 C    2.5822124996    0.0114279610    0.3410843678
 C    1.9095089795    0.0168595946    1.7258549099
 O    2.6036077232   -0.4334555593    2.8761798548
 C    2.0638215889    0.8986106172    2.8853527178
 C    0.6986339779   -0.7198469691    1.1937234884
 H    0.8346467197    2.0391731766    0.4183491101
 H   -0.1636846766    1.8911116991   -1.0330154653
 H   -0.9159597167    1.8837450677    0.5662389812
 H   -1.3326869836   -0.3821439491   -1.5699223640
 H   -1.0767714535   -1.7547360304   -0.4810990367
 H   -2.0724043326   -0.3858850777    0.0371567592
 H    1.3878104058   -1.5369042032   -0.9194666700
 H    3.4669363600   -0.6297535646    0.3625294903
 H    2.8457090052    0.9717350928   -0.1127831213
 H    2.8041379077    1.6980529010    2.8687411129
 H    1.2254702265    1.0571681051    3.5628718027
 H    0.1886771639   -1.5174150502    1.7218398288