15

 O    0.0870289165    1.3947622266    0.2278611066
 C    0.0223066630    0.0131036531    0.0403677416
 C   -1.4204908256   -0.5283761641   -0.0650736800
 C   -1.2588195824   -1.7859674711   -0.9706102390
 N   -0.1144550651   -1.4275034467   -1.7934422288
 C    0.6242946320   -0.3937629116   -1.3128451256
 O    1.5711175625    0.1628937672   -1.8261212923
 C   -2.0692397349   -0.8198375412    1.2062734481
 N   -2.5818856144   -1.0712225484    2.2107192698
 H    0.8376812510    1.6943844948   -0.3078409479
 H    0.5624758251   -0.5305285925    0.8333994310
 H   -2.0053416135    0.2296977460   -0.5970163335
 H   -1.0700692751   -2.6811590750   -0.3659515333
 H   -2.1505819124   -1.9642653078   -1.5763402602
 H    0.1232414034   -1.8973042093   -2.6528360463