19

 C   -0.0179845265    1.5277407397    0.0400415137
 C    0.0196905513    0.0213310890    0.0698893533
 C    0.4944848182   -0.7439005434   -1.1664102488
 O    0.3947910890   -2.1194881798   -0.6917673485
 C   -0.1237496490   -1.9338237143    0.6400060552
 C    0.7811636420   -0.8088481861    1.1857232302
 O    2.1651139523   -0.9787443904    1.1168466620
 C   -1.2211305067   -0.8537425556    0.4348440225
 O   -1.8581331514   -0.3691931888    1.5932785206
 H    0.9957142589    1.9382361007   -0.0217510102
 H   -0.5854821709    1.9015370905   -0.8201366396
 H   -0.4893999616    1.9154628880    0.9472714438
 H   -0.1474362837   -0.6058494139   -2.0434365894
 H    1.5305532260   -0.5156005930   -1.4411676503
 H   -0.2788050849   -2.9019292666    1.1159807517
 H    0.5126113932   -0.4710391887    2.1847290652
 H    2.3282016965   -1.6107422343    0.4049549695
 H   -1.9291986195   -1.0610345460   -0.3783280854
 H   -2.4833152032   -1.0349745170    1.8966523945