20

 C   -0.3474144070    1.5369506638   -0.1137945065
 C    0.1620920269    0.1049168424    0.0843984060
 C    0.7543572750   -0.4926513447   -1.1902803930
 C    1.8844658049    0.2317599771   -1.7189010736
 N    2.7962173358    0.8087446107   -2.1381610374
 C    0.7753961889   -2.0119631071   -1.4417198645
 C    0.2699340091   -2.9990091628   -0.4130253565
 C   -0.1617836910   -1.1306900912   -2.2269545757
 O   -1.5190438018   -1.0964668283   -1.9091180768
 H    0.4521999080    2.2009406095   -0.4561707899
 H   -1.1516144935    1.5596174803   -0.8548053177
 H   -0.7382822183    1.9376421718    0.8261213695
 H    0.9275163685    0.0808994996    0.8686053519
 H   -0.6609120857   -0.5284272313    0.4177075566
 H    1.6479900572   -2.3481528373   -1.9944011644
 H   -0.7109830719   -2.7183634600   -0.0249451396
 H    0.1767729372   -3.9919720866   -0.8660246998
 H    0.9615826965   -3.0861244166    0.4304952368
 H    0.0705654636   -0.9397570320   -3.2734525467
 H   -1.9364952423   -1.8806440773   -2.2819156786