14

 O   -0.5243513961    0.6491216964   -0.6380990148
 C    0.1936564349    0.9213276613    0.2866769355
 C    1.3787719197    1.8624111046    0.1967835351
 C    1.5058355010    2.6834576568   -1.1386459344
 N    1.2619406804    3.8735335195   -0.2870694257
 N    1.1619742244    5.2038020010   -0.1689258946
 N    0.9789420559    5.4013853481    1.1185473798
 C    0.9757133489    4.2188338080    1.8126750335
 C    1.1648817662    3.2228963797    0.8811099395
 H    0.0251247580    0.4988605713    1.3009887847
 H    2.2889306806    1.3413232249    0.5115441797
 H    2.4910295121    2.6810797555   -1.6062046619
 H    0.7170418038    2.4897262857   -1.8650504890
 H    0.8409847401    4.1979179272    2.8803537727