19

 C   -0.2532862289    1.3850837338   -0.2330948535
 C    1.1896811578    1.1212556474    0.1025518570
 C    0.2120184149   -0.0317280809    0.0218713181
 C   -0.2056054382   -0.7341430058    1.2490194533
 C   -1.5025798409   -1.4209454155    1.6961491321
 C   -0.7579854236   -2.6977272317    2.0815529033
 C    0.4763267342   -1.7752691486    2.2374518132
 O    0.1411941006   -0.9402166288    3.3828561001
 C   -0.8289401484   -0.3218749108    2.5403322115
 H   -0.8699441294    1.8578588206    0.5234802358
 H   -0.5076275861    1.6593822870   -1.2506632548
 H    1.9284449283    1.2178599260   -0.6850962375
 H    1.5402591557    1.4086819287    1.0875329976
 H    0.2987411549   -0.6609377967   -0.8609618812
 H   -2.4949025704   -1.3059557590    1.2783172247
 H   -1.0653232726   -3.2482226779    2.9762812877
 H   -0.6549519518   -3.3739476325    1.2288433915
 H    1.5030772002   -2.1356107928    2.2483497409
 H   -1.3076325562    0.5924902274    2.8670708701