18

 C   -0.0949562802    1.5863346022   -0.1286529341
 C    0.0005054217    0.0703281817   -0.0440603438
 C    1.1472571289   -0.5859431309   -0.8560209465
 O    1.4849880964   -0.6191333223   -2.0074426535
 N    1.6750960979   -1.1307952013    0.2938026321
 C    0.6821042721   -0.5826772749    1.2035356126
 C    1.0861093878    0.2136096819    2.4630115180
 O    0.2233328456   -0.5916017396    3.2897604399
 C   -0.0887390550   -1.4772926436    2.1973054991
 H    0.8653490986    2.0622099109    0.0940250578
 H   -0.3846894120    1.8829912654   -1.1407135336
 H   -0.8421807075    1.9798145941    0.5678360521
 H   -0.9644611683   -0.3950977644   -0.2680269923
 H    2.4811552183   -1.7190384401    0.4520989792
 H    2.1447944722    0.1087651227    2.7375275537
 H    0.8131686649    1.2746221361    2.4897374734
 H   -1.1690243370   -1.5742228107    2.0352151985
 H    0.3452856857   -2.4774625071    2.3339475773