14

 C   -0.0644763572    1.2965987795    0.0996643792
 O    0.0219827007   -0.1294879317   -0.0250946994
 C    0.6473287454   -0.5643059035   -1.1315714596
 O    1.1181264827    0.1487477120   -1.9857924166
 C    0.7012445810   -2.0271731055   -1.1978871072
 C    1.2336806564   -2.8639363390   -2.1303463173
 N    1.0300972755   -4.1735810477   -1.7406321191
 C    0.3966977696   -4.0675365242   -0.6131975412
 O    0.1562433434   -2.8068300820   -0.2100228893
 H    0.9334932980    1.7407899243    0.1306904168
 H   -0.6137024891    1.7235123416   -0.7430896244
 H   -0.5942266740    1.4779284959    1.0343545557
 H    1.7427747999   -2.6024814260   -3.0435616181
 H    0.0446592276   -4.8585326036    0.0307323503