21

 C   -0.0640355133    1.5348377034    0.0251268810
 C    0.0060636955    0.0408858471   -0.0120796377
 C   -0.1461472059   -0.7474398062   -1.0806223318
 C   -0.0070259693   -2.2163335516   -0.7753718368
 C   -1.1655510927   -3.0821465017   -1.2500645601
 C    1.4288921106   -2.7647462736   -0.9959621607
 O    1.7713009111   -2.5389082585    0.3855771748
 C    0.4069057866   -2.2016933912    0.7276732605
 C    0.2636040570   -0.7679438103    1.2466399682
 H    0.8821077540    1.9651051947    0.3773833760
 H   -0.2837584669    1.9559050429   -0.9596864407
 H   -0.8382422553    1.8768182812    0.7241760755
 H   -0.3440407735   -0.3867002085   -2.0861065199
 H   -1.2443543691   -3.0660198423   -2.3434008826
 H   -1.0362987434   -4.1248286520   -0.9412290409
 H   -2.1178518605   -2.7220068974   -0.8467389083
 H    1.4673868408   -3.8324587561   -1.2559061533
 H    2.0757566907   -2.2024510262   -1.6795368562
 H   -0.0370464903   -2.9619756688    1.3813804453
 H    1.1819081638   -0.4630113798    1.7638852293
 H   -0.5580362000   -0.6604513653    1.9688952484