21

 C    0.3336957250    1.4800619313   -0.2575955585
 C   -0.0646385569    0.0364425950    0.0194198103
 C   -1.4900669903   -0.1811339922    0.6264287361
 C   -0.8414765768   -1.0989621599    1.6743252843
 O   -1.2640191827   -1.9174200199    2.4395911054
 C    0.5801807372   -0.6690597870    1.2697491471
 C    1.5518387188   -1.7675706128    0.7848010177
 C    1.6651501842   -1.5185966064   -0.7371318648
 C    0.2990320160   -0.9294560816   -1.1346864331
 H    1.3862307110    1.5552069070   -0.5532880340
 H   -0.2682485747    1.9074953426   -1.0677575207
 H    0.1932897467    2.1084396650    0.6289222282
 H   -1.8970805883    0.7223123378    1.0952827877
 H   -2.2660118936   -0.6225818767   -0.0050791098
 H    1.0170790094    0.0163408533    2.0029825445
 H    2.5207300477   -1.7246615668    1.2881680611
 H    1.1308582640   -2.7580215622    0.9892664030
 H    2.4567908089   -0.7859879511   -0.9353341429
 H    1.9187413914   -2.4228655302   -1.2980890856
 H   -0.4403107029   -1.7373650714   -1.2009654070
 H    0.3138730959   -0.4293762940   -2.1079056989