13

 C   -0.0281452652    1.4160702682    0.0313693890
 O    0.0150682355   -0.0163666870   -0.0259408922
 C    0.6162901752   -0.5653892984   -1.0781097472
 C    0.6679227114   -1.9756047938   -1.1507831666
 N    1.2473040103   -2.5836014936   -2.1637596440
 N    1.7972712029   -1.8424215773   -3.1424548735
 C    1.7201100372   -0.5263135813   -3.0236748024
 N    1.1506477066    0.1742349555   -2.0292864788
 H    0.9817854322    1.8332518711    0.0472451549
 H   -0.5642916052    1.8217058971   -0.8301776036
 H   -0.5546348934    1.6510515519    0.9559836785
 H    0.2312749090   -2.5939629635   -0.3733638852
 H    2.1722705436    0.0482113511   -3.8276352291