23

 C   -0.4869047989    1.3732773809   -0.0606729450
 C   -0.0121348346   -0.0772262183   -0.0766881526
 C    1.0124540221   -0.4130932348   -1.1934518398
 O    1.8308684458    0.6692076928   -1.6134861951
 C    1.8130756959   -1.5884848931   -0.5788593686
 O    1.3351955737   -1.8029344399    0.7413141442
 C    0.6567215418   -0.6251831192    1.2106930071
 C    1.6702443137    0.3371087867    1.8538633625
 C   -0.3555187366   -1.0924834535    2.2537999812
 H    0.3465919894    2.0740827607    0.0230659437
 H   -1.0176382760    1.6147460942   -0.9864900958
 H   -1.1731688898    1.5522895654    0.7735924217
 H   -0.8796493570   -0.7254566673   -0.2538606865
 H    0.4930038576   -0.7160650460   -2.1061517362
 H    2.4274162648    0.9027803555   -0.8953859470
 H    1.6918235096   -2.5245549636   -1.1337527045
 H    2.8850303911   -1.3352729129   -0.5865417489
 H    2.4459145241    0.6586429960    1.1510630454
 H    1.1819426094    1.2356513008    2.2418088840
 H    2.1746637951   -0.1665436519    2.6832702318
 H    0.1548102534   -1.5579098280    3.1023253035
 H   -0.9451108168   -0.2506967998    2.6304459957
 H   -1.0351248278   -1.8298224647    1.8181447892