18

 O   -0.4316249971    0.0606195527   -0.2285972042
 C   -0.2603427648    1.2312134845   -0.0439977772
 C   -1.1522058222    2.4533602572   -0.0693390036
 N   -0.7608684722    3.2483360528    1.1502555323
 C    0.0804958113    3.3199496994   -0.0475169068
 C    1.0179508417    2.1055040265    0.0337384628
 C    2.1209224208    2.0026005106    1.1129234179
 C    3.1936922226    2.2038896666    0.0072052171
 C    2.1059923906    1.9024002436   -1.0602413169
 H   -2.1188657607    2.5996871738   -0.5344135228
 H   -1.3779756610    4.0615505233    1.1538626175
 H    0.2450294058    4.2435278280   -0.5884217715
 H    2.0681065913    2.7337076581    1.9218421900
 H    2.1539515537    0.9993951489    1.5471840944
 H    3.5465118759    3.2374801966   -0.0437829683
 H    4.0631762291    1.5433505766    0.0269072571
 H    2.1237120302    0.8621092615   -1.3961434232
 H    2.0525707354    2.5542696595   -1.9363872744