17

 C    0.4585453660    1.4815650620   -0.2653717682
 C   -0.1762288372    0.1391242891    0.0197721588
 C    0.5073214088   -1.1408921682   -0.3952882901
 C    0.4076356681   -0.7566966055    1.0678579609
 O   -1.5932339868    0.1440570302    0.0369592917
 C   -2.2315740419    0.3905927724   -1.1916429213
 C   -2.1775364237   -0.7426706017   -2.1384027165
 N   -2.1560615907   -1.6240642526   -2.8851446004
 H    1.5419810722    1.4191056337   -0.1349545055
 H    0.2785408361    1.8215138660   -1.2913074327
 H    0.0732304340    2.2414712753    0.4223922764
 H   -0.1160089510   -1.9573450851   -0.7365154976
 H    1.4693100123   -1.0676038254   -0.8909112624
 H    1.2991224748   -0.4226746227    1.5868275104
 H   -0.2960656707   -1.3121138115    1.6766729440
 H   -3.2828910177    0.5858569928   -0.9582097851
 H   -1.8378428726    1.2797927412   -1.7015737024