17

 C   -0.3489368265    0.8230415305    1.2392014960
 N    0.0268741433    0.3553569449   -0.0935569562
 C    1.1431625322   -0.5716909454   -0.1086935746
 C    0.8883874780   -1.9517180442    0.4465587729
 N   -0.3174219556   -2.3893964305    0.6924306550
 O   -0.0870953573   -3.7168497452    1.1543524592
 C    1.2378047190   -3.8846064834    1.1177832790
 N    1.7350239471   -5.0653301356    1.5634127572
 N    1.9049223512   -2.8470102983    0.6910724496
 H    0.4856201973    1.3890343955    1.6688995490
 H   -1.1987788516    1.5059290540    1.1498542691
 H   -0.6214235333    0.0222521711    1.9427604521
 H   -0.7752644729   -0.0805535696   -0.5359727798
 H    1.5010781519   -0.6949102731   -1.1396506912
 H    1.9816096270   -0.1364212479    0.4475426142
 H    1.1059343591   -5.8518904437    1.5739645631
 H    2.6863487808   -5.2613149592    1.2974039356