21

 C   -0.2326481455    1.5830525252    0.0347238185
 C   -0.0151502772    0.0869977288    0.0195419793
 O   -1.1582644828   -0.6447128294   -0.3568123018
 C    1.3264055009   -0.4938954987   -0.3670330397
 C    0.8121354672   -0.6132583201    1.0598109400
 C    1.4807362347    0.1036971787    2.1886101871
 C    0.8176250285    0.1684554873    3.5560684125
 C    2.0504705517   -0.6730726418    3.3446611037
 O    1.9333610170   -2.0655324200    3.2906909847
 H    0.6595481864    2.1224155856    0.3630942718
 H   -0.4840532585    1.9452041272   -0.9701683050
 H   -1.0594849594    1.8432726302    0.7032896633
 H   -1.3282045848   -0.4624364274   -1.2881472889
 H    1.3295390876   -1.3919756799   -0.9746713780
 H    2.1475637677    0.1909793153   -0.5581428313
 H    0.4378822848   -1.5963433419    1.3224552563
 H    2.0552054192    0.9801425365    1.9022977962
 H    0.8918051629    1.0797482482    4.1398619265
 H   -0.1201054984   -0.3676982697    3.6621585032
 H    2.9874034606   -0.3152340828    3.7721590092
 H    1.7071409973   -2.3784847616    4.1724009722