21

 C    0.1304336159    1.5388394389   -0.0662834077
 C    0.0486202312    0.0170096513    0.0869414630
 C   -1.3952429478   -0.5488314474    0.0709118497
 C   -2.2342191673   -0.0556811663    1.2642515969
 N   -3.5480301884   -0.6846218654    1.2428334388
 O   -2.1295016445   -0.1357751199   -1.0769656704
 C   -1.6906000034   -0.6174951457   -2.3378121836
 C   -1.3034815585   -2.0317914760    0.1176330960
 N   -1.1603141825   -3.1784146510    0.1208576016
 H    1.1730679865    1.8463598031   -0.1871492551
 H   -0.4292373750    1.8768626593   -0.9423091776
 H   -0.2672021679    2.0630039951    0.8069069625
 H    0.6140673204   -0.4664348896   -0.7160745323
 H    0.5232270635   -0.3047625125    1.0203546763
 H   -1.7196838095   -0.3371060997    2.1889389396
 H   -2.2523873899    1.0433531327    1.2098984345
 H   -4.0935665400   -0.3872322729    2.0440648794
 H   -4.0439098588   -0.3882364181    0.4088521563
 H   -0.7099719593   -0.2120548600   -2.6182510703
 H   -1.6429069311   -1.7131597937   -2.3582270429
 H   -2.4304313336   -0.2777911721   -3.0654846048