17

 O    0.1092452148    1.1411670682   -0.2780497428
 C   -0.0110462277   -0.2382444274   -0.0797773840
 C   -0.0711607331   -0.7745438773    1.3981341038
 O   -1.3569527099   -1.3591538510    1.1682494948
 C   -1.4399651325   -0.7601170412   -0.1268308321
 C   -2.6504801387   -0.0325360405   -0.6032775707
 C   -2.2275960225   -1.3499343025   -1.2426333536
 C    1.0105060396   -1.7481714894    1.7810069285
 O    0.8987113225   -2.9443822210    1.8062451955
 H    1.0259065063    1.3497813974   -0.4807817469
 H    0.6850913174   -0.8057814741   -0.7092093717
 H   -0.1019853552    0.0574182130    2.1169532255
 H   -3.5188150984   -0.0489491136    0.0461530485
 H   -2.4990354457    0.8893261007   -1.1536438595
 H   -1.8035444590   -1.3351909231   -2.2417128337
 H   -2.8163122036   -2.2306169647   -1.0100795204
 H    1.9789044156   -1.2423062835    2.0170258989