16

 O    0.1189510793    1.2178642276   -0.4192627430
 C    0.0003760866   -0.1150864170   -0.0988019248
 C   -0.2655054357   -0.5967753160    1.2800961124
 C   -1.3776990816   -0.7419811842    0.2330172130
 C   -2.5080745658    0.2093641923    0.3215422807
 O   -2.3745167348    1.3607108126    0.6937570091
 N   -3.7401318650   -0.3159504055   -0.0848120585
 C   -4.9719844981    0.3351329431   -0.1575445431
 O   -5.1957759418    1.4792656725    0.1180163413
 H   -0.5986444211    1.6907566736    0.0375663629
 H    0.6329885783   -0.7241109848   -0.7366590981
 H    0.1999237843   -1.5124185848    1.6273251103
 H   -0.4440527271    0.1565443754    2.0401709017
 H   -1.5834727063   -1.7357538090   -0.1502757061
 H   -3.7471721281   -1.2870146938   -0.3600809925
 H   -5.7482587430   -0.3714349423   -0.5167645052