13

 O   -0.5389193637    0.7110926776   -0.7864467163
 C    0.2664964236    0.8786141887    0.0850439653
 C    1.4518110483    1.8111511339    0.0005251542
 C    1.8027247432    2.5226234569    1.2636004873
 O    2.5374153278    1.3891627932    0.8595174653
 C    1.7923464845    2.3702663690   -1.2729373972
 C    2.0612593034    2.8274885190   -2.3600921324
 C    2.3701988355    3.3468576082   -3.5774503936
 C    2.6455947168    3.8091114345   -4.6581809357
 H    0.2235797868    0.3536151740    1.0644736901
 H    2.3080445687    3.4817587404    1.1731682736
 H    1.1683692388    2.3932585422    2.1404742599
 H    2.8863965164    4.2137284624   -5.6101495504