16

 C   -0.0859526474    1.5849683804    0.0188300845
 C   -0.0357476153    0.0720790908   -0.0286374631
 C    1.2342704843   -0.6326527422   -0.5896396107
 O    1.9889074949   -0.2192336356    0.6228747589
 C    0.6877233245   -0.6904987357    1.1268667483
 C    0.4276830893   -0.6664203986    2.5424633792
 N    0.1719146925   -0.6808042733    3.6701116464
 C    0.8692207688   -1.9295071645    0.1637640069
 O   -0.2206331014   -2.6517895124   -0.2983779414
 H    0.8770481773    1.9988136782    0.3242666267
 H   -0.3445826286    1.9879745920   -0.9657638374
 H   -0.8513724951    1.9232636192    0.7245242205
 H   -0.9769823665   -0.3872616453   -0.3353255032
 H    1.7318021818   -0.5115568266   -1.5501653716
 H    1.7361604535   -2.5371311239    0.4394521285
 H   -0.3602427525   -3.4098951227    0.2781385176