11

 O   -0.1044351473    1.4612604166    0.0005925850
 C   -0.0202437482    0.0964588779    0.0321121636
 C   -0.2663775374   -0.8131815184   -1.1881852840
 C   -1.1039115555   -0.9465830151    0.0357625848
 O   -0.3756441768   -1.7501819222    1.0061191757
 C    0.5967966168   -0.7579423468    1.1278234341
 O    1.5009700449   -0.7153527829    1.8926665480
 H    0.6543463587    1.8085501248   -0.4820560385
 H   -0.7223373029   -0.2753183466   -2.0149745372
 H    0.4268145282   -1.6039070687   -1.4566642129
 H   -2.1759938006   -0.8765002087    0.1440060213