13

 O   -0.2000860730    0.0178246479    0.0019023412
 C   -0.0324803017    1.2094670219    0.0089514094
 C    1.2722591880    1.9140789385    0.0003357701
 C    1.2814762585    3.2803875580    0.0112693418
 C    2.4991978407    4.0078126666    0.0040356402
 N    3.6645020995    3.4129282256   -0.0133871356
 N    3.6511104243    2.0871885781   -0.0240312156
 C    2.5506874699    1.1934681841   -0.0193731106
 O    2.7550509582    0.0010438137   -0.0316333296
 H   -0.8947797855    1.9174086863    0.0234443170
 H    0.3381557565    3.8219812038    0.0258261090
 H    2.5202992870    5.0904621944    0.0126033909
 H    4.5622795678    1.6437016309   -0.0375493181