16

 O    0.0711542886    1.4771513192    0.1181720268
 C    0.0237825579    0.0816841331    0.0330943358
 C   -0.0537227855   -0.6594152857    1.3926404461
 C   -1.5234847158   -0.1588611040    1.5242334106
 C   -1.3617647948   -0.6258882277    0.0433884264
 O   -2.2501669979   -0.5621556820   -0.9992946300
 C   -0.6152018916   -1.8974304299    0.6197894087
 C    0.2605257949   -2.6720131935   -0.2413808088
 N    0.9426675584   -3.3089827360   -0.9248364175
 H   -0.0906357717    1.8352691978   -0.7605442208
 H    0.7503487898   -0.3123002303   -0.6861986787
 H    0.7060005472   -0.6928103291    2.1679905037
 H   -2.1850389228   -0.7537267947    2.1595070679
 H   -1.6481409660    0.9109746195    1.6732061065
 H   -3.0912901871   -0.9480377404   -0.7305103435
 H   -1.2399478336   -2.5596935865    1.2230990467