18

 C   -0.2135452731    1.5102536560    0.3325554683
 C   -0.1545177465    0.0064883886    0.2997716643
 O    1.0188173189   -0.5869066305   -0.2909149028
 C    0.7948938394   -0.7768196116    1.0940557366
 C    1.7433489910   -0.3226303597    2.2087550144
 C    1.2551480140   -1.5348583623    3.0446517583
 O    0.3161042733   -1.0812385697    4.0008203736
 C    0.6059005068   -2.1428871512    1.7605859920
 H    0.7420207874    1.9324351767    0.6534815124
 H   -0.4470982471    1.9085732794   -0.6603938998
 H   -0.9946440949    1.8466099511    1.0231032768
 H   -1.0825491165   -0.4897738685    0.0072055543
 H    2.7918813738   -0.4084631265    1.9114990441
 H    1.5693804835    0.6526389318    2.6680588235
 H    2.0392090946   -2.1421875344    3.5131063749
 H   -0.1130548421   -1.8529373026    4.3843230903
 H   -0.4139966486   -2.5227893346    1.8671210190
 H    1.2330282060   -2.9084772422    1.2933831298