20

 C    0.0190256579    1.5071495561   -0.2143449601
 C   -0.0292865974    0.0253609415    0.0311284450
 N   -1.1192615903   -0.6137456341   -0.0123746841
 C   -1.1897769343   -2.0637295689    0.0475507872
 C   -0.5825429984   -2.7556730928    1.2798421866
 O   -0.9460340403   -4.1300042651    1.3000953684
 C    0.9393355146   -2.7131652421    1.2728247277
 C    1.4942557090   -1.3009075852    1.3643804409
 O    1.2397694253   -0.4715502047    0.2248830066
 H    0.7107685431    1.7198203943   -1.0364082875
 H   -0.9733005994    1.8826244196   -0.4606408810
 H    0.4066914828    2.0286771424    0.6676653790
 H   -2.2525217923   -2.3343187817    0.0026091914
 H   -0.7193549757   -2.4969678319   -0.8473325620
 H   -0.9517614601   -2.2435081057    2.1850231873
 H   -1.9072580727   -4.1846409853    1.2999804712
 H    1.3150400281   -3.2879460525    2.1272765418
 H    1.3097915241   -3.2018861078    0.3640322596
 H    1.1071572876   -0.7985021771    2.2622260209
 H    2.5841209383   -1.3311380093    1.4408513211