20

 C   -0.0763813579    1.5332059917   -0.0188494823
 C    0.0750644996    0.0123833049   -0.0100507192
 N    0.7626854670   -0.5055135550   -1.2070893638
 C    2.1214604618   -0.7666009807   -1.1116852713
 O    2.8539047862   -1.1592008112   -1.9871196951
 C   -0.0340446916   -0.6686084575   -2.3704258827
 O   -1.2082476686   -0.3726299128   -2.3121941218
 C    0.6105070960   -1.2101581540   -3.6294228975
 C   -0.3984149732   -1.3505533919   -4.7679082093
 H    0.8989983239    2.0285560401   -0.0594550969
 H   -0.6685777328    1.8517917621   -0.8790861506
 H   -0.5876925538    1.8626733609    0.8908528865
 H    0.6489744845   -0.3129996436    0.8620487714
 H   -0.9049587463   -0.4637027112    0.0339743692
 H    2.4851753327   -0.5667339947   -0.0859861619
 H    1.4435345842   -0.5547464205   -3.9032293834
 H    1.0937617869   -2.1640389712   -3.3948965763
 H   -1.2106995715   -2.0291653481   -4.4961114297
 H   -0.8497828773   -0.3874801865   -5.0185183115
 H    0.0986036402   -1.7436114909   -5.6590389738