21

 O    0.0226879187    1.4271575959    0.0859161839
 C    0.0425746177    0.0137609913   -0.0134918369
 C   -1.4030020716   -0.5225841609   -0.0214642623
 C   -1.2540965258   -1.9095339190   -0.6636650714
 C   -2.3995099071   -2.5794976159   -1.4471183155
 C   -1.6904205487   -3.2221883266   -2.6750531125
 C   -0.4519197400   -2.3588852756   -2.8418218415
 C   -0.2129362825   -1.6552362769   -1.7383341779
 C    0.6961530565   -0.5287280579   -1.3273494297
 H    0.9279219649    1.7340605072    0.1957450762
 H    0.5734888192   -0.4170417246    0.8503284475
 H   -1.8484867858   -0.5211966073    0.9767190339
 H   -2.0053036712    0.1309147427   -0.6645969092
 H   -0.8524635022   -2.6066901219    0.0898505461
 H   -2.9727360729   -3.3012638913   -0.8588019352
 H   -3.0969507517   -1.8098588665   -1.7976716834
 H   -1.4246228033   -4.2721960572   -2.4817751192
 H   -2.3258345375   -3.2280330749   -3.5678303546
 H    0.1293208892   -2.3350360677   -3.7573673849
 H    0.7086831457    0.2712434287   -2.0763772743
 H    1.7350655083   -0.8393136114   -1.1658200293