12

 O   -0.0127194805   -0.0086086329   -0.0977367856
 C   -0.0132092674    1.1981795732   -0.0863052365
 N   -1.1624677742    2.0407055850   -0.0728669271
 C   -0.7135250831    3.3225487443    0.1630286479
 C    0.6363002744    3.3621193556    0.1358423179
 N    1.0915274192    2.0610142949   -0.0511189102
 N    1.0730788250    4.6574913009    0.0023204948
 C   -0.0400194528    5.3321703949   -0.0286770607
 O   -1.1973863022    4.5773106980    0.0195911625
 H   -2.0526505390    1.6440920252    0.1824245520
 H    2.0194111560    1.6997608556    0.0911234343
 H   -0.1767442556    6.4004984452   -0.0193128695