16

 O   -0.0743810447    0.0789489663   -0.2611321539
 C   -0.0293810564    1.2651040275   -0.0694756291
 C   -1.1902115821    2.1834147421    0.3197711335
 C   -0.8386970095    3.5335712670   -0.3375116522
 C    0.7040300668    3.6042496069   -0.3520160428
 C    1.3845066951    3.8285640668    1.0136025759
 O    1.7516212112    2.4324595326    1.1151508480
 C    1.2181699463    2.1514939429   -0.2043827130
 H   -2.1483480464    1.7609533033    0.0137385840
 H   -1.1984400369    2.2651990281    1.4140420134
 H   -1.2119314911    3.5485211964   -1.3673563762
 H   -1.2831332303    4.3899912510    0.1779907166
 H    1.0963544669    4.2028557123   -1.1737460168
 H    2.2712874271    4.4733198335    0.9971516854
 H    0.7288337951    4.1448135276    1.8348690280
 H    1.9688606189    1.7420101655   -0.8852866708