17

 C   -0.0303655965    1.4995279154    0.0859985451
 C    1.3742277216    2.1103922535   -0.0293954866
 N    2.1248644404    1.4381803797   -1.0817255720
 C    3.2035299331    1.8794820673   -1.8084675840
 C    3.6616305121    0.7778326684   -2.4908898318
 N    2.9100319321   -0.3289946720   -2.1911200276
 C    1.9963433734    0.0959732852   -1.3336583848
 C    0.9455263566   -0.6505592125   -0.6771918525
 C   -0.0045246876   -0.0101426115    0.0173643221
 H   -0.4856347335    1.8426508538    1.0203776531
 H   -0.6658143439    1.8851081941   -0.7252937062
 H    1.3196748141    3.1789165228   -0.2533685505
 H    1.9116983039    1.9951908771    0.9218207108
 H    3.5274391241    2.9071643314   -1.7799880147
 H    4.4850572345    0.7280584553   -3.1873505147
 H    0.9632160647   -1.7280392151   -0.7901851657
 H   -0.8105214892   -0.5576438428    0.4942687400