18

 C    0.0802886651    1.5639349135   -0.0187418365
 C    0.1594153851    0.0370440775    0.0158323706
 C    0.5771348436   -0.5585086625   -1.3369109794
 O    1.8721761370   -0.1426659055   -1.7569967754
 C    2.8212933280   -1.1590306489   -1.4180703137
 C    2.0794326182   -2.4850853407   -1.5952131115
 C    0.6360569333   -2.0906215071   -1.2814016584
 O   -0.2829442540   -2.8199941537   -1.0179584385
 H    1.0397672617    1.9911282007   -0.3228474847
 H   -0.6786719181    1.9031189445   -0.7324781363
 H   -0.1800220270    1.9668625038    0.9644638689
 H    0.8723658155   -0.2848112968    0.7857970042
 H   -0.8078479385   -0.4037177982    0.2825192090
 H   -0.1394446248   -0.2465570200   -2.1078949458
 H    3.6803110713   -1.0358741945   -2.0809794873
 H    3.1688459762   -1.0398036975   -0.3806235274
 H    2.1186061156   -2.8253985783   -2.6368326384
 H    2.4182268519   -3.3026400662   -0.9565055594