17

 C   -0.1505341656    1.6036814066    0.1263024245
 C   -0.0113161473    0.0949524372   -0.0068201526
 C    0.7926455584   -0.5000584787   -1.2278654515
 C    1.3864044354    0.4594741523   -2.1612696636
 N    1.8640803818    1.2059009672   -2.9032397584
 N    1.7290364223   -1.0637662589   -0.2563206649
 C    2.9271067973   -1.8489226845   -0.4228661235
 C    1.0812877340   -0.5790550918    0.8583633861
 O    1.3204508589   -0.6743665148    2.0311722300
 H    0.8086452967    2.1099198830   -0.0132779854
 H   -0.8568247818    2.0042384200   -0.6064470022
 H   -0.5191130735    1.8452351913    1.1270245696
 H   -0.9788040344   -0.4027658617    0.1018992583
 H    0.2415776695   -1.2539764526   -1.8027411026
 H    3.6654154290   -1.3191200557   -1.0347400443
 H    3.3447113486   -2.0177892603    0.5722024993
 H    2.7123832806   -2.8185005887   -0.8874185988