21

 C   -0.0333360118    1.4909333332    0.1581016664
 C    0.0345359902   -0.0071680162   -0.0359438226
 C    0.6569052844   -0.6845898379   -1.2313490061
 C   -0.0155842358   -1.9390624440   -1.7660348893
 C    1.3176438548    0.1451314560   -2.3179948189
 C    1.3921870356   -0.7200501375    0.1184440096
 O    2.5281120049    0.0696817896    0.2489089700
 C    1.4548081859   -1.9334031476    0.9522553848
 O    2.4143516274   -2.1618812475    1.6614052001
 H    0.9193111874    1.9700048192   -0.0714173693
 H   -0.8094116974    1.9327165767   -0.4761628420
 H   -0.2770272326    1.7281989513    1.1985014456
 H   -0.8067454848   -0.5491061292    0.3927268314
 H   -0.7467130579   -1.6647269775   -2.5357518941
 H    0.7111611054   -2.6174595804   -2.2265423995
 H   -0.5538777213   -2.4937359966   -0.9933064290
 H    1.8884041831    0.9815980339   -1.9170955312
 H    2.0081328631   -0.4758853883   -2.8987437843
 H    0.5597565160    0.5340636738   -3.0075137484
 H    3.0673272267   -0.3942003888    0.9108720143
 H    0.5825088268   -2.6125296722    0.9252469926