15

 O   -0.1642557277    1.2907877653    0.2104069730
 C   -0.0080626946   -0.0535747902    0.0701795674
 C   -0.2665671088   -0.9647259175    1.2062603652
 C   -1.1533202058   -1.1930069483   -0.0125408817
 C   -2.5913795972   -0.9123796232   -0.0051829481
 O   -3.1824696745   -0.3755553048    0.9057687476
 C   -0.3550673781   -1.7935111248   -1.1440707272
 O   -0.2070292664   -0.8266407303   -2.1991320538
 C    0.6868439841   -0.7547508612   -1.0759291895
 H   -0.3909287944    1.6636131209   -0.6509238329
 H    0.4510883837   -1.7307953425    1.4860380127
 H   -0.7957665398   -0.5020620428    2.0337260772
 H   -3.1188514550   -1.2118019543   -0.9376638180
 H   -0.2344880473   -2.8358251808   -1.4134028692
 H    1.7483786119   -0.8159703054   -1.2846280527