20

 C   -0.0369050094    1.3644106801   -0.1099472543
 N    0.0274612678   -0.0743188040    0.0324344979
 C   -1.0616175654   -0.7040208790    0.0269884214
 O   -1.0910570374   -2.0387804911    0.2028475556
 C   -2.3528257540   -2.6892223097   -0.0094807065
 C   -2.5510452249   -3.0320655373   -1.5091048760
 C   -2.1528298209   -4.4855089355   -1.5931928742
 C   -2.0122893556   -5.0347997221   -0.3887786027
 C   -2.2865689517   -4.0489415267    0.7203301089
 H    0.5545280691    1.6755521720   -0.9788292863
 H   -1.0596652897    1.7599952319   -0.2293266424
 H    0.4136917280    1.8433942787    0.7672104920
 H   -2.0535701673   -0.2377383108   -0.0943159600
 H   -3.1491970341   -2.0443110404    0.3785262856
 H   -3.5968005062   -2.8866682694   -1.8133047370
 H   -1.9445474477   -2.3754135639   -2.1425170799
 H   -2.0243883524   -5.0001091849   -2.5384411867
 H   -1.7537051902   -6.0694463844   -0.1955168046
 H   -1.5078783601   -4.0224033606    1.4890137029
 H   -3.2330468080   -4.2726072429    1.2300003562