19

 N    0.0244554154   -1.1151825481   -0.0154915013
 C    0.0130364523    0.0411146735    0.0103306528
 C   -0.0092943439    1.4911013422    0.0272129151
 C   -0.8090083460    2.1237310283    1.1977048365
 C   -1.0963654579    3.5532866313    0.6189925119
 N   -0.4680172459    3.5871078893   -0.7241411997
 C    1.0032950383    3.5985054244   -0.5368674359
 C    1.3857691097    2.1710216136   -0.0104906762
 C   -0.6917403475    2.2078461983   -1.1844699457
 H   -1.7310910777    1.5692454543    1.3881894271
 H   -0.2270017786    2.1358259283    2.1220286316
 H   -2.1713424340    3.7187793729    0.5076677676
 H   -0.6960954589    4.3580134375    1.2390891273
 H    1.4781650092    3.7973441009   -1.5013961024
 H    1.2865960893    4.4007352641    0.1475963302
 H    1.8550600308    2.1807186296    0.9758783089
 H    2.0576961871    1.6507749089   -0.6974119400
 H   -0.1916592043    2.0114769452   -2.1358639345
 H   -1.7560421074    1.9778104555   -1.2746804132