21

 C    0.0468120769    1.4792631265    0.0244040041
 C    0.0023490988   -0.0391323482    0.0032282893
 C    0.6079314469   -0.7026791102   -1.2662160401
 C    0.2738873182   -2.1904614394   -1.0449687203
 O    1.1743768191   -2.7444161868   -0.0546733673
 C    0.3066088139   -2.2196221649    0.9797372325
 C    0.6483229955   -0.7386720572    1.2328145361
 C   -0.8947978946   -2.1423239467   -0.0125607358
 C   -1.3995090069   -0.7024926264    0.0163346378
 H    1.0786598488    1.8476158760    0.0135921484
 H   -0.4650662284    1.9033208854   -0.8470707941
 H   -0.4374082335    1.8778027189    0.9232975234
 H    0.1160130942   -0.3128893883   -2.1660120829
 H    1.6864388548   -0.5541990435   -1.3707071926
 H    0.2205537439   -2.8065661687   -1.9451585023
 H    0.2820992434   -2.8614147965    1.8630673615
 H    1.7297140412   -0.5927582447    1.3066092371
 H    0.1859361178   -0.3751740489    2.1588922239
 H   -1.6028592363   -2.9682239753   -0.0130147577
 H   -1.9737941629   -0.4635891028    0.9180657978
 H   -2.0025428809   -0.4380011483   -0.8591030489