14

 C    0.1108869400    1.4504788329    0.3046419793
 N    1.0865229565    2.1490147914   -0.5483047648
 C    2.1781005333    1.3867609356   -0.9073790532
 C    2.1288245138    0.0244368845   -1.0018114844
 O    3.3071109767   -0.3994666484   -1.4644709862
 N    4.1035758425    0.7685048296   -1.6546106266
 N    3.4101453369    1.7856807686   -1.3234937858
 C    0.9336959631   -0.7101233918   -0.6890643819
 C   -0.0523337773   -0.0032753735   -0.1098805964
 H    0.3920893959    1.4829961852    1.3764444290
 H   -0.8486365932    1.9705997417    0.2199158483
 H    1.2944497817    3.0978233032   -0.2732624112
 H    0.8339094719   -1.7594396394   -0.9377090196
 H   -0.9919149818   -0.4781578395    0.1501891935