17

 C   -0.1226548390    1.5253569948    0.0233197243
 C    0.0262417090    0.0294628964   -0.0264785390
 C    0.7756523439   -0.6859090674   -1.1781662611
 C   -0.3454775384   -1.7182367512   -0.9670092128
 C   -0.0088346228   -2.6711203012    0.1646997718
 O    0.4969312104   -1.9507986673    1.3076075737
 C    0.5030362776   -0.5918930789    1.2927958038
 O    0.8833419207    0.0227139589    2.2488102105
 O   -1.1976920129   -0.6853982360   -0.4013272191
 H    0.8365900483    1.9908315131    0.2631046423
 H   -0.4763068029    1.8967561746   -0.9416257168
 H   -0.8363320870    1.8118724256    0.8001337560
 H    0.6657433301   -0.1421062857   -2.1176083383
 H    1.8126176652   -0.9915923992   -1.0243422509
 H   -0.7950114867   -2.2287390422   -1.8225256918
 H   -0.9055834273   -3.2091197867    0.4889393656
 H    0.7572697618   -3.3976125678   -0.1278667084