19

 C    0.0827795120    1.4522723536   -0.0330179079
 C    0.0404218435   -0.0365195960    0.1040003604
 C   -1.2668491293   -0.8710642540    0.2305109966
 C   -0.3617765478   -1.9726648158    0.7751835576
 C    0.6986776327   -0.9607673779    1.2092303976
 C    0.9629907702   -1.8030044634    0.0107186355
 C    1.9439889435   -2.8746601859   -0.3233441398
 O    1.5146672461   -3.6697890751   -1.4177861709
 O    0.7718427718   -0.7527573452   -0.9457985232
 H    1.1149537669    1.8138460055   -0.0322811187
 H   -0.3864995374    1.7553645712   -0.9754252705
 H   -0.4579294230    1.9294978097    0.7897618209
 H   -1.9270212344   -0.4721270986    1.0055877001
 H   -1.8207256230   -1.0438405110   -0.6978816596
 H   -0.6334224039   -2.9022634762    1.2584500119
 H    1.2232238185   -0.7817887679    2.1379826943
 H    2.9261999517   -2.4188929286   -0.5236781639
 H    2.0572740524   -3.5478381627    0.5329348068
 H    1.3104772595   -3.0633141418   -2.1382893873