16

 C    0.0702153725    1.4244921127   -0.0341723820
 C   -0.0440355905   -0.0555439725   -0.0250233317
 N   -1.1246084403   -0.7763105220   -0.1390606354
 C   -0.6870309429   -2.0861541177   -0.0685956660
 C   -1.6429760718   -3.2252346494   -0.1616847770
 C    0.6755104844   -2.0867317152    0.0889744099
 O    1.0851298837   -0.7720921432    0.1163542775
 C    1.6603549721   -3.1417863219    0.2179774183
 O    2.8532149617   -2.9775203827    0.3524518590
 H    0.7155069469    1.7577863660   -0.8531275922
 H   -0.9215719732    1.8593371410   -0.1552791479
 H    0.5133061695    1.7843211657    0.8997990854
 H   -2.1863492779   -3.1869860162   -1.1114619929
 H   -1.1376843161   -4.1900015492   -0.0885028153
 H   -2.3884815765   -3.1601687568    0.6375532822
 H    1.2117778182   -4.1578968887    0.1817624381