18

 O    0.1080915824    1.4467672525   -0.1557176993
 C    0.0690041889    0.0663056372   -0.0541357581
 C   -0.0035822296   -0.5901206252    1.3612978046
 N   -1.4082870334    0.0058819125    1.4405475125
 C   -1.3147979567   -0.6485319136    0.0629771014
 C   -0.5795796147   -1.8529149382    0.6872352854
 C    0.1977943584   -2.9595106079   -0.0480821263
 O   -0.4969273315   -3.9783681103    0.6993952880
 C   -1.2691217958   -3.0075483308    1.4355710140
 H   -0.5438208660    1.7630118094    0.4884425821
 H    0.7856261361   -0.3578416481   -0.7587922766
 H    0.7001415217   -0.5154651462    2.1923606062
 H   -1.9971893299   -0.5563560733    2.0605946410
 H   -2.1545877503   -0.6426358884   -0.6342921385
 H    0.0120911547   -3.0417121822   -1.1269663985
 H    1.2808919667   -2.9851931253    0.1293230889
 H   -1.0778151312   -3.0664542621    2.5153969745
 H   -2.3468618098   -3.1229878897    1.2588140588