19

 O    0.0452276954    1.3546595560    0.5212086036
 C    0.0875760115    0.0665731849   -0.0697943921
 C   -1.3062509127   -0.5029275173   -0.2207349988
 O   -1.8730176264   -0.8964532841    1.0612294269
 C   -1.5925249202   -1.9115473949    0.0842367141
 C   -2.8065436117   -2.5841329803   -0.5460661840
 C   -3.2215113168   -1.9603930851   -1.8941854806
 C   -3.0828831421   -0.4585586002   -1.9224475526
 C   -2.2226184257    0.2070908982   -1.1528352098
 H   -0.4128461998    1.2516591500    1.3637339058
 H    0.5613280767    0.1926585223   -1.0490955182
 H    0.7008277060   -0.6291916326    0.5221670230
 H   -0.7622015155   -2.5614017877    0.3614913717
 H   -2.6140650506   -3.6538744141   -0.6746785262
 H   -3.6313763394   -2.4905458169    0.1677638294
 H   -2.6178952411   -2.3855040219   -2.7098880290
 H   -4.2547700344   -2.2434950927   -2.1228788625
 H   -3.7107915265    0.0839103339   -2.6250107517
 H   -2.1333260266    1.2877592125   -1.1978214289