17

 C   -0.1721050980    1.5761880465   -0.0001144267
 C    0.0720530160    0.0672416785    0.0654272253
 C    0.8101629891   -0.4692628731   -1.1665188224
 O    2.0874504387    0.1353878450   -1.2076528885
 C    2.8153215359   -0.0134715719   -2.3392410943
 N    3.9684298178    0.4897141213   -2.4038524222
 C    0.8943292478   -1.9919276800   -1.1350047049
 O    1.9061079296   -2.6228884569   -1.2781016356
 H    0.7732453764    2.1152437724   -0.0949695435
 H   -0.8007907992    1.8376668940   -0.8584725096
 H   -0.6778236869    1.9246661420    0.9046544354
 H    0.6662731757   -0.1826389243    0.9518198640
 H   -0.8795812491   -0.4697373419    0.1551635242
 H    0.2270960638   -0.2083710675   -2.0689635158
 H    2.2943416125   -0.5666418215   -3.1300734672
 H    4.3773157750    0.3047607727   -3.3172928879
 H   -0.0911321751   -2.4884196254   -0.9790263202