18

 C    0.1379527880    1.5875083111    0.0238197874
 C   -0.0009977575    0.0582389116    0.0016882067
 O    0.6761739655   -0.4003508822    1.1805419777
 C   -1.4775254603   -0.4074712118    0.0087397782
 C   -2.2713948939    0.0350348529    1.2335849377
 O   -3.5255989963   -0.6325258775    1.1758106730
 C    0.6578120126   -0.4892048841   -1.1956697511
 C    1.1879006170   -0.9703943870   -2.1615835916
 H    1.1917679983    1.8631587435   -0.0502346786
 H   -0.4048661075    2.0360109271   -0.8116204769
 H   -0.2566059208    1.9838367175    0.9623789112
 H    0.7692126995   -1.3568483935    1.1087045759
 H   -1.9737835897   -0.0569087477   -0.9023791065
 H   -1.4965732945   -1.5029786722   -0.0285356210
 H   -1.7131056573   -0.2278851144    2.1428312865
 H   -2.4093341605    1.1268200360    1.2313624123
 H   -4.0357458009   -0.3735729528    1.9486408747
 H    1.6633008782   -1.3862738566   -3.0155959958