20

 C    0.0162530273    1.5730645801   -0.1310619665
 C    1.5832123125    1.6094679948    0.0120903551
 C    1.5513087385    0.1904875873    0.6540006502
 C    1.6330214316   -0.3894993615    2.0506551048
 N    0.8887181724   -1.5892822795    1.4795607855
 C   -0.4540574278   -0.9340258216    1.2109479531
 C    0.0594856410    0.0557872625    0.1628347515
 C    0.5551388551   -0.9375067886   -0.9360966397
 C    1.6097386046   -1.2635598632    0.1129468539
 H   -0.4794835237    2.1397872463    0.6627809507
 H   -0.4024908431    1.8826355387   -1.0923150344
 H    2.1136291083    1.6604708473   -0.9423619283
 H    1.9804475606    2.3940230585    0.6600107681
 H    2.6449722233   -0.6926326704    2.3377340182
 H    1.1406756214    0.0988448602    2.8990452353
 H   -1.1736006822   -1.6670856777    0.8377341795
 H   -0.8423567676   -0.4959103282    2.1332057573
 H   -0.1318362263   -1.7149247318   -1.2834314976
 H    1.0057174598   -0.4323828341   -1.7944627694
 H    2.4937355042   -1.8875445591   -0.0271481374