17

 C   -0.0027905269    1.5780330575    0.0958489629
 C   -0.0477422399    0.0510224922    0.0032296128
 C    0.6911377221   -0.5136215903   -1.2175870605
 O    2.0396238190   -0.0980432977   -1.1626816386
 C    0.6461891866   -2.0586931686   -1.2584604242
 O    1.4910989695   -2.5461671854   -2.2868018105
 C    0.0694401766   -0.0272139247   -2.4832414784
 N   -0.3976952923    0.2875915988   -3.4930989646
 H    1.0300663942    1.9318055079    0.1293035057
 H   -0.4946380897    2.0417891662   -0.7647402288
 H   -0.5142458828    1.9187830725    1.0001930275
 H    0.4251547525   -0.3939718584    0.8856713586
 H   -1.0852158368   -0.3014922928   -0.0255129435
 H    2.5242930631   -0.6981776676   -1.7486296117
 H    1.0597360709   -2.4318346047   -0.3172817279
 H   -0.3859145975   -2.4165344822   -1.3622448654
 H    1.0559668615   -2.3884236327   -3.1335316734