21

 C   -1.7057246614    0.7182344717   -1.4702395784
 C   -0.8020757695   -0.3172686194   -0.8344570530
 C    0.6014393996   -0.6346757033   -1.3477051677
 C    1.2294955658    0.0659597859   -2.5406462268
 C    0.8165265755   -0.5936715850   -3.8408333533
 O    0.3347937065   -0.0196302843   -4.7827987170
 C    0.4209328382    0.0156109307   -0.0022897545
 C    0.8497135631    1.4379234044    0.2813725941
 O    0.7111622124   -0.8672979872    1.0578845091
 H   -1.1601365001    1.5903042790   -1.8382409884
 H   -2.2442409588    0.2924759335   -2.3236693220
 H   -2.4525887927    1.0779243439   -0.7537432993
 H   -1.3303030225   -1.1953833483   -0.4709217079
 H    0.8735341289   -1.6843477673   -1.2703231029
 H    0.9757189925    1.1257596305   -2.6047582655
 H    2.3247346978   -0.0105410635   -2.4662878563
 H    0.9902242299   -1.6954328476   -3.8692133472
 H    0.6564352493    2.1138457613   -0.5538927132
 H    0.3098019519    1.8316594099    1.1515122996
 H    1.9196022232    1.4691342083    0.5103544248
 H    0.1506190705   -0.6245609631    1.8038349459