18

 C    0.3026406870    0.7365729888    1.2916093950
 C   -0.0010729747   -0.3672554403    0.3896896716
 C   -0.2403237561   -1.2585818537   -0.3870096433
 C   -0.5639613244   -2.3351362972   -1.3172767264
 C   -1.6740059362   -3.3035284750   -0.8240625575
 O   -2.1026839049   -4.0892743347   -1.8981473279
 C   -1.1944307996   -4.2455706153    0.2986341092
 N   -0.7670243863   -3.6675760202    1.4437534942
 O   -1.2445353031   -5.4542807331    0.1247857840
 H    1.1918115266    0.5285148051    1.8966510653
 H    0.4921704285    1.6585932417    0.7313777664
 H   -0.5288575027    0.9329009461    1.9771862409
 H   -0.9285878189   -1.9131973732   -2.2604680137
 H    0.3308635734   -2.9189609613   -1.5651037058
 H   -2.5051192334   -2.6968574221   -0.4320245101
 H   -1.9671722332   -5.0059163192   -1.5957881539
 H   -0.5830646040   -2.6755038050    1.4754549468
 H   -0.3675181480   -4.2641845914    2.1507269450