19

 C   -0.0126727073    1.5404642842    0.1958743552
 N    0.0168125521    0.0930051698    0.0791784933
 C    1.1067617740   -0.6212361447   -0.5794116884
 C    2.3959553951    0.0381134479   -1.0153235370
 O    3.5349959131   -0.7881334377   -0.7180655897
 C    3.8457846138   -1.0694690925    0.5764395864
 N    3.2726049791   -0.8551087741    1.6800924287
 C    1.9682228181   -0.2133876637    1.8323874085
 C    0.8884050742   -0.7492879163    0.8954767063
 H    0.9447676571    2.0317177584    0.4244779599
 H   -0.3874810291    1.9585919135   -0.7438263425
 H   -0.7184279638    1.8090160550    0.9883221672
 H    0.7774540656   -1.4267841329   -1.2334289627
 H    2.4299426120    0.1660234443   -2.0998882748
 H    2.5362883948    1.0218068453   -0.5603855502
 H    4.8028845239   -1.5922896113    0.5744954430
 H    1.6490649108   -0.3864723032    2.8652506057
 H    2.0768357599    0.8731884666    1.7407725351
 H    0.3969093267   -1.6498298485    1.2589503660