21

 C   -0.0279571884    1.5415741177    0.0338674716
 C    0.0323238006    0.0401416776    0.0301053442
 C   -0.8496871347   -0.8147227863    0.8984870724
 C    0.6423970665   -0.9273362173    1.0546090110
 C    1.2576052398   -1.7727738106   -0.0911012820
 C    0.6557878944   -3.1049944573   -0.4395472537
 C   -0.1700630140   -3.0203551546   -1.4857446629
 C   -0.2804499682   -1.6198051379   -2.0590884602
 C    0.6337439874   -0.7844608409   -1.1320692505
 H    0.9318972649    1.9818980911   -0.2617117111
 H   -0.7886469497    1.9122257059   -0.6649858038
 H   -0.2803712491    1.9267933994    1.0275013450
 H   -1.3496351567   -0.2747299462    1.6973692631
 H   -1.4292485288   -1.6406946071    0.4956197917
 H    1.1371084273   -0.7013107131    1.9926841645
 H    2.3508009025   -1.7810187821   -0.0524421127
 H    0.8616644059   -4.0157996694    0.1132816862
 H   -0.7237507592   -3.8551726132   -1.9049987727
 H    0.0462864141   -1.5904240485   -3.1065704973
 H   -1.3185895162   -1.2609587349   -2.0532343641
 H    1.3761317515   -0.2040827021   -1.6839466885