22

 C   -0.1179321225    1.5440646199   -0.2612672788
 C    0.0115840339    0.0362030426   -0.0237597676
 C    0.7008343726   -0.6608834481   -1.2174228194
 O    2.1177974590   -0.5014275016   -1.1463314170
 C    0.3692087661   -2.1532323441   -1.3125537171
 O    1.1164714220   -2.7651459467   -2.3433379207
 N    0.7530931776   -0.3763411240    1.1889811305
 C    1.4411404083    0.5976958452    2.0384390906
 C    0.1997751574   -0.0765253796    2.5004851064
 H    0.8558478995    1.9858168794   -0.4919956216
 H   -0.7792539537    1.7240954592   -1.1141393830
 H   -0.5478803345    2.0671704665    0.5991354452
 H   -0.9947406213   -0.3910739365    0.0761632058
 H    0.4014915257   -0.1772530710   -2.1540360708
 H    2.3500069483   -0.7752547867   -0.2471126328
 H    0.5611111653   -2.6238544630   -0.3339348753
 H   -0.6927800523   -2.2916198847   -1.5479393559
 H    1.9959766333   -2.3689563205   -2.2813425921
 H    2.4108902363    0.2816067171    2.4135196426
 H    1.3767219617    1.6532374176    1.7932977384
 H   -0.7027642762    0.5312338004    2.5454733914
 H    0.2381157534   -0.8827956812    3.2282180210