13

 O   -0.1012074049   -0.0081778917    0.0005748889
 C   -0.0409043104    1.1907639229    0.0085210078
 N    1.1690186865    1.8972814104    0.0002007040
 C    2.4395045042    1.3475776611   -0.0183330161
 C    3.2965254274    2.4077311154   -0.0200373196
 N    2.6101122693    3.6046493812   -0.0032003694
 C    1.3369880014    3.2849136777    0.0088730133
 C    0.2448497108    4.1808122939    0.0279972638
 C   -0.6918078666    4.9366976668    0.0445044802
 H   -0.9090863320    1.8673787111    0.0239473266
 H    2.5737789005    0.2799941979   -0.0279497033
 H    4.3753415713    2.3884020112   -0.0324382357
 H   -1.5099412575    5.6144383920    0.0596637693