19

 O   -0.1706634092    1.5151364786   -0.1688808360
 C    0.0088373684    0.1128180052   -0.0137241153
 C   -1.3960921470   -0.4932866328    0.1071837504
 C   -1.4267184014   -1.9243605092    0.6820492674
 C   -0.6593251021   -2.9906411014   -0.0938763654
 O   -1.2135702916   -3.9521506861   -0.5715652762
 C    0.8569049243   -2.8030159538   -0.2223672226
 C    1.1726930753   -1.7462243038   -1.2615990232
 C    0.7914490570   -0.4740923015   -1.1691431459
 H    0.6987939811    1.9193391857   -0.2534231547
 H    0.5478675054   -0.0925385954    0.9305177041
 H   -1.9774724921    0.1555625577    0.7706521783
 H   -1.8802987470   -0.4683952119   -0.8745075575
 H   -1.0103649068   -1.9003850345    1.6996897168
 H   -2.4613784499   -2.2678029030    0.7557485137
 H    1.2676913090   -2.5097890482    0.7534621915
 H    1.2875073320   -3.7652936863   -0.5029101820
 H    1.7051186623   -2.0816338729   -2.1463152641
 H    1.0129533823    0.2203362736   -1.9765875693