17

 O    0.4015433195    0.8011134463    1.1003978184
 C    0.0770975458    0.0080554339   -0.0309658837
 C   -1.3197001012   -0.5779003792    0.0451109623
 C   -1.6866230144   -1.9986181455   -0.1465132747
 C   -0.5885157922   -2.9534964070    0.3546990792
 C   -0.7141085525   -2.1962399116    1.7172014603
 N   -1.8359233608   -1.3334498309    1.2077234459
 C   -0.9867833683   -4.3505147344    0.4041398275
 N   -1.3032817453   -5.4617249599    0.4422743161
 H   -0.3150377517    1.4276476132    1.2463766463
 H    0.1565301906    0.5838191221   -0.9658743521
 H    0.8499195032   -0.7636261875   -0.0731005454
 H   -2.0919711168    0.1110065103   -0.2962365736
 H   -2.5392957772   -2.3174203841   -0.7364655254
 H    0.3729079097   -2.8855976766   -0.1634862116
 H   -1.0787376435   -2.8341496518    2.5216985683
 H    0.1625854752   -1.6383055373    2.0505025623