17

 C    0.0072779534    1.5099159216   -0.0594097597
 C   -0.0097088360    0.0119698803    0.0253204092
 O    0.3287689599   -0.7065458653   -1.2113356148
 C   -0.2549519297   -1.8497558853   -0.5180073694
 C    0.6979687643   -2.0120018341    0.6805435167
 C    0.8655142236   -0.7439311107    1.0521530170
 C   -1.3345299581   -0.8584075504    0.0482522019
 C   -2.0681794123   -1.1167626416    1.2671490625
 C   -2.6987866114   -1.3179657039    2.2712931156
 H    1.0219315629    1.8698714510   -0.2569186439
 H   -0.6459683438    1.8622442008   -0.8618426898
 H   -0.3342336519    1.9445518979    0.8852657488
 H   -0.5021848572   -2.6967567832   -1.1554226333
 H    1.0865256717   -2.9327447906    1.0887134309
 H    1.4365992978   -0.3052895524    1.8571498841
 H   -1.9990108538   -0.5314664851   -0.7572844370
 H   -3.2505994096   -1.4994545290    3.1603655112