20

 O   -0.2867224570    1.3787416473   -0.0790124775
 C   -0.2727126478   -0.0103145081   -0.3607441162
 C   -1.0386102765   -0.7034339792    0.7714851319
 C   -1.0946265881   -2.1502305416    0.6069691051
 C   -1.1252939957   -3.3442987913    0.4532020078
 C   -1.1931857488   -4.7919059763    0.2660390134
 C   -2.4652505382   -5.2490117252   -0.4329539295
 C   -3.0509452196   -6.5716272531   -0.1080171580
 N   -3.7317632846   -5.3292035492    0.3028567080
 H    0.1791771263    1.8351263659   -0.7853082920
 H   -0.7580967581   -0.2370938719   -1.3216543081
 H    0.7525489062   -0.4074040279   -0.4046586876
 H   -0.5578480510   -0.4432118089    1.7225357909
 H   -2.0507662010   -0.2827419156    0.8118709265
 H   -0.3238923177   -5.1304360716   -0.3145525942
 H   -1.1195738175   -5.2964992555    1.2398423818
 H   -2.5790680418   -4.8623067713   -1.4434063598
 H   -3.5679342044   -7.1474894124   -0.8702783806
 H   -2.5545363485   -7.1724696842    0.6507506277
 H   -3.5677383363   -5.1514975199    1.2914486305