19

 O    0.3016243246   -0.1103224294   -0.1659267854
 C    0.1397080398    1.0704764465   -0.0048228201
 C    1.2554154860    2.0968794055    0.1050471912
 O    2.5163349573    1.5047309614    0.3432107140
 C    3.2220427943    1.4137288724   -0.8915400022
 C    2.8606720779    2.6900932959   -1.6668555909
 C    2.3536445360    2.4930380852   -3.1194746007
 C    0.9007248769    2.3886728018   -2.5769544307
 C    1.3972196792    2.9371811755   -1.1985295866
 H   -0.8824531693    1.5163466426    0.0574576073
 H    1.0193530370    2.7423035137    0.9627622120
 H    4.2854095470    1.3289129536   -0.6544032181
 H    2.9150233152    0.5127224551   -1.4422229706
 H    3.5842989090    3.4879337958   -1.4890539723
 H    2.5042001773    3.3836812200   -3.7340017170
 H    2.7467514003    1.6294046790   -3.6622652721
 H    0.1465939291    2.9923310011   -3.0857258007
 H    0.5383698520    1.3592724504   -2.5282305496
 H    1.1304938505    3.9822465539   -1.0396275272