19

 C   -0.1532447138    1.3070435067   -0.2192567006
 C    1.2561730468    0.9210312466    0.0633158740
 N    0.1862213224   -0.0720720728    0.1234667202
 C   -0.2012638731   -0.5428049356    1.4135612802
 C   -0.2799994959    0.1932055096    2.8081051992
 C   -0.7300508947   -1.2722985528    3.0557527622
 C   -1.5788737928   -1.1752923878    1.7561677406
 C    0.4591237019   -1.7320563027    2.1650848412
 H   -0.6615538524    1.9095277223    0.5305179690
 H   -0.4883638498    1.4663574957   -1.2399713157
 H    1.9673075666    0.7937836874   -0.7476339803
 H    1.6858068219    1.2666433168    1.0011303903
 H    0.6662419845    0.4951227100    3.2660152034
 H   -1.0480717019    0.9634609648    2.9220408075
 H   -1.0379266457   -1.6997505129    4.0081733194
 H   -2.4380578973   -0.4986865350    1.7790232298
 H   -1.8174188003   -2.1147071408    1.2508150754
 H    0.3700138702   -2.7122983794    1.6897220830
 H    1.4645916234   -1.5648540302    2.5620665813