21

 C   -0.0812943857    1.5411903668    0.0615443678
 C   -0.0213084197    0.0303763459    0.1018994577
 C    1.2737919106   -0.6946005281   -0.1995955211
 C    0.7175454782   -0.6977986139    1.1913979093
 C    1.3387575252   -0.1385240838    2.4572424707
 C    0.2589431641    0.0681903219    3.4808667912
 C    0.7821924594   -1.3277208228    3.2562185729
 C    0.2266545021   -1.9454863963    1.9674795996
 O   -1.1259543712   -2.3295804181    1.8944368852
 H    0.8372491862    1.9830915009    0.4614053924
 H   -0.2065002108    1.9057454190   -0.9641099945
 H   -0.9171151782    1.9281634847    0.6552155022
 H   -0.9220094855   -0.4757860653   -0.2396495568
 H    1.2377119518   -1.6177789568   -0.7705364552
 H    2.1541848207   -0.0869165482   -0.3907462879
 H    2.3185046385    0.3151937967    2.5388128829
 H    0.5668929544    0.5195854174    4.4186781583
 H   -0.7404446512    0.3608751624    3.1642213280
 H    1.2535015948   -1.8828987175    4.0579669644
 H    0.7961582637   -2.8338843170    1.6787696705
 H   -1.6572771174   -1.6016399779    2.2345681520