17

 C   -0.1968430542    1.4278522528   -0.6805266165
 C   -0.5717252569   -0.0512098792   -0.6476804390
 C   -1.2034057119   -0.4801712697    0.6666437059
 O   -1.3885326833    0.2773822138    1.5957170808
 C   -1.5786776442   -1.8809823400    0.7460401988
 C   -1.8872539777   -3.0476153932    0.7989118419
 C   -2.2528336816   -4.4304649240    0.9114217001
 C   -3.2295647702   -5.0423963986   -0.0158390849
 O   -1.8434009284   -5.3139283946   -0.1449292011
 H    0.2537521252    1.6867634628   -1.6424722286
 H   -1.0768648200    2.0578043468   -0.5285068299
 H    0.5157865645    1.6678798549    0.1124566879
 H   -1.2741957354   -0.3095605020   -1.4517540624
 H    0.3017607224   -0.6948890656   -0.8190661504
 H   -2.1631667583   -4.8587013399    1.9086370259
 H   -3.8455986722   -5.8647861543    0.3447726143
 H   -3.6659847878   -4.4286688399   -0.8011276530