27

 C   -0.0296661330    1.6942780661   -0.2839754833
 C    0.0264937932    0.1885082873   -0.0022471801
 C   -1.3630207374   -0.4547880605    0.0393892885
 C   -1.9998935778   -0.6525702437   -1.3700569331
 C   -1.5694034818   -2.1413379658   -1.3301826092
 C   -1.4096880301   -2.0155105682    0.2105251691
 C   -0.2979687003   -2.7807533474    0.9298012747
 C   -0.3090805189   -2.4926539775    2.4382169685
 C   -0.4193512488   -4.2891154771    0.6662829726
 H    0.9738259907    2.1298474697   -0.3209781884
 H   -0.5186080171    1.9058211860   -1.2406967900
 H   -0.5926315264    2.2189570710    0.4961914485
 H    0.6439164870   -0.3012582996   -0.7668511247
 H    0.5409084122    0.0245841674    0.9525157961
 H   -1.9827630900    0.0980275085    0.7543144906
 H   -3.0873290993   -0.5392999269   -1.3522346562
 H   -1.6043434799   -0.0379892632   -2.1836203759
 H   -2.2735974578   -2.8858313567   -1.7097902337
 H   -0.6056064976   -2.2999299656   -1.8254053854
 H   -2.3660347871   -2.2775123787    0.6835979634
 H    0.6675859316   -2.4487373298    0.5237649757
 H   -1.2442745467   -2.8432581667    2.8917667560
 H    0.5160853162   -3.0035991726    2.9458226243
 H   -0.2210219797   -1.4226881308    2.6507241042
 H    0.3865914172   -4.8425195296    1.1599560197
 H   -1.3710131282   -4.6775476802    1.0490958100
 H   -0.3744552901   -4.5156689356   -0.4035535517