12

 O    0.3284626132    0.2859859441    0.7927259194
 C    0.1602233655    1.2884809896    0.1514346418
 C    1.2373599766    1.8593205508   -0.6850502534
 N    2.0675216267    2.3217909601   -1.3438404731
 C   -1.1054873183    2.0933400533    0.1245347789
 O   -2.2545266825    1.4878699524    0.6753432683
 C   -1.7020100980    2.5787247567    1.4109708374
 C   -1.1161190624    2.3102261723    2.6915198352
 C   -0.6421137924    2.1304418497    3.7803118084
 H   -1.2564945069    2.7035054277   -0.7660427402
 H   -2.2784291359    3.5006478406    1.3399733843
 H   -0.2196890655    1.9543705028    4.7395554630