15

 O   -0.2732304502    0.0195326830   -0.1591910200
 C   -0.0063346738    1.1708631530    0.0592271033
 C    1.3576660429    1.7932944449   -0.1648032289
 C    1.2747357819    2.9818580623   -1.1368095972
 N    2.5297641323    3.7126154856   -1.2129356829
 C    3.4981969540    3.7179933405   -2.1470066565
 N    4.4677020487    4.5155964769   -1.7564601875
 N    4.0737760729    5.0025115193   -0.5502348933
 N    2.9197066715    4.5311600306   -0.2121332224
 H   -0.7736194636    1.8756531143    0.4559119091
 H    1.7234584880    2.1701436748    0.7989018932
 H    2.0460930619    1.0275536859   -0.5301364007
 H    1.0280238582    2.6457463337   -2.1469482345
 H    0.5039243502    3.6888859838   -0.8173528669
 H    3.4591178652    3.1541622414   -3.0648051050