17

 N    0.5760559793    0.5950608752    0.4887524462
 C   -0.3828868773    0.1729788509   -0.3876311333
 O   -0.4160846454    0.5103723472   -1.5563024390
 C   -1.4242111325   -0.7831012616    0.1947300551
 C   -0.9037569330   -2.2226010098    0.1475260319
 C   -1.7702590269   -3.2741478218   -0.4714288331
 N   -0.5850627511   -2.7935517420   -1.1816683024
 C    0.0048755234   -2.5695332691    1.2154625393
 C    0.7378251779   -2.8145092690    2.1377118065
 H    1.3759831916    1.0612238453    0.0879249830
 H    0.7251681486    0.0832288205    1.3445144196
 H   -1.6896347365   -0.5172698884    1.2221520625
 H   -2.3132957576   -0.6928651960   -0.4324946229
 H   -1.7030266633   -4.2965644853   -0.1123711882
 H   -2.7582070871   -2.9656897721   -0.8042609321
 H   -0.8310058088   -2.1070571513   -1.8936497126
 H    1.3892706387   -3.0671308027    2.9377757297