18

 C   -0.2666992471    1.6834231847   -0.6551296970
 N   -0.8383602257    0.3638855950   -0.3335347168
 C    0.0300732742   -0.7997903174   -0.2131942110
 C   -0.6221475456   -0.2055511479    0.9880816755
 C    1.1164720917    2.0080620850   -0.1580118997
 C    1.4479609933    2.6760244227    0.9829187290
 O    2.7953397962    2.7898146234    1.1122910152
 C    3.3458158916    2.1799160500    0.0292560083
 C    2.3757332153    1.6854219106   -0.7802590699
 H   -0.2847398555    1.7696690992   -1.7474775100
 H   -0.9738467434    2.4254881884   -0.2685635466
 H   -0.3524316471   -1.7141359139   -0.6590839855
 H    1.1059077708   -0.6639191214   -0.2962379363
 H    0.0303607912    0.3224514310    1.6810906850
 H   -1.4903023203   -0.6763717598    1.4416422976
 H    0.8619791071    3.1321244623    1.7645864765
 H    4.4222958172    2.1903736466   -0.0157311924
 H    2.5208990961    1.1648129416   -1.7145894419