19

 C    0.0199769116    1.2666440579    0.3874009672
 O   -0.1071192561   -0.1446082088    0.4063847963
 C   -1.2525770246   -0.6133170352   -0.2572892014
 C   -1.2193562147   -2.1551948606   -0.2150206887
 C   -2.4078727321   -2.5357716835    0.6905220434
 C   -2.7379797605   -1.1990585228    1.3898100530
 O   -2.4455423802   -0.2115865635    0.3899100898
 C   -4.1150852733   -1.0678844210    1.8394167579
 C   -5.2481726019   -0.9936258742    2.2310645774
 H    0.9435591921    1.5111762542    0.9164535488
 H    0.0876831891    1.6460080804   -0.6436563369
 H   -0.8264494363    1.7543022797    0.8841135316
 H   -1.3023575127   -0.1811254776   -1.2664560916
 H   -1.3133496313   -2.5820436562   -1.2152413601
 H   -0.2607483756   -2.4700540745    0.2012466293
 H   -3.2719071424   -2.8520675996    0.1015488386
 H   -2.1737736868   -3.3261421995    1.4063319462
 H   -2.0629425595   -1.0556843976    2.2468379756
 H   -6.2504768647   -0.9188991076    2.5739732836