15

 N   -0.1510097496    1.4090383949    0.1207553738
 C    0.0896277715    0.0409216486    0.0399215877
 O    1.2076707965   -0.4351505048    0.0223307455
 N   -1.0614536000   -0.7191245635    0.0247690634
 C   -1.0768448107   -2.1170262655    0.0099441896
 C   -0.0317981145   -2.9929543393   -0.0396576189
 O   -0.5122522087   -4.2730064548   -0.0534168399
 C   -1.8604381002   -4.2028317191   -0.0083000772
 C   -2.2738087001   -2.9097958391    0.0302591011
 H    0.6809865666    1.9482406278   -0.0669002858
 H   -0.9755371021    1.7697468047   -0.3363361655
 H   -1.9397692906   -0.2632944709    0.2091151965
 H    1.0324405842   -2.8658499696   -0.0677530668
 H   -2.3853358049   -5.1436575192   -0.0100995741
 H   -3.2930122173   -2.5565731801    0.0671167806