20

 C    0.3404486486    1.0148720408   -0.7050691503
 C   -0.0250057336    0.0592675691    0.4373390393
 O    0.0152066483    0.7298889358    1.6759912762
 C   -1.3832669917   -0.5551382557    0.2308863332
 N   -2.3465424646   -0.4244234102    1.0495515119
 C   -3.4769030850   -1.1745106260    0.4881142646
 C   -2.9566913922   -1.7245012029   -0.8712777118
 C   -3.6723148390   -1.1872642239   -2.0991493333
 O   -1.5654144849   -1.2848987381   -0.8917154279
 H    1.3268519728    1.4430969364   -0.5114528180
 H    0.3614610614    0.4890015245   -1.6632713553
 H   -0.3852215241    1.8317149138   -0.7598392388
 H    0.7034264078   -0.7685623353    0.4417662939
 H   -0.8622364969    0.6202838881    2.0716611408
 H   -3.7772069359   -1.9718225935    1.1759641605
 H   -4.3419400572   -0.5142271029    0.3563873292
 H   -2.9354198852   -2.8183680954   -0.8902937565
 H   -3.6863089830   -0.0927871199   -2.0883015803
 H   -3.1800294638   -1.5201952946   -3.0168223467
 H   -4.7073246919   -1.5442893701   -2.1142349107