17

 O    0.0631733031    0.0277918800   -0.4651332221
 C    0.0981254472    1.2311813119   -0.3570351363
 N    1.1917041525    1.9532042400    0.0539230912
 C    1.1031020576    3.3925104179    0.1556508454
 C    0.9475882092    3.8887643079    1.5360792992
 N    0.8241531547    4.2828739083    2.6146898838
 C    2.3979636010    1.2406780207    0.4104173924
 C    3.7217741105    1.5282194386   -0.2498485752
 C    3.5052670178    1.8650534696    1.2100737797
 H   -0.7657184854    1.8862409496   -0.5838637783
 H    1.9838461823    3.8710863890   -0.2876168530
 H    0.2407729401    3.7312607314   -0.4274371146
 H    2.1570924683    0.2034643134    0.6020393635
 H    4.3482359551    0.6842615466   -0.5147861699
 H    3.7788012919    2.3574163938   -0.9475376030
 H    3.4423944036    2.9125828448    1.4801898406
 H    3.9748469306    1.2507332967    1.9698417767