17

 O   -0.0867475722   -0.0741522724    0.0278539583
 C   -0.0452264377    1.1352416844    0.1035699108
 C    1.1841640267    1.9383408871    0.0318656575
 C    1.0751082775    3.2801139727    0.1367029653
 C    2.1321523308    4.2690657600    0.0533812979
 C    3.4614421663    4.0695822293    0.0651997501
 C    4.2293904144    2.7977949346    0.2743506783
 O    3.5103918108    1.6822119616    0.7275450680
 C    2.4920609615    1.2119865597   -0.1453211785
 H   -0.9748820332    1.7345304227    0.2317348640
 H    0.0702299889    3.6821984321    0.2630614953
 H    1.7898125917    5.2956186419   -0.0520569421
 H    4.1024548157    4.9408966370   -0.0628500441
 H    4.7893208230    2.5681637364   -0.6521969146
 H    4.9904566210    2.9812897455    1.0448784695
 H    2.3362429796    0.1555447841    0.0859508202
 H    2.8243658551    1.2769222033   -1.1934194160