15

 O   -0.4650787337    0.4483018885    1.3561240329
 C   -0.3760020412   -0.1662291735    0.0777161317
 C   -1.6980804838   -0.6037614719   -0.3493426907
 C   -2.7809798548   -0.9727718731   -0.7229872424
 C   -4.0973021276   -1.4303040055   -1.1514661608
 O   -4.3316420686   -2.8213170169   -0.9057880153
 C   -4.4738083869   -3.1747672145    0.3910900942
 N   -4.6733509454   -4.3835305222    0.6892187068
 H    0.4250784529    0.7118241250    1.6111077934
 H    0.0285767621    0.5291451344   -0.6757247387
 H    0.2951229798   -1.0401620569    0.0964362027
 H   -4.8800203838   -0.8249310145   -0.6734687363
 H   -4.2118282863   -1.3154844874   -2.2328226285
 H   -4.3992833856   -2.3305852177    1.0889093055
 H   -4.7688167271   -4.4799307439    1.6980937154