16

 C   -0.0175117803    1.5974472292    0.0825681075
 C    0.1200051542    0.1106037044   -0.0012683624
 N   -0.8221106497   -0.8340274380    0.6986882452
 C    0.6139752689   -0.9418619437    0.9585118638
 C    1.1869931991   -1.8299576133   -0.1646734367
 C    0.7387931801   -3.1963551630   -0.2982542482
 C    0.3753367558   -4.3352288603   -0.4221697787
 C    0.6620403574   -0.7071335741   -1.1534225302
 O    0.8316123381   -0.5016380399   -2.3149734966
 H    0.8763672986    2.0927866761   -0.3084654763
 H   -0.8744340368    1.9429674242   -0.5048807367
 H   -0.1629633355    1.9212873740    1.1185199640
 H   -1.2399717134   -0.2925146579    1.4567071723
 H    1.0403196949   -0.7974257924    1.9427996146
 H    2.2826372503   -1.7692557670   -0.1913122318
 H    0.0412730082   -5.3370788684   -0.5316427698