22

 C    0.1727372873    1.4450870452   -0.5079552938
 C    0.2803439864   -0.0320347006   -0.2167423565
 N    1.6204048021   -0.5405500108    0.1550102941
 C    0.5344322455   -0.5633750793    1.1402533523
 C    0.6657485007    0.1534050451    2.4903530668
 C    0.4802757008   -1.2304798200    3.1754382232
 O   -0.3226495377   -1.3397700282    4.3228679785
 C   -0.0241518179   -1.8303108008    1.8141354358
 C   -1.5384146897   -2.0033192386    1.7199324985
 H    0.7953077843    2.0193206770    0.1830470489
 H    0.5072050799    1.6683199334   -1.5267857546
 H   -0.8631345184    1.7889172966   -0.4100322418
 H   -0.3152291627   -0.6696173229   -0.8707136453
 H    1.7597276688   -1.4721678936   -0.2311509053
 H    1.5988445489    0.6877393589    2.6779614109
 H   -0.1764982121    0.8254628450    2.6945869377
 H    1.4444623883   -1.6639049455    3.4523625434
 H   -1.1585781049   -0.8942678595    4.1509046292
 H    0.4732123901   -2.7627914587    1.5233677925
 H   -2.0704804816   -1.0702324226    1.9409135885
 H   -1.8374008595   -2.3098998869    0.7127394265
 H   -1.8873736186   -2.7653843832    2.4239950105