19

 C    0.0047484033    1.4668416722    0.1832684815
 C   -0.1393261238   -0.0520367489    0.2001529449
 C   -1.5771252817   -0.5158476771    0.2192903683
 O   -2.5335943281    0.2249165890    0.2129855820
 C   -1.8023617277   -2.0430717747    0.2757728012
 O   -0.8664646064   -2.7939829644    0.4522505128
 C   -3.2186934844   -2.5795299674    0.1299764103
 C   -3.7559491386   -2.3252394288   -1.2913699258
 O   -3.2388452343   -3.9504326716    0.4360410809
 H    1.0600068627    1.7506025664    0.1612764043
 H   -0.4877756583    1.8986243272   -0.6919559819
 H   -0.4546914183    1.9143079950    1.0684966951
 H    0.3441775166   -0.5191527301   -0.6688603889
 H    0.3661755076   -0.5070184941    1.0614156026
 H   -3.8529500808   -2.0302794877    0.8406669929
 H   -4.7415778870   -2.7891385750   -1.3733357045
 H   -3.8473117438   -1.2561488580   -1.4932135876
 H   -3.1006731357   -2.7856827387   -2.0374346130
 H   -2.3125616814   -4.2225734532    0.5195468948