14

 O   -0.1239367058    0.1310189982   -0.7726158096
 C   -0.1101070184    1.2160717834   -0.2655224600
 C   -1.2325020542    2.0304820322    0.2610316563
 C   -1.0276528803    2.5894361135    1.6833141867
 C   -0.6459984330    3.4014926971    0.5016239475
 O    0.7224553237    3.4315457663    0.1415865036
 C    1.1714286261    2.1172623160   -0.1367239580
 C    2.0739977067    1.6114364698    0.9060902551
 N    2.7682905753    1.2115229714    1.7388061503
 H   -2.2312445197    1.8366749414   -0.1053137157
 H   -1.9425041204    2.8480641383    2.2038191277
 H   -0.2496760630    2.1626448829    2.3062371046
 H   -1.1524751427    4.3208519666    0.2372759974
 H    1.6978502557    2.1096754130   -1.0972657857