20

 C   -0.1045789322    1.5822355827    0.1229416536
 C    0.0807736160    0.0988564898    0.0566478470
 N   -0.8305213531   -0.8677459197    0.7137217213
 C    0.6218217407   -0.8724006168    1.0344845848
 C    1.3797630394   -1.6258812135   -0.1206574674
 C    2.6633863127   -2.3768578306    0.0056833125
 O    0.4094605857   -2.0467052847   -1.0870045974
 C    0.8371335258   -0.6791047074   -1.1039620675
 C    1.3486577412   -0.0971213492   -2.3811760717
 H    0.8108589210    2.1124674449   -0.1623973657
 H   -0.9044255849    1.9169821662   -0.5483382858
 H   -0.3661871926    1.8980765496    1.1388408312
 H   -1.2849689514   -0.3568972086    1.4732444782
 H    0.9884423499   -0.7131149883    2.0411411217
 H    2.5040045518   -3.3321718292    0.5189698104
 H    3.0858711894   -2.5875780911   -0.9803683062
 H    3.3944775559   -1.8026053934    0.5850565309
 H    0.5236694235    0.1093075487   -3.0727864020
 H    1.8802584612    0.8433078427   -2.2024125170
 H    2.0325799699   -0.7953952721   -2.8710659708