15

 O    0.2362342278    1.1445451243   -0.6558007526
 C    0.0654746367   -0.0706889729    0.0268074272
 C    0.3561691721   -0.0652253336    1.5301863547
 C   -0.5712180665   -1.1516624881    2.0580968928
 O   -0.5157505525   -1.7561274864    3.0854163182
 O   -1.5493329940   -1.3906967606    1.1292881292
 C   -1.4311349651   -0.4852278262    0.0095427509
 C   -2.3528542701    0.6361396421    0.1526430211
 C   -3.1293680659    1.5435809136    0.2757680084
 H    1.1790267576    1.3089737675   -0.7540860438
 H    0.6320396289   -0.8815345861   -0.4537165532
 H    1.3892017093   -0.2721589744    1.8115229516
 H    0.0581497755    0.8973097883    1.9607518258
 H   -1.6777264734   -1.0587917913   -0.8874617735
 H   -3.8141227903    2.3487683138    0.3827656733