15

 O   -0.1295825825    1.4799494683   -0.0658746099
 C    0.0216648349    0.0694814799   -0.0452180460
 C   -1.3743689062   -0.5525390007   -0.0444567220
 O   -2.1034833267   -0.1341453737   -1.1635607361
 C   -1.5398150467   -2.0537911989    0.2624190709
 O   -2.1428699608   -1.7278573920    1.5628012788
 C   -2.0454312163   -0.3814021178    1.3184420721
 N   -2.3312572668    0.6273522974    2.0097320039
 H   -0.6151831504    1.7218041314    0.7378735141
 H    0.5555767065   -0.2057777669   -0.9605912044
 H    0.6063185448   -0.2744205937    0.8202388415
 H   -1.8767609959    0.7993600240   -1.2846650332
 H   -2.2540955440   -2.5598521185   -0.3884586578
 H   -0.6305669675   -2.6443892949    0.3944688039
 H   -2.7394946324    0.3848493759    2.9138313843