19

 C   -0.0767137733    1.5546179188    0.1298277837
 N    0.0491555673    0.1151375759    0.1111865437
 C   -1.1692669066   -0.6842300758    0.3943243451
 C   -0.3739520631   -1.5425898853    1.4048486857
 C   -1.0161058355   -2.0037175688    2.6856365493
 O    0.4048273683   -2.5849913350    0.7640478582
 C    1.5903972433   -1.7500522833    0.7174167495
 C    0.7950463697   -0.5355805637    1.2120457438
 H    0.9091590850    2.0163765215    0.0103213897
 H   -0.6997264854    1.8798929912   -0.7102200781
 H   -0.5306902496    1.9525550896    1.0587398368
 H   -1.9650466177   -0.1003488931    0.8839341594
 H   -1.5840434879   -1.2107059453   -0.4714474638
 H   -1.7515792959   -2.7884283986    2.4735897435
 H   -0.2684959402   -2.4202931989    3.3669420122
 H   -1.5314749815   -1.1801047849    3.1890852165
 H    2.3580510419   -2.1176728314    1.4117647238
 H    2.0036039596   -1.6625311850   -0.2923235957
 H    1.2089947216    0.1204481021    1.9819940966