20

 C    0.1309821751    1.5645903144   -0.1637103075
 C    0.0194176137    0.0540653052    0.0627535247
 C   -1.4230206025   -0.4819136286    0.0954993485
 O   -2.1017455788   -0.1252729945   -1.1271682834
 C   -1.4826128212   -2.0251510562    0.1990929082
 C   -2.6882444630   -2.3529664854    1.1120952370
 C   -2.9316868353   -1.0487314108    1.8303734240
 C   -2.2380752747   -0.0438579336    1.2997315324
 H    1.1788612680    1.8771304571   -0.1970643305
 H   -0.3271935246    1.8507498019   -1.1155525976
 H   -0.3535451077    2.1368417910    0.6352705442
 H    0.5521084921   -0.4697358427   -0.7406883982
 H    0.5136961346   -0.2198703288    1.0029665241
 H   -2.4094936499    0.7825510511   -1.0421675814
 H   -1.5593534387   -2.4637535325   -0.7979733296
 H   -0.5601876448   -2.3933976689    0.6584114338
 H   -3.5764639011   -2.6459188622    0.5369319480
 H   -2.4801748599   -3.1812782391    1.7988017018
 H   -3.6211750837   -0.9600210756    2.6638137400
 H   -2.2741590177    0.9882649983    1.6334479016