21

 C   -0.0124327423    1.5269902592   -0.2110852139
 C    1.5269664646    1.5333214093    0.0882357447
 C    1.3283299855    0.2100238892    0.8514653118
 C    0.7980254204    0.2837321677    2.3057579977
 C    0.1316651769   -1.1044812013    2.2193947447
 C   -0.8970857037   -0.8135049177    1.0493578925
 C   -0.0181018033   -0.0078112161    0.0717017817
 C    1.3102470970   -1.9113210378    1.6761766025
 C    2.0573155801   -1.1095527064    0.8997897838
 H   -0.5787766679    2.1030876354    0.5251231540
 H   -0.3234846359    1.8427423217   -1.2095471612
 H    2.1081250490    1.4005003628   -0.8296352109
 H    1.9389373458    2.3812922373    0.6421998081
 H    1.6080055445    0.3317587620    3.0380808208
 H    0.0911943534    1.0995901010    2.4859982505
 H   -0.3332426499   -1.5009554951    3.1232606696
 H   -1.2984078398   -1.7284339971    0.6071052146
 H   -1.7400704353   -0.2359747142    1.4428231944
 H    0.1547177354   -0.5464936482   -0.8629407523
 H    1.4474406523   -2.9741281207    1.8341773758
 H    2.9090624934   -1.3896117810    0.2915614911