19

 C    0.0055251173    1.5678036013   -0.0032545907
 C    1.4654211447    2.0223212107    0.0163783582
 O    2.0100453940    1.7452704532    1.3320285511
 C    2.3061245160    0.3995483260    0.8785098057
 C    1.0548625159   -0.4576858764    1.0728304164
 C    0.0194711931    0.0056706855   -0.0012851257
 C    0.5503920288   -0.4323133893   -1.3434173875
 C    1.7650149661    0.0361726105   -1.6460296646
 C    2.3791658326    0.9074489290   -0.6049319778
 H   -0.4895958745    1.9659582362    0.8884584798
 H   -0.5226827329    1.9372094833   -0.8875794292
 H    1.6206948932    3.0602089690   -0.2882713344
 H    3.2093088228   -0.0062208007    1.3408321303
 H    1.2702647481   -1.5236466425    0.9510779043
 H    0.6806304323   -0.2928723910    2.0885130914
 H   -0.9734081897   -0.4008958697    0.2016463838
 H   -0.0271889102   -1.0782518126   -1.9960288758
 H    2.2857385602   -0.1856100928   -2.5712709741
 H    3.3693456623    1.2921395103   -0.8464035515