15

 N    0.0194969079    1.3411008378   -0.1020499873
 C    0.0173941795   -0.0316425788   -0.0435281690
 O    1.0733913915   -0.6665703119   -0.0812089401
 C   -1.2801544511   -0.6905724693    0.0203213961
 C   -1.3946276250   -2.0669002689    0.0823762616
 N   -0.4408176462   -3.0241695331    0.1923754601
 O   -2.6852213080   -2.4443185972    0.0878117870
 C   -3.4447449747   -1.2859173102    0.0250503910
 C   -2.6404469753   -0.2040738388   -0.0128728164
 H    0.9188740312    1.7789163917    0.0214745094
 H   -0.7837157301    1.8598291351    0.2109298156
 H    0.4835601436   -2.6515563437   -0.0039348676
 H   -0.6654092019   -3.9385311536   -0.1678267159
 H   -4.5095699983   -1.4378656982    0.0139271334
 H   -2.9718377330    0.8210914290   -0.0784385580