21

 C   -0.2530976683    1.5723705905   -0.0870734031
 C   -0.0514595419    0.0519369312   -0.0205607090
 C    0.7260353997   -0.4240576414    1.1791501097
 C    0.3385516519   -1.6180017147    2.0432878604
 C    0.5128937132   -0.2682967357    2.6693736925
 O    1.8974196998   -0.0013238988    2.9258763792
 C    2.1696946562   -0.1011643019    1.5159525090
 C    3.4560166234   -0.6649820714    1.0105493983
 C    3.1428486306    0.8197936544    0.8611056282
 H    0.6999696012    2.1074222998   -0.1110968187
 H   -0.8179244894    1.8507288868   -0.9823442350
 H   -0.8075282658    1.9291864461    0.7868114401
 H   -1.0304284578   -0.4414581075   -0.0222806248
 H    0.4532011020   -0.2957078286   -0.9329752227
 H   -0.6892709204   -1.9467536526    1.9166684029
 H    1.0544930265   -2.4048030160    2.2643800730
 H   -0.2207980813    0.2652312503    3.2621465596
 H    4.1949856567   -0.9462843634    1.7527632138
 H    3.4388553713   -1.2900813451    0.1234718754
 H    2.9215527521    1.2005762462   -0.1304393308
 H    3.6709372802    1.5128473117    1.5071769720