20

 O   -0.5951728780    0.7976257502    0.7037418190
 C    0.1036971420    0.9998997634   -0.2553580806
 C    1.3756440876    1.8164928510   -0.2491434422
 C    1.3263124870    2.9652532566   -1.2726373652
 C    0.2660057874    4.0509314979   -0.9701044010
 C    0.8660261570    5.3307043327   -1.5964275670
 N    2.3363252124    5.1848404722   -1.6245069742
 C    2.9079237154    4.7777285545   -0.3329448411
 C    2.6224744583    3.7605267500   -1.3788180683
 H   -0.1638099844    0.5813044838   -1.2555712936
 H    1.5498420422    2.1917868962    0.7634920489
 H    2.2019896295    1.1395296146   -0.5109317977
 H    1.1249142307    2.5339531198   -2.2630112508
 H   -0.7149745778    3.8063715103   -1.3852340359
 H    0.1305646545    4.1582563176    0.1106812233
 H    0.5359613728    5.4432666820   -2.6347816282
 H    0.5866067231    6.2428699962   -1.0604645230
 H    3.9292334467    5.1082161389   -0.1688738533
 H    2.2805894353    4.8081643496    0.5547978963
 H    3.4417909783    3.3236190424   -1.9440788353