19

 C    0.0229316034    1.4995023896   -0.1862186986
 C    0.0443109600    0.0510602481   -0.0405525308
 C    0.0684849066   -1.1470084083    0.0714961753
 C    0.0674182786   -2.6015831468    0.2178092708
 C   -1.3210719826   -3.1818726208    0.2515344890
 C   -2.4214825285   -2.9725854101    1.3076574329
 C   -2.9716450641   -4.3985590475    0.9469863766
 C   -1.8454484481   -4.5170451979   -0.0887509867
 O   -1.9909264213   -3.4111180148   -0.9936552974
 H    0.7946747458    1.8398720751   -0.8855128862
 H   -0.9439453169    1.8452636467   -0.5682181389
 H    0.1995830249    2.0013573461    0.7716111291
 H    0.6145770038   -3.0692318383   -0.6096848264
 H    0.5911879959   -2.8807077406    1.1422069671
 H   -2.0366753250   -2.9180932386    2.3290014028
 H   -3.0799459938   -2.1225916080    1.1190036764
 H   -2.8769348932   -5.1068968628    1.7734776587
 H   -3.9822074630   -4.4489895835    0.5352772491
 H   -1.3500139025   -5.4026949478   -0.4715696427