21

 C   -0.0888097692    1.5803749028    0.0883349008
 C    0.0158763680    0.0752211961    0.0384269288
 O   -1.1713721266   -0.5654419240   -0.3650931945
 C    1.2945238266   -0.6629782421   -0.3650035662
 C    2.6365404988    0.0633955568   -0.3315153159
 C    2.9404939204    0.1275910392    1.1806743807
 O    1.6762977614    0.0623591497    1.8463726263
 C    0.7916783103   -0.7171845421    1.0635986620
 C    0.2419599892   -1.9306481833    1.7612838366
 H    0.7680462721    2.0313242743    0.5896604919
 H   -0.1644056263    2.0050321497   -0.9207186299
 H   -0.9909751917    1.8607890518    0.6406921369
 H   -1.3112316849   -0.3645778660   -1.2973943450
 H    1.1629017582   -1.5190809322   -1.0175315978
 H    3.4045215256   -0.4946685237   -0.8742459329
 H    2.5856264629    1.0632950506   -0.7748005822
 H    3.5714075378   -0.7218224093    1.4838735175
 H    3.4345208914    1.0508916802    1.4964072822
 H   -0.2630654695   -1.6396209645    2.6882518381
 H   -0.4811629160   -2.4407079450    1.1230916766
 H    1.0468355814   -2.6271418491    2.0191852560