23

 C   -0.0445136847    1.5221470728   -0.2645158252
 C    0.0093182901    0.0486986403    0.1590163774
 C   -1.3582013528   -0.6044716803    0.1528748016
 C   -1.8748866397   -1.3271333500   -1.0767186557
 O   -1.0243306835   -1.5159020452   -2.1740782954
 C   -1.5417616418   -2.1171164584    0.1607419580
 C   -0.3869026182   -3.0700034861    0.1823261371
 C    0.0614484707   -3.6849273006    1.4870039593
 C   -0.6323069255   -4.5349505219    0.4515103905
 H    0.9490430735    1.9807416164   -0.2393074185
 H   -0.4357331637    1.6302855547   -1.2827964220
 H   -0.6970347406    2.1024442175    0.3972715988
 H    0.6818249567   -0.4968456905   -0.5092469205
 H    0.4448673092   -0.0262399635    1.1631491712
 H   -2.1106237342   -0.0477703976    0.7090359573
 H   -2.9260831193   -1.2099543039   -1.3410019670
 H   -0.9512462493   -0.6775030847   -2.6419458495
 H   -2.4013092358   -2.4697582884    0.7268209947
 H    0.3909234356   -2.8545569872   -0.5401640888
 H    1.1233515150   -3.8322817065    1.6516615032
 H   -0.4935963132   -3.4270812468    2.3832545853
 H   -1.6513055799   -4.8491452274    0.6539193070
 H   -0.0464382987   -5.2637745723   -0.0975920187