11

 N    0.0964877086    1.3600924180   -0.1774503854
 C   -0.0323946686    0.0104128082   -0.0619804798
 C   -1.1068467775   -0.8464007402   -0.0082083930
 N   -0.6238164280   -2.1604985257    0.0215110301
 C    0.6503468398   -2.0368154609   -0.0072514834
 O    1.0949985042   -0.7319064645   -0.0603962389
 C   -2.4687277820   -0.4806152699    0.0223553073
 N   -3.5685798828   -0.1140613156    0.0503760499
 H    0.9503185518    1.7578829526    0.1848599341
 H   -0.7341512293    1.8911190086    0.0389242227
 H    1.4136089638   -2.7968795707    0.0073430864