19

 C   -0.0291051933    1.5645810874    0.0597923910
 C    0.0198087349    0.0329046890    0.0108710415
 C   -1.3906328777   -0.5689299450   -0.0530969551
 N    0.7800660820   -0.3967166748   -1.1866929837
 C    1.7170112850   -1.1967267266   -0.8359051351
 N    2.5144189275   -1.8904138017   -1.7131700736
 C    1.8608776949   -1.3858038587    0.6488540498
 O    2.1428722842   -0.1279516826    1.2946077061
 C    0.7830286367   -0.5606911424    1.2040650435
 H    0.9804058812    1.9684649281    0.1642474709
 H   -0.4654295874    1.9526718464   -0.8644370538
 H   -0.6351005254    1.9119074209    0.9033146373
 H   -1.8916616064   -0.2453776355   -0.9692757144
 H   -1.3490097830   -1.6628462624   -0.0601817790
 H   -1.9931310140   -0.2498912203    0.8048507930
 H    2.4449988969   -1.5800060774   -2.6723801232
 H    3.4582325978   -2.0790638758   -1.4113511190
 H    2.2905241835   -2.2715290251    1.1080566219
 H    0.2926624624   -0.7750509034    2.1506147520