19

 C   -0.1907302608    1.6114730037   -0.1573143291
 C    0.0104747559    0.1003719713   -0.0603186499
 C   -1.1733150968   -0.6442058808    0.6685498506
 C   -0.3456699454   -0.6159893038    2.0091447963
 C    0.8426631642   -0.4167208609    1.0983044722
 C    1.9515814267   -1.0633250317    0.7241864397
 C    2.0134491518   -1.0557364828   -0.7707027166
 O    0.9332620777   -1.8547896548   -1.3329505676
 C    0.7529602830   -0.4471701307   -1.2725323780
 H    0.7425182193    2.1156417210   -0.4298578886
 H   -0.9414166302    1.8515852048   -0.9194014684
 H   -0.5317668714    2.0336558308    0.7927638395
 H   -2.1362347365   -0.1275875432    0.6762699478
 H   -1.2867985736   -1.6624432923    0.2944325925
 H   -0.6005803357    0.2574350370    2.6168284671
 H   -0.3555497806   -1.5071327259    2.6393998519
 H    2.5765570976   -1.6991426891    1.3397414708
 H    2.9348331543   -1.0901137901   -1.3440996212
 H    0.6931298809    0.0587411076   -2.2340632089