14

 C   -0.0741746711    1.5364532088   -0.1039529730
 C    0.0290883749    0.0214883833    0.0532199043
 C    0.7816979783   -0.4030613253    1.3039034981
 O    1.2417872134    0.3740406701    2.0981530943
 C    0.9171952262   -1.9312665036    1.4860014586
 C    1.6254651627   -2.3175180368    2.6991776980
 N    2.1833380127   -2.6457917298    3.6549906466
 H    0.9178961582    1.9908550327   -0.1605770987
 H   -0.6252203523    1.7903024864   -1.0131847009
 H   -0.5887293194    1.9823028427    0.7505596112
 H   -0.9658186896   -0.4446028451    0.0862279627
 H    0.5277494004   -0.4369009521   -0.8123229278
 H   -0.0836897080   -2.3801305867    1.4851525014
 H    1.4323385735   -2.3471560247    0.6112465650