19

 C   -1.6307088657   -1.1311223092    2.6956867874
 C   -0.7197602453   -1.2502458968    1.5023595044
 O   -0.5802553277   -0.1226526881    0.6163957143
 C    0.5834056397   -0.5955900204    1.2814289808
 C    1.3771826114    0.3925524085    2.1465809078
 C    2.3780844997   -0.3836662072    3.0231639424
 N    2.1275007661    1.3404848910    1.3015113169
 C    0.5188498106    1.2213651340    3.0156896010
 N   -0.1158809991    1.8843133763    3.7166576731
 H   -1.5230491782   -0.1826642390    3.2181254193
 H   -2.6708615245   -1.2284862104    2.3677214996
 H   -1.4289435817   -1.9486948318    3.3967314872
 H   -0.8431076637   -2.1894729936    0.9567211807
 H    1.2817721228   -1.1291183260    0.6271281005
 H    3.0104187000   -1.0121676359    2.3872150456
 H    3.0157434413    0.3164840556    3.5655665699
 H    1.8578315413   -1.0272901970    3.7357612379
 H    2.7888835817    0.8190738847    0.7312910532
 H    1.4845498315    1.7993965653    0.6606781080