13

 O   -0.0845614553    1.4394442472    0.0069681181
 C    0.0065714261    0.0326147050    0.0080763603
 C    0.6857641254   -0.5214641645   -1.2761842786
 C   -0.0099825405   -0.0893131104   -2.4845604375
 N   -0.5636372006    0.2411273978   -3.4425346452
 C    0.7007257402   -0.4781820133    1.1941676676
 C    1.3052127135   -0.8712566551    2.1631475360
 C    1.9830004894   -1.3179404559    3.2619179073
 N    2.5628450926   -1.6985172091    4.1932061622
 H    0.8004058324    1.8110693450    0.1038612864
 H   -1.0302881941   -0.3219008240    0.0264419344
 H    1.7267186259   -0.1812721485   -1.3134657694
 H    0.7062651351   -1.6157751144   -1.2389391616