22

 C   -2.1786338999    0.4639796345    1.0696270252
 C   -0.9328756752   -0.1136583349    0.3820004265
 C   -0.0536155922    0.9902987890   -0.2194430542
 C   -0.1445366915   -0.9442923902    1.3746695861
 N   -0.6217934633   -2.2884517334    1.6621753619
 C    0.6893363427   -2.1452019141    0.9997677161
 C    0.8144185202   -2.6286484789   -0.4188894830
 C    2.2294143818   -2.9603310643   -0.8614534101
 O   -0.1326752328   -2.7306221363   -1.1650407504
 H   -1.9042551243    1.1415698164    1.8880826081
 H   -2.7865225858    1.0333103726    0.3592949017
 H   -2.7985097333   -0.3367247673    1.4832743030
 H   -1.2582889020   -0.7861469100   -0.4161626453
 H    0.3218547593    1.6691735952    0.5564330877
 H    0.8114091637    0.5723329746   -0.7449350271
 H   -0.6209042775    1.5916575595   -0.9366348935
 H    0.2631672271   -0.3691408254    2.2094384596
 H   -0.4824377695   -2.5298875233    2.6397276523
 H    1.5800061546   -2.3005813561    1.6060040651
 H    2.6207748240   -3.7993558164   -0.2736671967
 H    2.2347591731   -3.2225001685   -1.9197235490
 H    2.8985832808   -2.1104285128   -0.6840010941