18

 N   -0.0723085329    1.4033383838    0.3345444652
 C    0.0014668043    0.0267765307    0.0723146843
 C   -1.0096002460   -0.8401389534   -0.2119251933
 O   -0.5183810299   -2.1217336544   -0.3097498714
 C    0.8199503224   -2.0593898589   -0.0923669490
 C    1.1947064958   -0.7717881458    0.1484578732
 C    1.5750322286   -3.3157594812   -0.1515666079
 C    0.9624312572   -4.6152646471    0.3356653864
 C    1.1937339880   -4.4080136447   -1.1333181520
 H    0.7262281151    1.9081686561   -0.0287825462
 H   -0.9191580958    1.8255534192   -0.0241282105
 H   -2.0702848939   -0.7284543944   -0.3579525043
 H    2.1934308503   -0.4241296928    0.3646682071
 H    2.6346637605   -3.1800350938    0.0346510615
 H    1.6040775117   -5.3042266285    0.8736538318
 H   -0.0585418529   -4.5681893373    0.6960431916
 H    0.3276156103   -4.2223361871   -1.7577293990
 H    1.9962934072   -4.9528658204   -1.6180072374