16

 N   -0.2044330431   -1.1794511486   -0.2892451963
 C   -0.1122818319   -0.0419521210   -0.1063411958
 C   -0.0207527579    1.3899823232    0.1085406403
 C    0.3168777796    1.9241055005    1.5248058270
 O    1.3323730911    2.7935530594    0.9850299096
 C    1.2836922109    2.1525562315   -0.3014216188
 C    2.5000475769    1.3038539420   -0.5740912433
 C    3.7646758302    1.5693766005    0.1220057205
 O    2.9269030169    0.4711610300    0.4991170799
 H   -0.9086282108    1.8708287475   -0.3071985152
 H   -0.4787483015    2.4809025894    2.0275130198
 H    0.7394520628    1.1682485163    2.1926739808
 H    1.1458059335    2.8767506923   -1.1134867979
 H    2.5212554313    0.8344961177   -1.5588523773
 H    4.7033940856    1.2955442074   -0.3555873202
 H    3.8048854665    2.3824679822    0.8417541769