18

 N    0.2278414171    1.3248569133    0.0084502312
 C    0.2033749666    0.0574987441    0.0002121770
 O   -0.9957320643   -0.6020509700    0.0017542416
 C   -0.7923156745   -2.0116295813   -0.0084362120
 C   -1.5689655491   -2.8182757496    1.0749582049
 C   -1.9343410576   -3.8612906246   -0.0149920366
 C   -1.5794727681   -2.8040990820   -1.0947076927
 C    0.6966568413   -2.1694531332   -0.0166913960
 C    1.2671845400   -0.9654247604   -0.0115505116
 H    1.1926559952    1.6510251345    0.0059998963
 H   -1.0110578082   -3.1482710780    1.9538393659
 H   -2.4382878359   -2.2402538346    1.3963881544
 H   -1.2452801810   -4.7099751802   -0.0238751149
 H   -2.9551001291   -4.2459945372   -0.0125629395
 H   -2.4518288471   -2.2219799036   -1.4001250718
 H   -1.0301203203   -3.1225465113   -1.9831855411
 H    1.1848751215   -3.1356108560   -0.0253589705
 H    2.3208075336   -0.7232832597   -0.0150257447