17

 C    0.0929012614   -1.1337225038   -0.0010547288
 C    0.0160241934    0.0676766581   -0.0107100558
 C   -0.0720999338    1.4931336409   -0.0072973383
 C   -1.2283578496    2.2088237849    0.7131627216
 C   -1.3702874573    3.5632094695   -0.0327811464
 C   -0.0361312764    3.6934386094   -0.7543979326
 O    1.0288105156    3.6442485928    0.2618279014
 C    1.2500253672    2.2821378210   -0.0723015503
 C    0.3469662613    2.2842211645   -1.2530981841
 H    0.1582804415   -2.1931706564    0.0075732533
 H   -2.1395007020    1.6090391922    0.6587601509
 H   -0.9904857271    2.3579058245    1.7695320438
 H   -2.1867943442    3.5347228389   -0.7635612553
 H   -1.5465175754    4.4035255363    0.6440640010
 H    0.0918766576    4.5463226223   -1.4223052532
 H    2.2194848863    1.8417897251    0.1261810371
 H    0.4342413115    1.8974602497   -2.2579819343