19

 C   -0.1190733847    1.5555330833    0.0072394419
 C   -0.0629241038    0.0340155709   -0.0579701452
 C   -1.4540166551   -0.5578802086    0.1341737160
 C    0.8799215841   -0.6229966962   -1.0799787686
 C    2.1052092729   -0.2562523621   -0.1883024966
 C    2.6471195371   -1.6842768935   -0.1413953214
 C    1.1246377134   -1.8066971710   -0.0951381215
 N    1.0073297982   -0.5865829748    0.8668103727
 H    0.8579828423    2.0213177664   -0.1401108326
 H   -0.7944918444    1.9460288070   -0.7618624772
 H   -0.5016964108    1.8780637125    0.9816851954
 H   -2.1385758422   -0.1815836472   -0.6339266291
 H   -1.4602809588   -1.6489216999    0.0800900877
 H   -1.8566489478   -0.2673985947    1.1106386395
 H    0.8311868616   -0.6579663154   -2.1752902532
 H    2.6529826896    0.6849667654   -0.1483016400
 H    3.1475452155   -2.0547660559   -1.0397042036
 H    3.1813279216   -1.9674296294    0.7694285837
 H    0.5141377413   -2.6968279667    0.0549277021