18

 O   -0.3154221481    0.0130249961    0.1619653439
 C   -0.1425209205    1.1734963909   -0.0990069468
 C    1.1974740017    1.8892862378    0.0045989294
 C    1.4401753295    2.7984967213   -1.2245633080
 C    1.5005413996    2.0559085192   -2.4770785045
 C    1.5411293865    1.4110856369   -3.4902570529
 C    1.2126324730    2.7045553098    1.2901461805
 C    1.5542149359    2.0613766839    2.5811864429
 N    2.4849774006    3.0213247306    1.9579931696
 H   -0.9903628427    1.8289541661   -0.4096881985
 H    1.9695313225    1.1144360620    0.0588136443
 H    0.6398058295    3.5492466853   -1.2772083915
 H    2.3692431137    3.3598657111   -1.0711926192
 H    1.5768819424    0.8506130566   -4.3915580098
 H    0.5089611704    3.5359962236    1.3016526219
 H    1.0901984110    2.4049849751    3.5007142084
 H    1.8032466113    1.0036397355    2.5651959092
 H    3.2466555438    2.5156078784    1.5102405810