18

 O   -0.0205378814   -0.0189021628    0.0758475745
 C    0.0298220810    1.1941651182    0.0483391521
 N    1.1709299769    1.9170801631    0.0162389808
 C    2.5776059258    1.4837008276    0.0314174835
 C    2.9813615669    2.9876978748   -0.0387562987
 C    3.0912329811    3.6826073803   -1.4161889869
 C    2.1152011387    3.1412044873   -2.4213247565
 C    1.6028727665    4.0732370141   -1.3640674540
 C    1.4743081993    3.3553267130    0.0038328315
 H   -0.8687998561    1.8463864519    0.0519735023
 H    2.8533537388    0.9779866559    0.9624929975
 H    2.8645005892    0.8515332563   -0.8143707211
 H    3.6633707387    3.3563336522    0.7240523853
 H    3.9386596729    4.2835949658   -1.7218795630
 H    2.1988879190    3.5809236854   -3.4098133451
 H    1.8201235753    2.0969926705   -2.4292288628
 H    1.1298290935    5.0176331833   -1.6041599457
 H    1.0306318738    3.9396525232    0.8118667563