17

 O   -0.3423287971    1.3966312956   -0.0015051924
 C   -0.0902779203    0.0378258678    0.0026713922
 C    0.5166861345   -0.7036975049   -1.2327880224
 C   -0.3238374005   -1.8935037706   -0.7752153329
 C   -1.2539629170   -1.0268586877   -0.0010652540
 C   -0.2562577695   -1.9031886564    0.7757916284
 C    0.5496974892   -0.6845159229    1.2240265949
 C   -0.6257630165   -3.1083003446    1.5273061497
 O   -1.3102148232   -4.0061157407    1.0893625551
 H    0.4986196391    1.8672065814    0.0263298648
 H    0.1269828937   -0.2818672228   -2.1625297725
 H    1.6062348318   -0.8080930506   -1.2851760058
 H   -0.5544658231   -2.8175043443   -1.2868495776
 H   -2.3286066003   -0.9806863911    0.0920227800
 H    1.6432433904   -0.7531141205    1.2605118791
 H    0.1631443298   -0.2763039252    2.1621039068
 H   -0.2338711610   -3.1421331824    2.5695975864