16

 C   -0.0604566418    1.4361450177    0.0002788291
 O    0.1450651709    0.0289435238    0.0426037787
 C    0.7275096480   -0.5373460183   -1.1061153450
 C    2.1482500830   -0.0631365531   -1.3865379948
 C    0.4859281610   -2.0603985868   -1.1312849407
 O   -0.3368927986   -1.9277747379   -2.3374851231
 C   -0.2091227067   -0.5645694506   -2.3448996974
 O   -0.7131369151    0.2145699522   -3.0897652374
 H    0.8857752495    1.9914834050    0.0354350945
 H   -0.6186381894    1.7350832035   -0.8941963241
 H   -0.6435150222    1.6837686949    0.8895513749
 H    2.7691218786   -0.2032502039   -0.4963108649
 H    2.5867119247   -0.6276368468   -2.2145036803
 H    2.1633259066    0.9940327167   -1.6629532149
 H    1.3525605433   -2.6955822706   -1.3216263383
 H   -0.1069406017   -2.4266751359   -0.2927458963