16

 C   -0.0674724434    1.3509706797    0.2321674831
 C   -0.0140572407   -0.0914369122    0.0476164181
 C    0.0359772512   -1.2841218692   -0.1010213121
 C    0.0904154588   -2.7394071446   -0.2831934533
 N   -1.2391257969   -3.3472429134   -0.1901061143
 C   -1.5501404581   -4.2540224797    0.7757287540
 O   -0.7878276438   -4.6505181546    1.6304177039
 C    0.7507643489   -3.0979995506   -1.5462624384
 C    1.2811125516   -3.3951024982   -2.5816277839
 H    0.5895178445    1.6694539016    1.0485338728
 H    0.2458848422    1.8783792642   -0.6751595486
 H   -1.0834229648    1.6802438979    0.4756388147
 H    0.6461682443   -3.1916654804    0.5492768119
 H   -1.9383764117   -3.0671360306   -0.8594744497
 H   -2.5995538414   -4.5961124257    0.6915158384
 H    1.7594006993   -3.6582494641   -3.4927198066