19

 C   -0.1393471051    1.5482259972    0.1091007472
 C   -0.0013635122    0.0184534840   -0.0016008894
 C   -1.3684471048   -0.6500519422   -0.1176929007
 O    0.7083899620   -0.3598826558   -1.1908066667
 C    2.0716296679   -0.0148606021   -1.2523978330
 C    2.8296649660   -0.3663618592   -0.0103802058
 C    2.2005405054   -0.6370148937    1.1376145502
 C    0.7371918272   -0.4930924723    1.2522845332
 O    0.1485849274   -0.6914264442    2.2966046994
 H    0.8318543571    2.0417425296    0.2144382905
 H   -0.6331562863    1.9383168999   -0.7855727441
 H   -0.7390250549    1.8037836953    0.9864506956
 H   -1.9244684052   -0.2222986949   -0.9561839673
 H   -1.2477749784   -1.7221685957   -0.2926948674
 H   -1.9307240989   -0.5081422573    0.8062200192
 H    2.4827626236   -0.5616896389   -2.1095109031
 H    2.2173063975    1.0587741005   -1.4756289949
 H    3.9150703614   -0.3839713149   -0.0797728057
 H    2.7263242803   -0.9151594551    2.0454243329