18

 C   -0.0833295849    1.5131593282    0.0941592816
 C   -0.0074358637    0.0219181392    0.0173655798
 C    0.0906995335   -0.7486082369   -1.0669356139
 C    0.1041819590   -2.2255906984   -0.6929233673
 C    1.2441949036   -2.9593350444   -1.2382659048
 C    2.1837388439   -3.5491410998   -1.7007037039
 N    0.0546242022   -2.2564466699    0.8024539940
 C    1.2154677347   -1.6489800848    1.4638524051
 C   -0.0181861426   -0.8432169309    1.2376643646
 H    0.7534308197    1.9219455810    0.6737573388
 H   -0.0685154449    1.9686181948   -0.8989413953
 H   -1.0013744487    1.8336695233    0.6022654748
 H    0.1805926173   -0.4098789686   -2.0919188218
 H   -0.8136676609   -2.7162716027   -1.0489622677
 H    3.0096076824   -4.0792266166   -2.1065507825
 H    1.4277598552   -2.0630766346    2.4457512152
 H    2.0881916909   -1.4057907184    0.8634603866
 H   -0.6896373268   -0.6080615506    2.0604970969