17

 O    0.1810948472    1.4307063563    0.0593021312
 C    0.0933284918    0.0467475403    0.0013507243
 C    0.3462547381   -0.8013958445   -1.2980528732
 C   -0.4993727769   -1.8433796300   -0.4855001256
 C    0.4271830261   -2.0638973159    0.7224675901
 C    0.8188048130   -0.8305026869    1.0436926000
 C   -1.3384918597   -0.6154008979    0.0020125983
 C   -2.1536370738   -0.6805262332    1.2618190588
 O   -2.3891115374   -1.6899835830    1.8778889357
 H    1.1092945790    1.6776928165    0.1324240094
 H   -0.1680222344   -0.4005248168   -2.1766636332
 H    1.3797988993   -1.0728260029   -1.5235321070
 H   -0.9679288545   -2.7034608387   -0.9558899164
 H    0.6595260231   -3.0131427556    1.1821031290
 H    1.4504187684   -0.4696721361    1.8436039733
 H   -1.9515580476   -0.1672659330   -0.7911251003
 H   -2.5543759918    0.3033594915    1.5987306957