17

 C    0.8156381900    1.1532735970   -0.1144080283
 N    0.1050693871   -0.1077126174   -0.0502940160
 C   -1.0093552922   -0.4541051335   -0.7557316263
 N   -1.4322584803   -1.6622424368   -0.4608047626
 C   -0.5457032645   -2.1313652152    0.4819301437
 C    0.4101490973   -1.1837794235    0.7539867732
 C   -0.6844664644   -3.4774197583    1.0718692492
 C    0.3855762728   -4.4894877140    0.9911598099
 O    0.1526541861   -3.7635157027    2.1973416187
 H    1.8558655863    0.9999838038   -0.4172668658
 H    0.3299873228    1.7968562886   -0.8502901908
 H    0.8019627545    1.6596558201    0.8555854498
 H   -1.4638112079    0.2227403500   -1.4649472721
 H    1.2396279394   -1.1724575421    1.4404656299
 H   -1.7105723976   -3.8342332413    1.1558757599
 H    0.1333736852   -5.5489091171    1.0259455116
 H    1.3054552052   -4.2398522778    0.4648537861