18

 C    0.0020693416    1.5682693455    0.0110369792
 C    0.1122807071    0.0456727729    0.0061908863
 C    0.8879667873   -0.5521841413   -1.1958650209
 C    1.4868738335   -1.8106096796   -0.6360089101
 C    1.4126802111   -1.8423106637    0.7015576704
 C    1.9235727444   -2.8545130661    1.5560148689
 N    2.3244505423   -3.6443826188    2.3037867991
 C    0.7955614883   -0.5593941791    1.2588647618
 O    1.8014471831    0.3277693141    1.7314262278
 H    0.9897834026    2.0307201019    0.0712896526
 H   -0.4912396847    1.9179338528   -0.9016321016
 H   -0.5837341431    1.9206271820    0.8654114944
 H   -0.8953643433   -0.3858948590   -0.0202789776
 H    0.2435411610   -0.7396865742   -2.0616272329
 H    1.6857454891    0.1199669474   -1.5426151044
 H    1.9484100021   -2.5789948312   -1.2458683696
 H    0.0689789818   -0.7627405648    2.0568523520
 H    2.2148425256   -0.0675075287    2.5063242647