15

 N    0.0447903679   -1.1231890808    0.1390508372
 C   -0.0108863272    0.0332877162    0.0838997512
 C   -0.0354277945    1.4504442735    0.0089302611
 C   -1.1413776971    2.2149681880   -0.0199243398
 C   -0.8105597782    3.6590904033   -0.0083678966
 C   -0.0712898739    4.1346701263    1.2340263125
 C    0.7139559119    3.7222030497    0.0229582575
 C    1.2377471931    2.2885436259   -0.0392202065
 H   -2.1542291799    1.8307498650   -0.0212311445
 H   -1.4236219014    4.3636685419   -0.5577040844
 H   -0.1169760153    5.1956819403    1.4545582641
 H   -0.0811015764    3.4876500586    2.1052917700
 H    1.2428152948    4.4890167265   -0.5294231238
 H    1.9135763116    2.0479355577    0.7892434665
 H    1.7921947845    2.0952119080   -0.9652326146