20

 C    0.9977662593   -0.3994234048   -0.9697315089
 C    0.0240706952    0.0368993187    0.1365053356
 C   -0.0412950301    1.5671557618    0.2348347093
 C   -1.3959849195   -0.5359299407   -0.0547109306
 O   -1.9829283019   -0.1945935572   -1.2969333220
 C   -1.4523960023   -2.0740960969    0.1553302534
 O   -0.9239099989   -2.4826398752    1.4035483896
 C   -2.8321051461   -2.5674055070   -0.0227839219
 N   -3.9152515133   -2.9623790800   -0.0983480578
 H    1.9971186600   -0.0037006632   -0.7673011946
 H    1.0930388559   -1.4873733178   -1.0457343114
 H    0.6987422586   -0.0090615943   -1.9502130996
 H    0.3908630290   -0.3653437756    1.0875850933
 H    0.9583756329    1.9936089237    0.3616414911
 H   -0.4832370902    1.9934824033   -0.6710748135
 H   -0.6527692680    1.8855045099    1.0855730377
 H   -2.0544580486   -0.0844137368    0.6986170792
 H   -1.4115177581   -0.5138878092   -2.0041007746
 H   -0.8246471556   -2.5606675298   -0.6000043999
 H   -1.5311432685   -2.1990705587    2.0971129056