23

 C    0.1227981007    1.5196175089   -0.1733532411
 C   -0.0353826506    0.0254088949    0.1333256409
 C   -1.4569166115   -0.5073164949    0.0574942263
 C   -1.6250281276   -2.0615245083    0.0010278972
 C   -2.4762773236   -1.9221831385   -1.3030543321
 C   -2.3364611183   -0.3734234940   -1.2280672678
 C   -3.3758889200    0.4400776156   -0.4241289362
 C   -3.9006872405   -0.3099568861    0.7667948592
 C   -2.5276526884    0.2944650142    0.8471886897
 H    1.1764668390    1.8124582074   -0.1318332214
 H   -0.2486037493    1.7616677782   -1.1747018289
 H   -0.4226883750    2.1437092270    0.5405933579
 H    0.5885584252   -0.5494132091   -0.5639085706
 H    0.3636723195   -0.1846503672    1.1368106828
 H   -0.6782909629   -2.5876604603   -0.1504445888
 H   -2.1293092802   -2.5165435671    0.8574531376
 H   -1.9893853346   -2.3522600059   -2.1818230941
 H   -3.4964529954   -2.3127099342   -1.2585985238
 H   -1.9557194606    0.1371052932   -2.1139847183
 H   -3.8908107661    1.3149955965   -0.8042284333
 H   -4.6580859747    0.2219098962    1.3350677703
 H   -4.0572285993   -1.3837228757    0.7457410093
 H   -2.2938943358    1.0371436693    1.6022203753