19

 O    0.5836459992    0.6663608355    0.7086644546
 C   -0.2255072005    0.4608446886   -0.4361500151
 C   -1.4385122846   -0.4215182418   -0.1367068853
 C   -2.1980144174   -0.8485767675   -1.4104981849
 C   -1.4478056683   -2.2092556603   -1.3546348675
 C   -1.0888422920   -1.9131065773    0.1279502170
 O   -2.2721736061    0.2665232100    0.8098131310
 C   -1.9988677415    0.1438595862    2.1242196003
 O   -2.5604036797    0.7991244732    2.9539538303
 H    0.2458209894    1.4304758118    1.1853241968
 H   -0.5764348181    1.4104121555   -0.8621067103
 H    0.4015143492   -0.0315103040   -1.1877379309
 H   -3.2639011579   -0.9543185238   -1.1979747061
 H   -2.0714786589   -0.2218904768   -2.2972935942
 H   -2.0386757310   -3.1058651112   -1.5463011858
 H   -0.5686571003   -2.2301968812   -2.0029608204
 H   -0.0767137047   -2.1288665446    0.4752915234
 H   -1.8081479663   -2.3741934564    0.8094854835
 H   -1.2290394604   -0.6128390659    2.3448836037