19

 C   -0.4489970641    1.2948729257   -0.0362919808
 C    0.4669970053    0.0657845453    0.1098244598
 C    1.1086072306   -0.3185397970   -1.1426668291
 C    1.6260154174   -0.6155894690   -2.1894584467
 C    2.2595647594   -0.9799464797   -3.4693913607
 O    3.6696954738   -0.9397092418   -3.3948274725
 C    4.0710394714   -2.2106007992   -2.8901317277
 C    2.8759023869   -3.1451342275   -3.2162733967
 O    1.9347860358   -2.2958962895   -3.8674946418
 H    0.1178704214    2.1623275251   -0.3845433353
 H   -1.2469018700    1.1008212638   -0.7579471663
 H   -0.9061251553    1.5441870717    0.9257387560
 H    1.2383729914    0.2693166346    0.8635380948
 H   -0.1140247455   -0.7825821384    0.4935156049
 H    1.9452838449   -0.2998943513   -4.2669968093
 H    4.9957211818   -2.4950067905   -3.3984160268
 H    4.2570515560   -2.1620686222   -1.8102093032
 H    3.1319068163   -3.9520105686   -3.9074341410
 H    2.4469771026   -3.5781875213   -2.3043158076