17

 N   -0.2746898881   -1.0520329797    0.2798670434
 C   -0.1411445957    0.0952503646    0.2380390962
 C    0.0601769404    1.5414809536    0.1757061610
 C    1.5141913188    1.9266403361   -0.1802421813
 C    1.6749245369    3.4682350003   -0.2722239631
 C    2.4259315224    3.8392626558    1.0338417224
 O    2.3943907317    2.6778700207    1.8532492826
 C    2.4815022938    1.5760025707    0.9654558331
 H   -0.6356851943    1.9570605260   -0.5612425921
 H   -0.2004814253    1.9762848946    1.1477068473
 H    1.7959221787    1.4301951974   -1.1117091140
 H    2.2476154205    3.7572916085   -1.1562607702
 H    0.7041807089    3.9674450376   -0.3376536286
 H    3.4668724345    4.1211796048    0.8130866433
 H    1.9616431845    4.6556180110    1.5922226579
 H    2.2136882696    0.6695115043    1.5137234997
 H    3.5073015725    1.4613288337    0.5787297023