16

 O   -0.4179962505    1.1083064397    0.2141335053
 C    0.0749828814   -0.1621957346   -0.0352334301
 C    0.9416423543   -0.1798576962   -1.2911382102
 O    1.1930388802    0.8419706928   -1.8786508968
 C    0.9429800517   -0.7002844535    1.1290328330
 O    1.5294594509    0.0168853563    1.8968893730
 N    1.0711218371   -2.0922752485    1.0961888119
 C    0.0275167470   -3.0043243148    1.5601882054
 C    1.3139007748   -2.8463731401    2.3083815448
 H    0.0706000035    1.7047841711   -0.3749422541
 H   -0.7460656727   -0.8782960281   -0.1992646667
 H    1.3303905218   -1.1651600841   -1.6081924845
 H   -0.8648973563   -2.5650237726    1.9989818921
 H   -0.1436510647   -3.8808360936    0.9421899049
 H    2.0742762023   -3.6177029822    2.2366733853
 H    1.3006164693   -2.2844314416    3.2375700069