25

 C    0.0395888754    1.6361957989    0.1362171676
 C    0.0712206069    0.0943995424    0.1220352842
 C    0.8271246088   -0.4174938084    1.3649802979
 C   -1.3708490851   -0.4738187442    0.0966138555
 C   -2.2862490203   -0.1238260302    1.2665472604
 O   -3.5356233235   -0.7558960142    1.0120751287
 C    0.7529398440   -0.4185714737   -1.1722642795
 C    2.2029574013   -0.0086124925   -1.4143000988
 O    2.5938696631   -0.5967709472   -2.6498005720
 H    1.0490227617    2.0585392027    0.1297381859
 H   -0.4929574490    2.0289658118   -0.7371002431
 H   -0.4590760433    2.0192909929    1.0317342596
 H    0.3475369640   -0.0864001232    2.2911270066
 H    0.8659133730   -1.5123862869    1.3812691299
 H    1.8562006812   -0.0463458353    1.3901102417
 H   -1.8707294231   -0.1391928698   -0.8209054423
 H   -1.3227731638   -1.5681772705    0.0353238206
 H   -1.8574898153   -0.4783239328    2.2161581076
 H   -2.4119728729    0.9663469316    1.3500864769
 H   -4.1287606633   -0.5480303088    1.7397238110
 H    0.7169062761   -1.5150388555   -1.1847497161
 H    0.1698792513   -0.0849220935   -2.0396789560
 H    2.2956806855    1.0871466748   -1.4588018454
 H    2.8487968855   -0.3594826554   -0.5951296502
 H    3.5071727816   -0.3502144631   -2.8217892807