18

 C    0.0391062689    1.3438705302   -0.4701391315
 C   -0.0945907997    0.0361122861    0.2833751005
 O    0.7489251273   -0.3597063237    1.0582602012
 C   -1.3299813971   -0.7611283120    0.0285751986
 C   -2.5713049312   -0.4348477686   -0.7869895635
 C   -3.2484387889   -1.4963064561    0.0968570106
 C   -2.5900454333   -2.8450518513   -0.2625498114
 C   -1.3645090007   -2.2275412003    0.3808228517
 N   -2.1601021906   -1.2763792991    1.2031097048
 H    1.0116911850    1.7901825418   -0.2609489150
 H   -0.0757822901    1.1833613756   -1.5482942747
 H   -0.7545313023    2.0363408770   -0.1662305573
 H   -2.9411540183    0.5682073444   -0.5590579225
 H   -2.5621948957   -0.5903223366   -1.8710391225
 H   -4.2994437904   -1.4234508347    0.3678076194
 H   -2.9816133574   -3.6589765869    0.3523159780
 H   -2.5599417222   -3.1503232800   -1.3133748814
 H   -0.4745202531   -2.6975899858    0.7808454549