18

 C   -0.2802138951   -0.9680843465   -0.7219725436
 C   -0.1726931357    0.1546442309   -0.3022040745
 C   -0.0117859795    1.5021457267    0.2013974959
 C    0.0977591756    1.7275094402    1.7486738393
 C    1.2373718794    2.7547688788    1.4978413718
 C    1.3688409234    2.1962679837    0.0763733558
 C    2.5959024200    1.5645259125   -0.5065039430
 C    1.9939644992    2.8000957146   -1.1410774719
 H   -0.3884627764   -1.9588349891   -1.0877945705
 H   -0.7932889833    2.1487190062   -0.2159226328
 H   -0.8043856879    2.0822693338    2.2500651698
 H    0.4568583258    0.8269809421    2.2500347422
 H    0.8772441436    3.7887754987    1.5127750396
 H    2.1174632032    2.6824199467    2.1415737919
 H    3.5292977255    1.6706118979    0.0375070551
 H    2.4773771990    0.6178094054   -1.0234945949
 H    1.4803345840    2.6839407453   -2.0906047931
 H    2.5188454393    3.7440956321   -1.0305700271