18

 C    0.1856053710    1.4476173639   -0.2991917093
 C    0.0216752944   -0.0717291407   -0.2763001792
 C   -1.3835095433   -0.5271076649    0.1961668762
 C   -2.4388442797   -0.0738682532   -0.7111870567
 N   -3.2597954112    0.2894881895   -1.4392196699
 C   -1.4193937322   -2.0480135545    0.4514744613
 O   -0.5145186020   -2.5787440249    1.0539368788
 C   -2.5990865857   -2.8698473012   -0.0276730183
 O   -2.4786381509   -4.2057968179    0.3495985303
 H    1.1916948920    1.7152871735   -0.6335285889
 H   -0.5306581508    1.9193669165   -0.9786875208
 H    0.0390556083    1.8774110137    0.6976398960
 H    0.2075206724   -0.4900133980   -1.2714616177
 H    0.7394515203   -0.5339789041    0.4055995636
 H   -1.5778506666   -0.0692999808    1.1772444000
 H   -3.5218709977   -2.4168401552    0.3717474326
 H   -2.6669904358   -2.7575968343   -1.1231475536
 H   -1.6302868323   -4.2738979972    0.8140685957