17

 C    0.1937319120    1.4674602745   -0.0209379761
 C   -0.0783895678   -0.0526790678   -0.0758485091
 N   -1.4946095075   -0.4076831823   -0.0400702656
 C    0.6824916095   -0.7255245990   -1.2328270148
 C    1.9717441633   -1.1850952903   -0.6001930055
 N    3.0409404694   -1.4966837477   -1.1780613027
 O    1.8005485157   -1.2337185262    0.7844909729
 C    0.5943183912   -0.6867182852    1.1483937641
 O    0.1947104149   -0.7043999052    2.2721922221
 H    1.2645197183    1.6968417696   -0.0508573729
 H   -0.2769960381    1.9515275719   -0.8831527272
 H   -0.2255223861    1.8945974287    0.8940398815
 H   -1.8398801684   -0.2667201615    0.9063954089
 H   -2.0242831685    0.2143535934   -0.6439130586
 H    0.1172613247   -1.5985865401   -1.5730144407
 H    0.8783672443   -0.0833805343   -2.0924886893
 H    3.7534612232   -1.7893215287   -0.5074758172