24

 C   -0.8808733053    1.3322719438    0.3968591929
 O   -0.5242014839   -0.0244061404    0.3016553806
 C    0.0560452273   -0.5222679969    1.4902499375
 C    0.3999334501   -1.9708069777    1.2662185906
 N    1.7497903530   -2.2731191023    0.7607970466
 C    1.3600952812   -2.7481473591    2.0968023675
 C    2.1324450300   -2.2077416072    3.2872893306
 C    1.3293132107   -2.3870840555    4.5832747868
 C    3.5050429167   -2.8893658831    3.3737865861
 H   -0.0069969765    1.9735079246    0.5946139359
 H   -1.3218713203    1.6236355623   -0.5596836557
 H   -1.6195029778    1.5077639683    1.1962683439
 H    0.9597069100    0.0496340246    1.7480709592
 H   -0.6562192196   -0.4236443487    2.3292564924
 H   -0.4299538117   -2.5321566815    0.8389424270
 H    1.7180816410   -3.0251814463    0.0786471566
 H    1.1256760781   -3.8107541180    2.1907509379
 H    2.3005579303   -1.1371323787    3.1239563643
 H    0.3627157526   -1.8755641957    4.5318653805
 H    1.1332628586   -3.4478919057    4.7809942825
 H    1.8774079686   -1.9882211890    5.4428991377
 H    4.0648899253   -2.7455523178    2.4452614230
 H    4.0973629685   -2.4823112707    4.1997783542
 H    3.3975689633   -3.9679804095    3.5430703515