18

 N    0.6495641825    1.0330353599   -0.1531156154
 C    0.2911161063   -0.1652465503    0.0100338704
 O   -0.9874655171   -0.5253175014   -0.2206535584
 C   -1.3660573739   -1.8474002068    0.1170942045
 C   -2.0977213173   -2.0463170633    1.4764330346
 C   -3.1196659239   -2.8926973129    0.7120688267
 C   -3.6325480415   -4.2260160414    1.0275629756
 O   -4.4717077994   -3.0603941807    1.0750790003
 C   -2.6277235507   -2.3414069123   -0.6295114974
 H    1.6450898167    1.1263236924    0.0369871168
 H    0.9311940430   -1.0028808429    0.3223065997
 H   -0.5146917477   -2.5269485194   -0.0012930212
 H   -1.5461476154   -2.5066160255    2.2989588930
 H   -2.5377844291   -1.1020324385    1.8096752225
 H   -3.8552836157   -4.9268109600    0.2237087875
 H   -3.4112016643   -4.6792752509    1.9932067440
 H   -3.2316189610   -1.4876784289   -0.9496927955
 H   -2.4943106716   -3.0303711871   -1.4655551976