23

 C   -0.1183879371    1.4923599046    0.1778634286
 C   -0.0128979975   -0.0341453607    0.0705103882
 C    0.5027904114   -0.4563011397   -1.3114555982
 C    0.8836212541   -0.5913456890    1.1953561308
 O    0.3988575063   -0.1590650002    2.4723837815
 C    0.2253790327   -1.2648145703    3.3645928917
 C   -1.1882882651   -1.2510240545    3.9463347440
 C    0.5549544340   -2.4710572804    2.5262687513
 C    0.9270658561   -2.0936843132    1.3095963136
 H    0.8596322709    1.9628226359    0.0175408495
 H   -0.8055133591    1.8893920987   -0.5764808008
 H   -0.4763540092    1.7870723719    1.1663640664
 H   -1.0124271560   -0.4638202238    0.2204904254
 H    1.5303703637   -0.1078193074   -1.4719803385
 H    0.4922810184   -1.5423833299   -1.4443933868
 H   -0.1169690031   -0.0215832176   -2.1019922973
 H    1.9005171141   -0.1828435356    1.0457995760
 H    0.9454511420   -1.1639639099    4.1955213692
 H   -1.9295461818   -1.3754230526    3.1516303237
 H   -1.3137617286   -2.0593194376    4.6747717343
 H   -1.3763573849   -0.3004655819    4.4535028374
 H    0.4930367221   -3.4840588398    2.9043807669
 H    1.2357704468   -2.7409841870    0.4992563530