23

 C   -0.0326259817    1.5371606187    0.0490864764
 C   -0.0177363633   -0.0013721247   -0.0021594366
 C   -1.4636753713   -0.5285340883    0.0690570086
 C    0.6875466771   -0.4665075326   -1.2995340650
 C    1.0080169227   -1.9665042237   -1.3103272757
 C    1.9729709608   -2.3629841964   -0.1790034608
 C    1.6847408379   -1.6497874124    1.1298967176
 O    2.1549569158   -0.2948970421    1.2250452740
 C    0.7436807427   -0.5184706301    1.2108351270
 H    0.9873099777    1.9318951418    0.0692297428
 H   -0.5441031613    1.9503309415   -0.8272178402
 H   -0.5545125885    1.8999304726    0.9418387890
 H   -2.0527685709   -0.1484875450   -0.7722300893
 H   -1.5082225174   -1.6214453630    0.0459138133
 H   -1.9546020774   -0.1985393170    0.9912751847
 H    0.0531111539   -0.2103144359   -2.1561803303
 H    1.6185806159    0.1001248857   -1.4145477695
 H    0.0790838368   -2.5404724200   -1.2122306745
 H    1.4380661101   -2.2494980203   -2.2770456970
 H    1.9335838429   -3.4455003934   -0.0142816133
 H    3.0069187357   -2.1293166401   -0.4609327811
 H    1.8647340827   -2.2275911503    2.0373858330
 H    0.2570879090   -0.3222127051    2.1698284970