20

 C   -0.0094970180    1.6049208388    0.0284417914
 C    0.1030227091    0.1066117451    0.0400292593
 C    0.7083508809   -0.7559757501   -1.0342692485
 C    2.1517581148   -0.9838652557   -0.8031902690
 N    1.1993424163   -1.7984711545   -0.0229026576
 C    0.6855361639   -0.9095010225    1.0455813180
 C    1.3836155233   -0.7736515959    2.3616270335
 C   -0.8083208289   -0.7902702741    0.8531497188
 O   -1.5274750107   -0.1084844523    1.8401866110
 H    0.9607904027    2.0784241682   -0.1556276472
 H   -0.6973515495    1.9387005756   -0.7580246982
 H   -0.3987209129    1.9678124971    0.9822414821
 H    0.2148778571   -1.0682232524   -1.9504639940
 H    2.6898701534   -1.5654938858   -1.5457265393
 H    2.7455674373   -0.2287329437   -0.2934532411
 H    2.3989050845   -0.3787636688    2.2490060020
 H    0.8275431392   -0.0975089911    3.0166230151
 H    1.4602690697   -1.7499269081    2.8554172949
 H   -1.3467798616   -1.6055004335    0.3640727886
 H   -1.6953354304   -0.7210643563    2.5639604502