16

 O    0.6975237094   -0.0599927907    0.1072274009
 C    0.3094187192    1.0646829597   -0.0449376820
 C    1.1860682834    2.3116816876    0.1446158736
 O    2.4077663512    1.9635788232    0.7594486487
 C    3.3617503176    1.2217563899    0.1184100213
 N    3.7903022596    1.2238096003   -1.0618566812
 C    3.3773059149    2.0664660357   -2.1550027148
 C    2.1551151749    2.9391076181   -2.1125288142
 C    1.2359600636    3.0643124780   -1.1600898175
 H   -0.7336060088    1.2952882537   -0.3549621379
 H    0.6736968809    2.9407610640    0.8855186312
 H    3.8393072302    0.5741010306    0.8522907503
 H    4.2391317643    2.7102407078   -2.3921484937
 H    3.2854314581    1.4245731066   -3.0452299081
 H    2.0327269807    3.5415317705   -3.0122338528
 H    0.3972333709    3.7362263747   -1.3227567538