18

 C   -0.0802804522    1.5447513888    0.0317524044
 C    0.0304291017    0.0447526825   -0.0271464396
 C    0.7097837538   -0.7899193205   -1.1568600262
 C    1.6948715028   -1.4371688808   -0.1472326997
 C    0.9623986202   -0.6769500990    0.9855330270
 O    1.0907013803   -0.6312519058    2.1737876730
 C   -0.6558161678   -1.4623376770   -1.3585942984
 C   -1.2168670083   -2.0717984979   -0.1384719027
 N   -1.3322313380   -0.6061208128   -0.2918433180
 H    0.9073838106    2.0168688126    0.0428598816
 H   -0.6418492287    1.9191729443   -0.8292036849
 H   -0.6127916163    1.8403537471    0.9415395590
 H    1.1319199382   -0.3110380846   -2.0379890047
 H    1.7187291873   -2.5273592707   -0.0639929493
 H    2.7225065868   -1.0755504397   -0.2613130879
 H   -1.1227920315   -1.6002065136   -2.3288364861
 H   -2.1820765142   -2.5600945020   -0.2385639105
 H   -0.5908048448   -2.5019564610    0.6374426130