19

 C   -0.0083406191    1.5185019097    0.1348066889
 C   -0.0408257573    0.0172815340   -0.0981435541
 C    0.8306903305   -0.4629173152   -1.2458981871
 C    0.8215506963   -1.9819107704   -1.2536953638
 C    1.7764689953   -2.6144685184   -2.2522131080
 O    1.2000867643   -2.4835195467    0.0475197418
 C    0.9513083469   -1.8234938808    1.1991128212
 O    1.2437454362   -2.3059754215    2.2521944613
 O    0.3897228399   -0.5969233356    1.1368743255
 H    1.0163720423    1.8576662798    0.3125347017
 H   -0.4066104330    2.0447620439   -0.7379587994
 H   -0.6136372265    1.7803008256    1.0060549461
 H   -1.0774942750   -0.3037101954   -0.2740437176
 H    0.4453468730   -0.0801256804   -2.1960496952
 H    1.8555784258   -0.0923958831   -1.1217059708
 H   -0.2008104639   -2.3350143666   -1.4504915669
 H    2.8007117721   -2.2747916562   -2.0727629976
 H    1.7538491086   -3.7031389182   -2.1612004598
 H    1.4897533137   -2.3433679445   -3.2728001463