21

 C    0.1029128754    1.6730039372   -0.1734468370
 C   -0.0192379807    0.1587945008    0.0187096764
 O   -1.3803193157   -0.2240309845    0.1578555863
 C    0.7319013266   -0.6275677986   -1.0961994005
 C    2.0887943778   -0.9943060761   -0.4487794546
 O    2.0989717893   -0.3836752396    0.8471854706
 C    0.7589165960   -0.2962008014    1.2520080160
 C    0.4823903812    0.1279400775    2.6496619310
 C    0.2183260981   -1.3096653296    2.2250616797
 H    1.1547228310    1.9718792670   -0.1851111106
 H   -0.3467569767    1.9828140061   -1.1251732987
 H   -0.3997521801    2.2050663651    0.6391415231
 H   -1.8924529034    0.2493631055   -0.5048792249
 H    0.1518699757   -1.5198265524   -1.3412672288
 H    0.8516372328   -0.0365240995   -2.0081368912
 H    2.1988109244   -2.0830875717   -0.3524861687
 H    2.9534379122   -0.6098809118   -0.9959782010
 H    1.3377935537    0.3197148971    3.2875006777
 H   -0.3756285691    0.7683803902    2.8249374919
 H   -0.8111816333   -1.6279444130    2.1183282635
 H    0.9149580345   -2.0633344683    2.5751453698