17

 C   -0.7083873846    1.0047121011    0.2919540374
 N    0.0960464982   -0.2051668053    0.1452097441
 C    1.4927713514   -0.0712898358   -0.2239210284
 C    1.1009292681   -0.6363843817    1.1048627335
 C    1.5481493636    0.0421330684    2.3661564371
 O    1.1908834778    1.3885618586    2.6538633407
 C    0.6914297062    0.3736208398    3.5308397088
 C   -0.7339840849    0.1345623332    3.5416723060
 N   -1.8694203978   -0.0739876174    3.5983793277
 H   -0.1621455689    1.8661340468    0.6942862458
 H   -1.0929914749    1.2615372040   -0.7000188031
 H   -1.5603729083    0.7939877230    0.9422076745
 H    1.8584390358   -0.7195312851   -1.0166445375
 H    1.9240394194    0.9304483580   -0.2131205595
 H    1.1403215161   -1.7201688314    1.2255486457
 H    2.5816288836   -0.2021683508    2.6269603033
 H    1.1404339693    0.3711372044    4.5227239839