18

 C    0.0017924324    1.4421244543    0.0095978208
 N   -0.0608583096   -0.0104226029    0.0540461703
 C    0.5972668081   -0.6851073669    1.0733860977
 N    1.1108048618    0.0106921948    2.0805680491
 C    1.7313525595   -0.6583279004    3.0645313878
 C    1.8777705392   -2.0335322878    3.0739612425
 C    1.3169390850   -2.7663066164    2.0216984353
 C    0.6538198992   -2.1035892501    1.0047623423
 N    0.0786924912   -2.7422057406   -0.1111534394
 H    1.0279912473    1.8273926054   -0.0625268144
 H   -0.5744831135    1.7882769291   -0.8521320191
 H   -0.4380425476    1.8558897873    0.9189316536
 H    0.0535814971   -0.4627934646   -0.8434369272
 H    2.1342339133   -0.0499150805    3.8700643289
 H    2.4004311194   -2.5308030758    3.8825624506
 H    1.3853169327   -3.8507837989    2.0030318540
 H    0.0575086912   -3.7499768838   -0.0178781017
 H   -0.8571433868   -2.3996620921   -0.3041444512