18

 C    0.3342025192    1.3266088531    0.2271862604
 C   -0.0207091595   -0.1026639284   -0.1060866990
 C    0.6989175451   -0.8538131866   -1.1985873017
 N    0.9059938882   -1.1720530678    0.1925487032
 C    2.0289834867   -1.1517326694    0.9698182140
 O    2.1005644660   -0.6226493585    2.0629087819
 C    3.2226736542   -1.9616395153    0.4054857167
 C    4.3405327357   -2.2020362193    1.3889717786
 O    3.2388418551   -2.3350315229   -0.7433710329
 H    1.3624182371    1.5581701260   -0.0657448576
 H   -0.3370198604    2.0106940687   -0.3014374420
 H    0.2441436265    1.5096063334    1.3010401977
 H   -1.0612469448   -0.3728224013    0.0679389230
 H    0.1759776151   -1.6041375152   -1.7850109879
 H    1.5021102931   -0.3427927046   -1.7217066199
 H    3.9647201619   -2.7709217931    2.2460383209
 H    5.1509997769   -2.7427661002    0.8999717366
 H    4.6948074839   -1.2491575386    1.7924690279