20

 C   -0.0093236008    0.0303079054    0.5070271037
 N    0.5266786871   -0.8920027431   -0.4775428836
 C    0.2717496627   -0.6679846562   -1.6976216012
 O    0.6961590263   -1.3936117502   -2.7295668665
 C    1.6654590952   -2.4531847950   -2.5093395060
 C    1.1627282695   -3.6367467378   -1.7112815373
 O    1.3646147599   -3.5568595803   -0.3363182181
 C   -0.0527378378   -4.3807743495   -2.2235660585
 C    1.3207062508   -5.0144133072   -2.2890896309
 H    0.8103618902    0.4705370331    1.0851984018
 H   -0.5972791817    0.8475696052    0.0636614546
 H   -0.6479092791   -0.5119119429    1.2128843324
 H   -0.3425242965    0.1666014568   -2.0541524445
 H    1.9312193596   -2.7480738192   -3.5256893189
 H    2.5413788377   -2.0252615497   -2.0107251617
 H    1.0779586274   -2.6557560307   -0.0874560521
 H   -0.7346917349   -4.7484651091   -1.4660958915
 H   -0.5204470759   -4.0534123143   -3.1461393962
 H    1.7949578266   -5.1313048824   -3.2577488629
 H    1.5458352235   -5.7966116829   -1.5735692525