19

 C   -0.0951219069    1.4946350394    0.0413382743
 C    0.1532904637   -0.0010395244    0.0544543882
 O    0.4801578667   -0.5859099711    1.0689225662
 C   -0.0301872595   -0.7069648948   -1.2480197986
 C    0.7052929867   -2.0156337066   -1.4740402809
 C   -0.7788329235   -2.0483831044   -1.3071097714
 C   -1.4342772522   -2.6699548773   -0.0884916429
 C   -1.4836545045   -4.1792120131   -0.2006786236
 O   -2.4699685973   -4.8501313446   -0.0391918313
 H    0.5921582861    1.9848793778   -0.6580018267
 H   -1.1107110273    1.7078326651   -0.3114992494
 H    0.0439222794    1.9047240675    1.0419022049
 H   -0.1786665787   -0.0626833395   -2.1078233264
 H    1.1348390494   -2.1902868678   -2.4536095445
 H    1.3077345710   -2.3435514277   -0.6333212438
 H   -1.3512412086   -2.1664687384   -2.2235424624
 H   -0.8433181654   -2.4199315655    0.8013802817
 H   -2.4534847653   -2.3005449229    0.0590980540
 H   -0.5038393238   -4.6493340216   -0.4496830773