17

 O    0.1720685153   -0.4080540937    0.1882112215
 C   -0.0004362609    0.7908466902    0.1858116055
 N    0.9683752983    1.7223551250   -0.0610735485
 C    2.3400490769    1.3761024979   -0.2830522649
 C    3.0984649584    1.9520610079   -1.5065241792
 C    4.3618042974    2.0877064621   -0.6170312545
 C    3.4523320102    1.9934408973    0.6532984085
 C    3.0591426442    3.2894155993    1.1807381337
 N    2.6961529725    4.3192147387    1.5637248464
 H   -0.9827602145    1.2632883570    0.3769677014
 H    0.7256188123    2.6989599443    0.0215599266
 H    2.3985445759    0.2879385663   -0.2442440152
 H    3.1578573665    1.3231479186   -2.3961631757
 H    2.7042196226    2.9321860307   -1.7903408518
 H    5.0139002293    1.2144474807   -0.6801050956
 H    4.9605921859    2.9919564170   -0.7211870497
 H    3.7996929298    1.3567227005    1.4698152014