18

 C    0.0870613059    1.5017822791    0.0141975504
 C    0.1002802557   -0.0130232082    0.0744818785
 O    1.1143210470   -0.6411714629    0.2797135364
 C   -1.2406197684   -0.7112742310   -0.1362587530
 C   -1.1578189418   -2.2034885599    0.1320778207
 N   -1.1200560670   -2.6008484144    1.5665617159
 C   -2.1560927646   -3.6518379846    1.3850067010
 C   -2.4296996641   -3.0569480696   -0.0065170023
 O   -3.2874080778   -3.1650173670   -0.8302984894
 H    1.1060902318    1.8865589182    0.0667859460
 H   -0.4002645660    1.8513184160   -0.9024031047
 H   -0.4953936345    1.8985882518    0.8539100686
 H   -1.9948462931   -0.2478060411    0.5106382661
 H   -1.5684869736   -0.5316671545   -1.1697185885
 H   -0.3421613960   -2.6357447934   -0.4654081130
 H   -0.2153621373   -2.9424675467    1.8672718918
 H   -1.7871658646   -4.6855422771    1.3203996348
 H   -2.9810318117   -3.6182856047    2.1048070008