21

 C   -0.1368980233    1.6140916602   -0.0879808962
 C    0.0059958692    0.0902925574   -0.0270865714
 O    0.7115452859   -0.4275512896   -1.1623033023
 C    2.1007248086   -0.1362776410   -1.1517708290
 C    2.7456211619   -0.6235930573    0.1402644640
 O    2.0640707889   -0.0742279137    1.2595076133
 C    0.6795631773   -0.4353205836    1.2496804118
 C    0.1075244808    0.0717281717    2.5677972378
 O    0.7711852226   -0.5219127381    3.6656843498
 H    0.7973465577    2.1218709571    0.1646587841
 H   -0.4391971215    1.9111568709   -1.0957792605
 H   -0.9043507918    1.9564537068    0.6124674729
 H   -0.9878662412   -0.3651893866   -0.1032123823
 H    2.5297751009   -0.6504370099   -2.0175311305
 H    2.2808024380    0.9424715403   -1.2710413377
 H    2.7117735561   -1.7238729463    0.1834940382
 H    3.7886819016   -0.2996408051    0.2086261724
 H    0.6064394050   -1.5351189271    1.2400570570
 H    0.1798806827    1.1690992566    2.6041022846
 H   -0.9509379764   -0.1999600613    2.6429233503
 H    1.7131841268   -0.4175428914    3.4848782235