22

 C   -0.0865386375    1.5095842868   -0.1857769481
 C    0.0150502751    0.0208841562    0.0486084507
 N    1.3489708490   -0.5996633354   -0.0666042147
 C    0.6524024643   -0.6094380596    1.2350679858
 C    1.3363701338    0.1611902118    2.3516104149
 C    2.3427350961   -0.7655127757    3.0551536179
 C    1.6668707497   -2.0762672890    3.4635882659
 O    1.0712915424   -2.7295112646    2.3518036201
 C    0.0811937108   -1.9235268066    1.7351137959
 H    0.7792437968    2.0380203027    0.2183069550
 H   -0.1338037836    1.7231359001   -1.2589981205
 H   -0.9916632824    1.9170923019    0.2779162321
 H   -0.8172451918   -0.5444820307   -0.3742092747
 H    1.2868425991   -1.5133025774   -0.5102471021
 H    1.8399406098    1.0460980220    1.9570869003
 H    0.5808974646    0.5025279448    3.0731627020
 H    3.1651692998   -0.9903810885    2.3667725683
 H    2.7718355652   -0.2794022111    3.9386043292
 H    2.3886213842   -2.7846867928    3.8801819621
 H    0.9009617728   -1.8802731936    4.2356198072
 H   -0.7393512111   -1.7238537623    2.4481187026
 H   -0.3274639171   -2.5134256489    0.9074222502