21

 O    0.1083914827    1.3994571419   -0.1738101395
 C    0.1054190035    0.0039592034    0.0273242263
 C   -1.3237595942   -0.5402619441    0.0790905504
 O   -2.0311329296   -0.0947150157   -1.0881613815
 C   -1.3923331045   -2.0573266539    0.2563420976
 C   -2.8153475830   -2.5942946805    0.3449659814
 C   -3.6595323851   -2.7236211287   -0.9431286540
 O   -3.9537037479   -4.1074640816   -0.6626025099
 C   -3.0232161838   -4.1228005106    0.4377700172
 H   -0.5912935350    1.5663874917   -0.8190549093
 H    0.6606146118   -0.5222026075   -0.7724288494
 H    0.6261530462   -0.1963972494    0.9702947474
 H   -1.8467269738   -0.0475156007    0.9077904810
 H   -1.6640623753   -0.5618123560   -1.8488237547
 H   -0.8608451056   -2.5483273154   -0.5729382118
 H   -0.8435005201   -2.3234193828    1.1699126888
 H   -3.3630195604   -2.0650888041    1.1303943017
 H   -4.5634417382   -2.1102446554   -1.0133530095
 H   -3.0859987716   -2.6139511115   -1.8745834309
 H   -2.1255049439   -4.7158628370    0.2078441947
 H   -3.4761091424   -4.5101611023    1.3577303541