20

 C   -0.7636501072    1.1400817075    0.2884592375
 C   -0.1339743761   -0.2322910041    0.1826970871
 C    1.2358355438   -0.4163761653   -0.4213536917
 C    1.0227388785   -0.6922415191    1.0472720058
 C    1.6437094329    0.1963104318    2.1150516180
 C    0.8865460700    0.1028469647    3.4647145900
 O    1.4372721616    0.9326738793    4.4597604173
 C    3.0514683795   -0.1562685125    2.3410298403
 N    4.1463679630   -0.4455530344    2.5754205994
 H   -0.0231641645    1.9238842437    0.4739526759
 H   -1.2733185948    1.3966544747   -0.6463074927
 H   -1.5072032398    1.1837168832    1.0919589197
 H   -0.8496403706   -1.0188223491   -0.0428342273
 H    1.4205770197   -1.2547166424   -1.0832027129
 H    1.7870700312    0.4823960348   -0.6817461145
 H    1.0050837908   -1.7406039452    1.3331635285
 H    1.6241230557    1.2451899177    1.8000934548
 H   -0.1392513565    0.4451600814    3.3036359788
 H    0.8444081449   -0.9509943808    3.7790525824
 H    2.3197646979    0.6053319441    4.6695029135