20

 C    0.7781456086    1.3505468977   -0.2717245259
 O    0.9019748301   -0.0444950677   -0.4185441077
 C   -0.3145045599   -0.6445843348   -0.8242424379
 C   -0.1474991874   -2.0834425593   -0.9663242480
 C   -0.0388875494   -3.2751560108   -1.1033033678
 C    0.1047231712   -4.6987753077   -1.2222918081
 N    0.0562824662   -5.2882600804   -2.5870877465
 C    1.3144779878   -5.3393988714   -1.8382741011
 C    2.4696491794   -4.5374879018   -2.3799813988
 H    0.4909253070    1.8394208962   -1.2166575455
 H    0.0304720054    1.6185454498    0.4922792018
 H    1.7534796710    1.7305490900    0.0402229627
 H   -1.1099462367   -0.4317801041   -0.0880650080
 H   -0.6534082249   -0.2130970629   -1.7826778647
 H   -0.3735640297   -5.2676387199   -0.4271737928
 H   -0.4242016183   -6.1834860302   -2.5435826852
 H    1.5872098559   -6.2978821831   -1.3970813699
 H    2.1229644097   -3.5754669619   -2.7624191855
 H    3.2118158578   -4.3520262517   -1.5966000364
 H    2.9610492962   -5.0781744260   -3.1956794346