17

 N    0.2000816409   -1.2018351342    0.2491418086
 C    0.0662692196   -0.0593197175    0.1330566088
 C   -0.0915675544    1.3903644033    0.0037302123
 C   -0.7432138833    1.9962042873    1.2757735204
 C    0.4492113333    2.2510770912    2.2020098441
 C    1.5289376507    2.8339279960    1.2511595212
 C    1.2974790088    2.1037333894   -0.1146333672
 C    1.3781986646    4.2832466952    1.1096465559
 N    1.2434000535    5.4255979997    0.9930979735
 H   -0.7031950234    1.5769368550   -0.8829581365
 H   -1.2216471381    2.9437151756    1.0075069083
 H   -1.5021537962    1.3436249570    1.7104483142
 H    0.2200739200    2.9167663181    3.0357682447
 H    0.8169780584    1.3050471293    2.6124135013
 H    2.5365044101    2.6433158223    1.6300949342
 H    2.0942087999    1.3832525220   -0.3021571572
 H    1.2935000255    2.8125246303   -0.9432608167