16

 C    0.0580446365    1.5383441415    0.0607250736
 C    0.0092939364    0.0404533991   -0.0232924812
 C    0.6324983443   -0.8223834583   -1.1755353084
 C    0.6287345278   -1.8103830714    0.0214608454
 O    0.9071038015   -0.6837382247    0.8955161685
 C   -0.8995344748   -1.9947475446    0.2486109661
 C   -1.3136980146   -0.7200955436    0.2179316322
 C   -1.6000963327   -3.2044286078    0.4153378585
 N   -2.1417059230   -4.2213644415    0.5459613932
 H    1.0721917838    1.9012904925   -0.1222849297
 H   -0.6110754078    1.9825742699   -0.6828582124
 H   -0.2568055733    1.8767776383    1.0525551803
 H    0.0285797143   -1.0509881934   -2.0556179994
 H    1.6384874615   -0.4873480341   -1.4375196836
 H    1.2921721007   -2.6650706419    0.1323246841
 H   -2.3058025706   -0.3053008201    0.3197738529