23

 C    0.0741047750    1.5519640433    0.0929590444
 C    0.0835681402    0.0219090576    0.0339957699
 C    0.6731139891   -0.5245034991   -1.2702255846
 C    0.6907653284   -2.0548170497   -1.3354107859
 C    1.3113798777   -2.5923129748   -2.6308177390
 O    2.6698887212   -2.1478785996   -2.7539948471
 C    3.5477352115   -3.2553413044   -2.9283086521
 C    2.6652700463   -4.4699987524   -2.8595490952
 C    1.4020755354   -4.0939034096   -2.7028680763
 H    1.0885053767    1.9563230884    0.0037187524
 H   -0.5214711474    1.9758887468   -0.7233936430
 H   -0.3477671556    1.9149187315    1.0356005161
 H    0.6564929761   -0.3737051254    0.8833047568
 H   -0.9401694265   -0.3564548673    0.1586787301
 H    0.0990167082   -0.1316529855   -2.1216281975
 H    1.6978638776   -0.1564953806   -1.3971503714
 H    1.2549481811   -2.4622497162   -0.4868018785
 H   -0.3332727357   -2.4452384727   -1.2539725683
 H    0.7346916365   -2.1910507600   -3.4835392165
 H    4.0705457141   -3.1743962886   -3.8955641827
 H    4.3213638081   -3.2480372460   -2.1444164391
 H    3.0413927372   -5.4821758482   -2.9382831913
 H    0.5342361348   -4.7369607775   -2.6278651210