24

 C   -0.0355144957    1.5332251599   -0.0038009043
 C    0.0046933927   -0.0060694223    0.0074814036
 C    0.7632920402   -0.4953178785    1.2551424121
 C   -1.4314935033   -0.5615352037    0.0245376313
 C    0.7216758958   -0.5010898304   -1.2439196182
 C    0.3649925720   -0.2834453421   -2.7394998997
 N    1.6401377355   -1.1352940517   -2.8455584066
 C    2.1731558793   -0.2289871695   -1.7242494229
 C    1.0225170325   -1.9542096767   -1.7007984036
 H    0.9737858493    1.9580724421   -0.0191918796
 H   -0.5732477438    1.9115790656   -0.8796278353
 H   -0.5434862311    1.9134937574    0.8889475077
 H    0.2664163067   -0.1525176523    2.1690225481
 H    0.8083553892   -1.5889719932    1.2907585064
 H    1.7904443996   -0.1158075577    1.2717201539
 H   -1.9967203085   -0.2307989586   -0.8532177114
 H   -1.4354323539   -1.6566605260    0.0344050992
 H   -1.9688543952   -0.2186001193    0.9152227033
 H   -0.5231019636   -0.7816427841   -3.1390798426
 H    0.4784912556    0.7200872707   -3.1597847274
 H    2.4265178415    0.7789648005   -2.0653868761
 H    2.9979920653   -0.6758570729   -1.1616916348
 H    1.7587979170   -2.5339204629   -1.1365171974
 H    0.1854195530   -2.5817337543   -2.0199953258