18

 C   -0.0687869258    1.5123276789   -0.1795052092
 O    1.2986718108    1.6046913342    0.2992385715
 C    1.4135837270    0.1664099386    0.4413445649
 C    1.7926444347   -0.3152867359    1.8457497617
 C    0.9905269501   -1.5360489569    2.2475410308
 C   -0.2440375043   -1.7932274969    1.8048520565
 C   -0.9396013542   -0.8964564269    0.8428537572
 N   -0.7213514015   -1.0530942499   -0.6284379865
 C   -0.0621343179    0.0166950027    0.0919685216
 H   -0.7552328276    2.1295217194    0.4114961002
 H   -0.1544940712    1.7810351072   -1.2400323928
 H    2.0968147377   -0.2465145154   -0.3149933086
 H    2.8642775707   -0.5267824092    1.9158975246
 H    1.5936541443    0.5042710582    2.5487876311
 H    1.4581113706   -2.2197457619    2.9514033811
 H   -0.7764685966   -2.6763778243    2.1485936785
 H   -1.9597687769   -0.6072932080    1.0851464108
 H   -0.0662673299   -1.8143584139   -0.8033123334