16

 C   -0.1023523571    1.4417988209    0.0107917274
 C   -0.0044089124   -0.0079791331    0.0030100279
 C    0.0905361340   -1.2119791255   -0.0036924044
 C    0.1429559622   -2.6186522127   -0.0115073222
 C    1.2051179316   -3.4424597923   -0.0225508619
 C    0.7425585460   -4.8298263038   -0.0270809956
 N    1.4593817356   -5.8740789851   -0.0369406444
 O   -0.6367257541   -4.8188583441   -0.0185367617
 C   -1.1074388380   -3.4743164937   -0.0084486022
 H    0.8892766254    1.9063241389    0.0037582435
 H   -0.6494778902    1.8044971440   -0.8665364807
 H   -0.6328941534    1.7960866978    0.9016466058
 H    2.2503556962   -3.1751933292   -0.0277012253
 H    0.8731637654   -6.7100829896   -0.0377135352
 H   -1.7219742544   -3.3055477861    0.8847773214
 H   -1.7329613167   -3.2961346263   -0.8921623824