18

 C    0.0297670298    1.5318091141   -0.0063050303
 C    0.0105660658    0.0280962101   -0.0112741324
 C   -0.0795094274   -0.7146261118   -1.1857772905
 N   -0.1007220652   -2.0485216351   -1.2518216020
 C   -0.0293159045   -2.7031481309   -0.0935302017
 C    0.0643996090   -2.0987212675    1.1595198706
 C    0.1415764108   -2.9060579660    2.4294452935
 C    0.0835316500   -0.6989245230    1.1824172761
 O    0.1718949741    0.0108278370    2.3389994462
 H    0.9462284941    1.9181623870    0.4528161405
 H   -0.0352197258    1.9224850324   -1.0249852783
 H   -0.8054996149    1.9401272806    0.5729808771
 H   -0.1381918315   -0.1870479435   -2.1364917372
 H   -0.0469954999   -3.7905905453   -0.1525811915
 H    1.0698850652   -2.7173336248    2.9855030316
 H   -0.6969493899   -2.6952245216    3.1069413423
 H    0.1129323426   -3.9755304329    2.2074967727
 H    0.2154428476   -0.5958282984    3.0853655332