17

 C    0.1580447186    1.6645572832    0.1711462861
 C   -0.0399834105    0.1665972584   -0.1241794446
 O    0.6154386564   -0.1926483615   -1.3108922817
 C    0.4725212402   -0.6916734110    1.0291102808
 O    1.4477847917   -1.4036268658    0.8603360235
 C   -0.2340017108   -0.6483458265    2.3381040700
 C   -0.5213987809   -1.9795050875    2.9727913201
 N    0.5029718453   -1.1099565934    3.5265530604
 H    1.2162533976    1.8799625160    0.3458537051
 H   -0.1685905153    2.2365811288   -0.7004028475
 H   -0.4196289521    1.9951427615    1.0393442600
 H   -1.1206385345   -0.0300112009   -0.2246748437
 H    1.3151481393   -0.8091182143   -1.0420838544
 H   -0.9264403304    0.1699709080    2.5041835142
 H   -1.4237569824   -2.0820478743    3.5682942072
 H   -0.2152030753   -2.8618095842    2.4181182247
 H    1.4141871031   -1.4340118165    3.2002474098