21

 C   -0.1567221003    1.5269990937   -0.1266334306
 C    0.0857739926    0.0226252734   -0.1111352355
 C    1.2936277699   -0.5741039649   -0.9163370883
 C    1.7928007005   -1.2534419209    0.3640089547
 C    2.0597503439   -0.2126888098    1.4184778583
 C    0.6412923626   -0.6412811038    1.1654930456
 C   -0.2217745190   -1.2671025806    2.2393266832
 C   -0.9209575566   -0.2800375770    3.0613039345
 C   -1.4932930707    0.5453432078    3.7220205231
 H    0.7434412857    2.0845953289    0.1519366465
 H   -0.4573718170    1.8630364161   -1.1253746485
 H   -0.9491898279    1.8009524253    0.5768765506
 H   -0.8335850845   -0.4937858843   -0.4094393441
 H    0.9791631558   -1.2706113232   -1.6966093526
 H    1.9828697182    0.1546072268   -1.3577574795
 H    2.2108736688   -2.2514750003    0.4289261936
 H    2.4891280193   -0.5853958654    2.3436090179
 H    2.4134475090    0.7767734127    1.1387191103
 H   -0.9611534423   -1.9353541703    1.7760244761
 H    0.3991099801   -1.9027071984    2.8843553102
 H   -1.9977358781    1.2687473943    4.3131200245