17

 C   -0.1681523830    1.5180569529    0.0497573753
 N   -0.0899700531    0.0688597314    0.0600739766
 C   -1.3058214237   -0.6933173331    0.4273305720
 C   -0.4026243287   -1.6038650247    1.2669217389
 O   -0.4974596341   -2.6716374506    1.7892321654
 C    0.7364180534   -0.5799739345    1.0982008660
 C    2.1054909228   -1.1128857863    0.6568116603
 C    3.0642436306   -0.0366816870    0.4190280036
 N    3.7980116210    0.8376992131    0.2376846578
 H    0.8228166414    1.9380386125   -0.1409456174
 H   -0.8345198327    1.8445143517   -0.7541469809
 H   -0.5466064514    1.9338496335    1.0020626380
 H   -2.0173076616   -0.1397919894    1.0635518897
 H   -1.8522384476   -1.1472905933   -0.4056926787
 H    0.8466510037    0.0238702709    2.0156809280
 H    2.4969399347   -1.7827207292    1.4307124657
 H    1.9891280680   -1.6968826879   -0.2615079103