21

 C   -0.3752356556    1.2919093867   -0.0524429753
 O    0.2679549123    0.0384214374    0.0943080196
 C    0.7639410387   -0.5005225260   -1.0973201165
 C   -0.2096703046   -1.1210258010   -2.0625228143
 C    0.6865391997   -1.9991479600   -1.2034360610
 C    1.8356132631   -2.7746415239   -1.8432801402
 C    3.0552349984   -1.8762736775   -2.0739378560
 O    2.6808932290   -0.6114703548   -2.6014583592
 C    2.0174728648    0.1779321877   -1.6326356559
 H    0.3241201625    2.0905015676   -0.3368923009
 H   -1.1781622659    1.2499694983   -0.8016082108
 H   -0.8075236284    1.5406813920    0.9196765228
 H   -1.2630789984   -1.0809477777   -1.8088816110
 H    0.0177163952   -1.0585107757   -3.1222834001
 H    0.1879590411   -2.4779520225   -0.3674567436
 H    2.1286005103   -3.6127684501   -1.2016791259
 H    1.5094369385   -3.2063993710   -2.7965702938
 H    3.6027884097   -1.7310926687   -1.1282586097
 H    3.7438172914   -2.3206442026   -2.7982796561
 H    1.7849742184    1.1278822161   -2.1252287838
 H    2.6833542800    0.3873474756   -0.7778213282