19

 C   -0.1040748961    1.0801279063   -0.5517085635
 O   -0.1753586027    0.3459055650    0.6735109997
 C    0.7992080343   -0.5827775625    0.8338079113
 O    1.6730908497   -0.7985151821    0.0264718521
 N    0.6089503006   -1.2049348877    2.0408342136
 C    1.3534225199   -2.2287319050    2.6497990751
 C    2.5497875505   -2.7527557912    1.8999560166
 N    0.9131150553   -2.5903254255    3.7872639306
 C    1.5798027791   -3.6389692772    4.5371406877
 H   -0.1890223203    0.4109092506   -1.4116532016
 H   -0.9439252674    1.7747255281   -0.5265030927
 H    0.8398784904    1.6263644611   -0.6234471110
 H   -0.1780999356   -0.8975175279    2.5946420379
 H    2.2554017282   -3.1408915203    0.9222226135
 H    3.2611279424   -1.9479396971    1.7005993531
 H    3.0416158250   -3.5382722282    2.4722294150
 H    0.9857177256   -3.8634821331    5.4270200669
 H    1.6913397330   -4.5738297640    3.9707500256
 H    2.5790633582   -3.3358397794    4.8793729900