18

 C    0.0393837993    1.3738150160    0.4651990290
 C   -0.0708191164   -0.0884464243    0.0765767910
 C   -1.3871565978   -0.6885925534   -0.2425193445
 N   -0.3897999318   -0.4728475925   -1.3103518120
 C    1.3914563920    1.9653257710    0.1825038345
 C    2.1638188823    2.6896308216    1.0365764132
 O    3.3251228477    3.0737616695    0.4420498370
 C    3.2970297286    2.5786277062   -0.8229326284
 C    2.1462061378    1.8944804526   -1.0426050329
 H   -0.7421902629    1.9329630420   -0.0705742171
 H   -0.1853110434    1.4855912617    1.5332339529
 H    0.6853994441   -0.7287014612    0.5267800434
 H   -1.5879715456   -1.7296181644   -0.0066671234
 H   -2.2613073004   -0.0423434997   -0.2107278666
 H   -0.6473720903    0.3574947983   -1.8402837644
 H    2.0325019067    3.0066321034    2.0584885945
 H    4.1614178342    2.7947657783   -1.4288639631
 H    1.8670424258    1.3802786149   -1.9489066832