24

 C    0.1368630245    1.6257888981   -0.1170437760
 C    0.0788791911    0.1010480959    0.0171007826
 C   -1.3378525633   -0.4575780756   -0.1723175633
 C   -1.4885792020   -1.9639848035    0.0640109319
 C   -0.6672582969   -2.7935682500   -0.9278375183
 C   -1.2926518208   -2.4552386084    1.5382189880
 C   -2.5953463949   -3.2894785962    1.4171775130
 C   -2.9642684594   -2.4781923792    0.1469940691
 H    1.1558609647    2.0016684947    0.0194147081
 H   -0.2075010951    1.9492998056   -1.1058294895
 H   -0.5010338295    2.1138260887    0.6284386817
 H    0.7601295151   -0.3500995755   -0.7139062435
 H    0.4551410160   -0.1928034443    1.0059046164
 H   -2.0151701140    0.0692763541    0.5144026501
 H   -1.6900026651   -0.2164064677   -1.1863233237
 H    0.4068135464   -2.6122226572   -0.8176226694
 H   -0.8334439646   -3.8660199701   -0.7796420242
 H   -0.9451966918   -2.5556887084   -1.9615414435
 H   -0.3685706405   -2.9956346925    1.7626452856
 H   -1.3943654421   -1.6358431722    2.2567813544
 H   -2.3985019130   -4.3424275033    1.1989894717
 H   -3.2939998949   -3.2433714415    2.2556915547
 H   -3.6656918509   -1.6667905899    0.3645131749
 H   -3.3403946691   -3.0356726417   -0.7158599708