23

 C   -0.0195937654    1.6299433867    0.0240928342
 C   -0.0007543776    0.0984915048    0.0839930260
 C   -1.3806405209   -0.5447034917   -0.0934231054
 C   -2.0589390318   -0.3252829712   -1.4660341839
 C   -3.1845173547   -1.3761731148   -1.4956313925
 C   -2.5707235061   -2.5946246154   -0.8093541758
 O   -1.6314122950   -3.2936652743   -1.6626050699
 C   -0.5202218322   -2.9363991780   -0.8161265965
 C   -1.4196148039   -2.0754351257    0.0980752878
 H    0.9784770491    2.0433155066    0.1994320422
 H   -0.3596359508    1.9906952232   -0.9518682601
 H   -0.6903712563    2.0474500512    0.7836229024
 H    0.6843856317   -0.2838355958   -0.6832446180
 H    0.4161926264   -0.2180935416    1.0492309069
 H   -2.0462942681   -0.1190969595    0.6730355934
 H   -2.4268269183    0.6949376693   -1.6013008864
 H   -1.3438638217   -0.5240984540   -2.2735680973
 H   -4.0468541293   -1.0306215711   -0.9111867467
 H   -3.5379307695   -1.6160932308   -2.5024868203
 H   -3.3063543634   -3.2852525161   -0.3822963647
 H   -0.0820524460   -3.8167252141   -0.3280697929
 H    0.2684660311   -2.4166646806   -1.3736984650
 H   -1.4217138471   -2.3713441573    1.1483224426