14

 O    0.2649084922   -0.0786387316   -0.2926710150
 C    0.0981455925    1.0803958750   -0.0399622900
 C    1.2454514186    2.0867952800    0.1606012890
 O    2.4997369433    1.4519010367    0.2620970281
 C    3.2608489966    1.6584653620   -0.9215969652
 C    2.4997671886    2.7343529377   -1.6719553378
 C    1.3507880844    2.9919806227   -1.0410495055
 C    2.9758293353    3.3319083880   -2.8659729209
 N    3.3971209124    3.8009968909   -3.8374768800
 H   -0.9164096871    1.5311843010    0.0601295772
 H    1.0345873803    2.6460536177    1.0869658080
 H    4.2761141567    1.9712408466   -0.6496497213
 H    3.3326634474    0.7342078943   -1.5119145610
 H    0.5899119487    3.6976994988   -1.3442153855