17

 C    0.1458700809    1.4905915500   -0.0136768465
 O    0.1093053042    0.0757678724   -0.0838878228
 C    0.5751701260   -0.5502066456    1.0597107007
 C    2.0915800386   -0.5992530017    1.3430685491
 O    2.0320904232   -2.0307965020    1.5635663674
 C    0.6478040085   -2.1065727660    1.1434521421
 C   -0.2490556980   -2.0490604957    2.4002517612
 O   -0.7113461397   -2.8691490021    3.1344340178
 C   -0.3134295318   -0.5046046062    2.3443994294
 H    1.1708469639    1.8645240303    0.1230259954
 H   -0.2432122818    1.8665023434   -0.9617588154
 H   -0.4783373272    1.8733309970    0.8061578384
 H    2.7016225324   -0.3600688890    0.4632689011
 H    2.4689353711   -0.0612322464    2.2193398483
 H    0.4664049741   -2.8147376776    0.3323075098
 H    0.0534591000    0.0357738296    3.2205178564
 H   -1.3327455044   -0.1741068704    2.1169021974