20

 C   -0.1623438792    1.6400824581   -0.0694805662
 C   -0.0503458660    0.1140457698   -0.0870362767
 C   -1.4351691548   -0.5455747761   -0.0158715662
 O   -2.1546867409   -0.1695101411    1.1390024308
 C    0.7640117633   -0.4204641074   -1.2690870154
 C    2.2406036899   -0.0369976856   -1.1188938760
 N    2.7664351057   -0.2923366881    0.2176410395
 C    1.9407884744   -0.4096395380    1.1662847599
 O    0.5885288263   -0.3033524910    1.1569096431
 H    0.8182495927    2.1098051126    0.0381575771
 H   -0.6146398910    1.9951084944   -1.0011154865
 H   -0.7968522251    1.9525976621    0.7618774672
 H   -2.0318172717   -0.2320522828   -0.8788531823
 H   -1.3062691936   -1.6375731272   -0.0708738311
 H   -1.5916400490   -0.3897883860    1.8903953946
 H    0.6766942682   -1.5132002373   -1.2924002409
 H    0.3506414921   -0.0396345201   -2.2087224021
 H    2.8511610534   -0.5969147610   -1.8354657309
 H    2.3955662155    1.0232619907   -1.3579268011
 H    2.2820009299   -0.6347989161    2.1757015631