16

 C    0.0334302359    1.4394672849    0.2037796190
 C    0.0173605200   -0.0474047129    0.0876195724
 C   -0.8735170802   -0.9889007019    0.8013980836
 C    0.6273340863   -1.1659110408    0.9961500107
 C    1.2355702218   -1.6677274824   -0.3051320060
 O    0.5651118099   -0.6423028228   -1.0857195608
 C    1.2884663905   -0.9692034076    2.2849648162
 O    0.7653271668   -0.4629457731    3.2545566132
 H    1.0101199475    1.8430683943   -0.0766407024
 H   -0.7225920653    1.8786031573   -0.4570599988
 H   -0.1947182352    1.7359156704    1.2309715498
 H   -1.3644186059   -0.5981080052    1.6864527757
 H   -1.4182974195   -1.7454355400    0.2432478320
 H    2.3229327785   -1.5367681305   -0.3577408578
 H    0.9659046884   -2.6779922412   -0.6330874113
 H    2.3537389905   -1.2938442686    2.3127743046