15

 C   -0.0442169797    1.3064769837   -0.1800593875
 C    0.1805859482   -0.1811748664   -0.2299127227
 O    1.1634009643   -0.7674866505    0.1378586061
 O   -0.9074676600   -0.8074038140   -0.7600471207
 C   -0.7576679496   -2.1960944434   -0.9821741698
 C    0.0292321792   -2.4739456018   -2.2629134492
 O    0.4886738902   -1.5973930679   -2.9546560949
 C    0.1731926166   -3.8844345420   -2.5716285751
 C    0.2684462310   -5.0623077183   -2.7997227323
 H    0.7382799171    1.7728944220    0.4171117646
 H   -0.0116891026    1.7036290239   -1.1993335045
 H   -1.0302549602    1.5347030914    0.2312087307
 H   -0.2457788532   -2.6828270995   -0.1451952980
 H   -1.7637964705   -2.6156536360   -1.0761270602
 H    0.3688288792   -6.0983431112   -3.0171025565