17

 C    0.2756380005    1.4964373649   -0.0498052244
 C    0.1196232912    0.0015784139    0.0001706233
 C   -1.0049137758   -0.6935660177    0.7108267873
 C    0.4100705412   -0.9508150470    1.2040849376
 N    1.1116849237   -2.0869712743    0.6944474449
 C    1.2023362401   -1.9193926951   -0.5864383875
 N    0.6507759025   -0.7711885916   -1.0937478577
 C    1.9095284577   -2.8685674676   -1.4695366918
 O    2.0523113771   -2.6806720150   -2.6558413457
 H    1.3207200960    1.7832891495   -0.2081988762
 H   -0.3275080388    1.9342871947   -0.8541188879
 H   -0.0600912545    1.9430261608    0.8898522324
 H   -1.6161975750   -0.0838018560    1.3672359383
 H   -1.5304618324   -1.4951257790    0.2024866964
 H    0.6769560000   -0.6204215831    2.2021787724
 H    0.9817416886   -0.3709481670   -1.9570950979
 H    2.3187065079   -3.7503083502   -0.9408357934