23

 C   -0.0713737509    1.5286625577   -0.0164502112
 C    0.0557229130    0.0110578790    0.0149732483
 O    0.7117958938   -0.3849544258   -1.1836830589
 C    0.8365997443   -1.7935425041   -1.2714103885
 C    1.8559803268   -2.3429338807   -0.2674350316
 C    1.6992434043   -1.7132681615    1.1220676201
 C    1.7543302641   -2.6868087268    2.2820979144
 C    2.2942964368   -0.3369915613    1.3263864499
 C    0.7972656978   -0.4991107538    1.2404862894
 H    0.9175880371    1.9955848212   -0.0131343133
 H   -0.6031551878    1.8463244384   -0.9175901128
 H   -0.6240618455    1.8825767228    0.8592097595
 H   -0.9572305551   -0.4326405218    0.0178750869
 H   -0.1481868624   -2.2607565692   -1.1014935341
 H    1.1385754090   -2.0163146851   -2.2991875314
 H    1.7260091597   -3.4294766177   -0.1991401207
 H    2.8718889241   -2.1731109987   -0.6427797058
 H    2.7067397419   -3.2308255236    2.2941160956
 H    1.6553545295   -2.1697533541    3.2422403647
 H    0.9503711319   -3.4300534092    2.2184199225
 H    2.7345761632   -0.1024501711    2.2901185410
 H    2.7922339400    0.1196320814    0.4768563827
 H    0.2369960244   -0.3991288659    2.1670450031