21

 C    0.0586631395    1.5760492213    0.3050473748
 C   -0.0074695453    0.0743346021   -0.0325442506
 C   -1.4001552358   -0.4702240377   -0.1053160663
 C   -2.2200441943   -0.7377654931   -1.1880174398
 C   -1.9101230688   -0.5650675631   -2.6436658077
 C   -3.4666466691   -1.2108986543   -0.6673482869
 N   -4.5936370241   -1.5181824344   -1.4603899598
 C   -3.3738435950   -1.2169531321    0.7051193523
 N   -2.1136133213   -0.7540673026    1.0317944388
 H    1.0960142114    1.9235294788    0.3546499602
 H   -0.4662747778    2.1665290223   -0.4516979276
 H   -0.4136659142    1.7850775629    1.2704837865
 H    0.4907468467   -0.1029062156   -0.9910055983
 H    0.5720426584   -0.4880421373    0.7127880135
 H   -1.9380991275   -1.5178004708   -3.1912719287
 H   -2.6322763432    0.1002703626   -3.1329669685
 H   -0.9147055083   -0.1392082314   -2.7979927124
 H   -4.3394355258   -2.0394739959   -2.2916367038
 H   -5.2835557412   -2.0552922222   -0.9495422352
 H   -4.0840350055   -1.5022057871    1.4641901116
 H   -1.7558068387   -0.6745577323    1.9665346181