18

 O    0.0288807207   -0.0343539208    0.0596452080
 C   -0.0247356769    1.1723650577    0.0697177414
 C   -1.3205210275    1.9547773378    0.1166272227
 C   -1.2357600230    3.1716423857   -0.8181446900
 N   -0.1598943993    4.0385473890   -0.3501628711
 C    1.1816339173    3.4824280029   -0.4636900770
 C    2.0233421602    3.7410346688    0.8046487431
 O    1.7349804699    2.4130693784    1.3032207092
 C    1.2568358610    2.0052555460   -0.0012333702
 H   -2.1454549831    1.2847220909   -0.1369482375
 H   -1.4630711962    2.3221429885    1.1401649915
 H   -1.1114706401    2.8287519263   -1.8623705221
 H   -2.1724298227    3.7357160238   -0.7782783762
 H   -0.2035642965    4.9471921209   -0.7945733227
 H    1.6690896527    3.6867497024   -1.4266644424
 H    3.0983106674    3.8736074938    0.6227992123
 H    1.6480254698    4.5237574149    1.4694000218
 H    2.0155178659    1.4160268929   -0.5320708108