16

 O    0.1027410382    1.4461301871    0.0503151447
 C    0.0387478655    0.0410875502    0.0804718125
 C    0.2558250018   -0.5673214698    1.4960362374
 C   -1.0811426816   -1.3107713747    1.3741053873
 C   -2.1917986619   -0.2839832999    1.1513758645
 C   -1.3356286439   -0.6203610937   -0.0136903908
 O   -1.7705451466   -1.1045774767   -1.2201904500
 C   -1.3523650157   -2.6414793869    1.7874793939
 N   -1.5716401592   -3.7354449914    2.1007036968
 H   -0.0150307729    1.7375651402   -0.8598696310
 H    0.7146403112   -0.4165269289   -0.6531204083
 H    1.1253825395   -1.2216403152    1.5577233310
 H    0.2951867927    0.1753472784    2.2972542102
 H   -3.1905505414   -0.7118917730    1.1275016067
 H   -2.1254010079    0.6842927076    1.6423963613
 H   -2.7215734579   -1.2518081232   -1.1916661461