20

 O   -0.1329787150    1.4692135890   -0.0052534913
 C    0.0104464774    0.0504954250    0.0202488889
 C   -1.4178252341   -0.4954058719    0.0043108122
 C   -1.5651884460   -2.0046928714    0.2235937075
 C   -1.0046854146   -2.8881280231   -0.9070546653
 C    0.5023622700   -2.9216198149   -1.0080248791
 C    1.3078443287   -1.8652074650   -1.1195502368
 C    0.8785534916   -0.4183170960   -1.1638629451
 H    0.7477276342    1.8572506131    0.0007796017
 H    0.5008961632   -0.2651641675    0.9563520190
 H   -1.9708073335    0.0393090892    0.7843968203
 H   -1.8811222845   -0.2107684774   -0.9503415294
 H   -1.0929429797   -2.2915778613    1.1717100286
 H   -2.6338805742   -2.2252940929    0.3321825777
 H   -1.3718854929   -3.9101148857   -0.7678620383
 H   -1.4318300989   -2.5449084545   -1.8617571653
 H    0.9599587764   -3.9085502864   -0.9973480792
 H    2.3778392575   -2.0465680312   -1.1897061836
 H    0.3282057466   -0.2024604494   -2.0909637142
 H    1.7747965577    0.2139731623   -1.1931688382