18

 C   -0.7755796165    1.7788669080    0.3941048921
 N    0.6645922207    1.5695725108   -0.1793265262
 C   -0.0039970704    0.4365028915   -1.0183102865
 C    0.5772531824   -0.9391738130   -1.3536500940
 C    0.4116007427   -1.6106773775    0.0359371161
 C    1.4774357961   -0.8597136620    0.8781745137
 C    0.7923119303    0.5067919470    0.9559857594
 C   -0.5835672156    0.2238214948    0.3720146557
 O   -0.9001890124   -1.1490543949    0.5485964580
 H   -1.4613317011    2.2306955568   -0.3249554707
 H   -0.7824357108    2.2906161773    1.3582202467
 H   -0.6397972454    0.8578043179   -1.7971219614
 H    1.6107260746   -0.9731622158   -1.7062932186
 H   -0.0634921732   -1.3966267295   -2.1128549913
 H    0.4216542568   -2.6984293790    0.0706088515
 H    2.4672518830   -0.8975499863    0.4172933792
 H    1.5532683194   -1.2539185022    1.8955539905
 H    0.8635967593    0.9905048760    1.9302675858