17

 C    0.2304473615    1.3234642091    0.2768476867
 O    0.0201563290   -0.0951971328    0.2399118194
 C   -1.2545981969   -0.4848964526    0.0709398046
 O   -2.1915367977    0.2707033491   -0.0080710765
 C   -1.3383464160   -1.9850513955   -0.0578967862
 C   -2.7488676504   -2.6319626678   -0.0405210670
 C   -2.4823900718   -3.3280596977   -1.4095614648
 C   -1.1790474858   -2.5284079033   -1.5168574113
 O   -0.3761669755   -2.3347479770   -2.3764113858
 H    1.3031902098    1.4594199064    0.4118224579
 H   -0.0995933364    1.7841774356   -0.6573470279
 H   -0.3215474369    1.7722820431    1.1063519594
 H   -0.6008097062   -2.4575498693    0.5965100969
 H   -2.9450520409   -3.2981324575    0.7994948197
 H   -3.5263480695   -1.8690637876   -0.0909285877
 H   -2.2937200525   -4.4046849205   -1.3455182407
 H   -3.1998637338   -3.1529164118   -2.2155598766