20

 C   -0.0409503588    1.5557990754   -0.0340640410
 C    0.0630313259    0.0416396684    0.0348800017
 C   -1.1807797066   -0.6572335067   -0.4973190031
 C    1.3361724010   -0.7175522874   -0.2320341865
 C    2.5747804201    0.0213675688    0.2838775829
 C    1.9682492567   -0.0536400110    1.7306440106
 O    1.7593818309    1.1318362677    2.4727819986
 C    0.7084223064   -0.7069148073    1.1800534319
 H    0.8058667786    2.0594523074    0.4295314849
 H   -0.1242284212    1.8870034033   -1.0766526116
 H   -0.9410342690    1.8940977862    0.4920133408
 H   -1.3695293816   -0.3754335133   -1.5396177353
 H   -1.0816103111   -1.7467403943   -0.4577693804
 H   -2.0655212278   -0.3790507020    0.0865718833
 H    1.3631458733   -1.5414318340   -0.9358655385
 H    3.5003221708   -0.5513829852    0.1882588462
 H    2.7396800144    1.0260776070   -0.1159071904
 H    2.5329423706   -0.7823853388    2.3281252795
 H    2.6116953241    1.4291811542    2.8071822606
 H    0.1701309133   -1.4971997485    1.6918234256