19

 O   -0.7964316850    0.9081479203    0.4906687359
 C    0.1098979675    1.0942385002   -0.2831891672
 C    1.2870966020    2.0063856174   -0.0674134478
 C    1.2281019858    3.3158269669   -0.8995648800
 C    0.1182097411    4.2082044555   -0.4088919437
 C    1.3964128259    4.1404189392    0.3796510852
 C    1.4286254626    2.8688509925    1.2049223272
 C    0.8633386441    2.6423979773    2.5755647900
 C    2.3572145358    2.5792766566    2.3467969763
 H    0.1122414952    0.5988948731   -1.2841285033
 H    2.2046773337    1.4497852151   -0.2943841745
 H    1.6997931506    3.4516433390   -1.8640941077
 H   -0.0260826857    5.1126743340   -0.9912147629
 H   -0.7954076544    3.7827721123   -0.0024417900
 H    2.0302833168    5.0048968270    0.5375864449
 H    0.4649845900    3.5031545136    3.1032890675
 H    0.3265502267    1.7186411691    2.7502212271
 H    2.8430366924    1.6087527625    2.3801625073
 H    2.9689942049    3.3939784084    2.7215449758