20

 C    0.0915777597    1.3783647044    0.0716407489
 O   -0.1972055571    0.0159466060   -0.1446475049
 C    0.5650366329   -0.5722934791   -1.1734459235
 C    2.0569907154   -0.8467238211   -0.8238253927
 C    2.2863485519   -2.2291059713   -1.4116711533
 C    1.4733133483   -3.3806491353   -0.9433357581
 C    0.1794568332   -2.9347951946   -0.2764713379
 C    0.0275263309   -1.9679039865   -1.4779265477
 N    1.1367009928   -2.6794849263   -2.2456350879
 H    1.1276078854    1.5356990757    0.4068300102
 H   -0.0698388555    1.9760548425   -0.8392759278
 H   -0.5859909803    1.7340635785    0.8516233861
 H    0.5071641216    0.0476064971   -2.0831060525
 H    2.7333834910   -0.1117705619   -1.2677391009
 H    2.2000334791   -0.8210461304    0.2616993630
 H    3.2527803650   -2.4637024146   -1.8468021880
 H    1.8725033254   -4.3909653497   -0.9378730370
 H   -0.5739831272   -3.7244231529   -0.2964255714
 H    0.2212985150   -2.5013052477    0.7262587635
 H   -0.9270125377   -1.9733061627   -2.0022810582