21

 O   -0.0553279617    1.3576608336    0.0332780178
 C    0.0539826269   -0.0355662104   -0.0347928048
 C    1.0784930243   -0.6353563005   -1.0005653349
 C    0.3241333918   -1.7929260969   -1.7012093082
 C   -0.8590950230   -2.1639614856   -0.7690969185
 C   -0.4412655606   -3.1155372831    0.3779372888
 C    0.2301873933   -2.2158192185    1.4466483173
 C   -0.3543511576   -0.8269613565    1.1978342550
 C   -1.2112703264   -0.8424902819   -0.0583199157
 H    0.6633827208    1.6854020500    0.5846404206
 H    1.3885832468    0.1372985224   -1.7091546509
 H    1.9820995852   -0.9840184286   -0.4862749967
 H   -0.0754517867   -1.4321200492   -2.6547841991
 H    0.9652172247   -2.6519940958   -1.9244576576
 H   -1.6935861915   -2.5776114281   -1.3404806278
 H   -1.3398901474   -3.5727940766    0.8067853878
 H    0.2042059434   -3.9307260113    0.0341761517
 H    0.0041191742   -2.5578074487    2.4608949519
 H    1.3226929058   -2.2257101166    1.3530701513
 H   -0.6715919241   -0.2216845806    2.0407551488
 H   -2.1907906781   -0.3839212572   -0.1084081670