18

 C   -0.1281206170    1.5433628635    0.1270712567
 C    0.0265948376    0.0078545482    0.0289306656
 C    0.7559746045   -0.5133898677    1.1798934287
 C    1.3549564345   -0.9289632417    2.1474511235
 C    2.0332554440   -1.3896743433    3.2340030466
 C    2.6343426185   -1.7990567847    4.1978575788
 C   -1.3399299877   -0.6608735985   -0.1506996431
 C   -1.5914075381   -2.0731665480    0.2135267131
 N   -2.2009301761   -0.9771961054    0.9944039927
 H    0.8468525510    2.0295972821    0.2090489170
 H   -0.6330139935    1.9233498543   -0.7660682264
 H   -0.7251260274    1.8150686295    1.0017041226
 H    0.6164923285   -0.2142210382   -0.8727830555
 H    3.1625775850   -2.1569800204    5.0464526501
 H   -1.8849304269   -0.2450968818   -0.9967944017
 H   -2.2905338115   -2.6669438288   -0.3681922189
 H   -0.7769545914   -2.6324026536    0.6651685527
 H   -1.6714930042   -0.8574159055    1.8569697475