14

 O   -0.2075677914   -0.0430610667   -0.2749890331
 C   -0.0851458822    1.1068748910    0.0456324502
 C    1.2322583933    1.8779899322   -0.0927245043
 O    2.3152603233    0.9471882502   -0.2884161782
 C    2.9004607888    1.2842588244   -1.4544779939
 N    2.4948462538    2.2962820235   -2.1025928917
 C    1.3757716753    2.8440578093   -1.3199597206
 C    0.1547444084    2.9955852671   -2.2144545806
 O   -0.9624760577    2.6783058962   -1.8996428648
 H   -0.8959611376    1.6868372558    0.5273261864
 H    1.4087686797    2.4112209933    0.8478863060
 H    3.7147725723    0.6348310584   -1.7539084534
 H    1.6352677876    3.8623404216   -0.9942774695
 H    0.3853687564    3.4484285738   -3.1997910426