12

 O   -0.3162236169    0.0385204186    0.0022922918
 C   -0.0927973756    1.2262876446    0.0085246634
 N    1.1512823204    1.8042176823    0.0014919739
 C    2.3654742961    1.1306265769   -0.0136088793
 N    3.4730647231    1.8414488749   -0.0177213146
 O    4.5011043457    0.9064023245   -0.0332279556
 C    3.9702267727   -0.3238866455   -0.0378282010
 C    2.6151580950   -0.2722903480   -0.0260498246
 H   -0.8867845070    1.9958525097    0.0209618826
 H    1.2127389838    2.8123495334    0.0082164658
 H    4.6769474218   -1.1391826893   -0.0497869491
 H    1.8927432709   -1.0665651222   -0.0257569934