16

 C    0.0164545493    1.3929359241   -0.0332699097
 O    0.0068782143   -0.0343788176    0.0195613985
 C    0.6522330222   -0.5595520291    1.0945683854
 O    1.1926299066    0.1227421541    1.9411502874
 N    0.6115632914   -1.9243598642    1.0934968165
 C    1.2557400179   -2.6417606168    2.1766997280
 C   -0.0381025290   -2.7277273329    0.0755875676
 H    1.0391841991    1.7751556596   -0.0833720925
 H   -0.5323479902    1.6568242467   -0.9382524393
 H   -0.4723206509    1.8196971320    0.8462442683
 H    0.5281688882   -3.2586815298    2.7201491164
 H    2.0413127951   -3.3040980208    1.7901061845
 H    1.6970769108   -1.9180562706    2.8594368131
 H   -0.4825757342   -2.0869472844   -0.6809675024
 H    0.6865273296   -3.3976592907   -0.4063165681
 H   -0.8249591103   -3.3509857495    0.5212012963