24

 C    1.7188444758    0.0012783335   -1.0708053990
 C    0.5410798844   -0.0550171079   -0.0927697104
 C    0.8928009891   -0.6608964408    1.2766322260
 C   -0.2216847612   -0.4232429530    2.3296145605
 C   -0.3665696106    1.0314402936    2.7881965465
 C    1.2086329330   -2.1461924937    1.2291323321
 C    1.9960600033   -2.7634675817    2.3567866467
 N    0.7629598242   -2.8210427611    0.2401911625
 O    1.0920336343   -4.1849891923    0.3503763047
 H    2.0933886268   -1.0002703090   -1.2961376231
 H    1.4196321402    0.4680216803   -2.0146833183
 H    2.5476423135    0.5899084227   -0.6602825969
 H    0.1629653911    0.9610197130    0.0641202757
 H   -0.2772889946   -0.6327482128   -0.5341869680
 H    1.8010635366   -0.1623225440    1.6500654550
 H   -1.1702867177   -0.7857061955    1.9140609392
 H   -0.0204791919   -1.0461345395    3.2095100467
 H    0.5709543413    1.4053813343    3.2151719865
 H   -0.6470111944    1.6987512062    1.9680287859
 H   -1.1393653267    1.1183771322    3.5584778560
 H    1.4369127780   -3.5838455421    2.8170137570
 H    2.9234230077   -3.2008955999    1.9717958788
 H    2.2452500714   -2.0257049397    3.1218266464
 H    0.7050118265   -4.5492740930   -0.4523064304