20

 C    0.0781886474    1.6485063389   -0.0342268389
 C    0.0897054926    0.1254337969    0.0166006578
 C    0.7307761061   -0.7134072981   -1.0877765675
 N    2.2041166046   -0.9373350788   -0.7922757194
 C    2.4543781130   -0.2439616270    0.5146688179
 C    1.0456155073   -0.6632448003    0.9703053472
 O    0.7104238027   -0.9276180361    2.2897147192
 C    1.1529790048   -1.7778869185   -0.1486836378
 C    1.0994065781   -3.2661813227   -0.1369508474
 H    1.0596071470    2.0652194945   -0.2752095657
 H   -0.6227898185    2.0014664207   -0.7982480954
 H   -0.2460298414    2.0756633135    0.9227650628
 H   -0.9238623751   -0.2553733105    0.1889487049
 H    0.4475022953   -0.7903132390   -2.1305164958
 H    3.2372029371   -0.7895147024    1.0479575351
 H    2.7171322209    0.8179538789    0.4525524716
 H    0.5125036317   -0.0954636299    2.7335857621
 H    0.1089403361   -3.6223507536    0.1652467908
 H    1.3176200885   -3.6566172176   -1.1356922848
 H    1.8331657218   -3.6848508289    0.5603052633