17

 N    0.0324592385    1.4653200149   -0.1145017057
 C    0.0081253990    0.0658047522   -0.1050168696
 C   -1.0411655410   -0.8357858201   -0.1750792638
 C   -0.5029611634   -2.1683797322   -0.2541001413
 C    0.8538247330   -2.0356201455   -0.1136993670
 C    2.2286452795   -2.3435490101   -0.6683904542
 C    2.4075663822   -1.5117058574   -1.9339251095
 C    2.4901042732   -0.8436245444   -0.5869405536
 N    1.1575337914   -0.6748780037    0.0193347674
 H    0.6477872427    1.8499928844    0.5932947455
 H   -0.8933297446    1.8563208350    0.0034342405
 H   -2.0878587228   -0.5735011409   -0.1061296759
 H   -1.0712618773   -3.0772111197   -0.3816141566
 H    2.8934748612   -3.1535589518   -0.4013692505
 H    3.3563967213   -1.6256518179   -2.4533572597
 H    1.5526758269   -1.3248906587   -2.5757994115
 H    3.3500528200   -0.3016617942   -0.2156596244