15

 N    0.2638604462    1.3777024313   -0.1883559660
 C    0.0578868721    0.0116980600   -0.0383787591
 C   -1.0290167078   -0.8032209440    0.0377246129
 O   -2.3291493808   -0.4264979782    0.0771344769
 N   -0.6330959126   -2.1195565382    0.0604543374
 C    0.6685841799   -2.0705911156    0.0157151052
 C    1.6221073995   -3.2162912655   -0.0124438756
 O    2.0718458314   -3.5333461758   -1.3250013135
 O    1.1592453374   -0.8119141643   -0.0615094833
 H    0.6489898692    1.8233998786    0.6391015964
 H   -0.5990551247    1.8425386864   -0.4415338625
 H   -2.8521015503   -1.2358645658    0.1059767861
 H    2.5215841561   -2.9650899666    0.5562152049
 H    1.1310474967   -4.0716491769    0.4692910224
 H    1.2932888678   -3.7540811654   -1.8478686122