18

 C    0.0172803771    1.5200380949   -0.1696026206
 C   -0.0568780461   -0.0152176234   -0.0498406101
 C    0.7306022125   -0.4718934050    1.0984803934
 N    1.3094954738   -0.8268232436    2.0346163798
 C   -1.5189811863   -0.5399969559    0.1014890518
 C   -1.5743269042   -2.0738238067    0.2164506566
 O   -2.1853455282    0.0809470854    1.1861027018
 C   -2.3317266363   -0.1656379404   -1.1407630581
 O   -1.8881731893   -0.1609161536   -2.2582068408
 H    1.0574098020    1.8520700798   -0.1902551783
 H   -0.4653672888    1.8421700068   -1.0942610100
 H   -0.4863592260    1.9899511996    0.6772422865
 H    0.3568974953   -0.4686570354   -0.9569361362
 H   -1.0397379268   -2.4046439665    1.1126554579
 H   -2.6137603099   -2.4055076816    0.2911542102
 H   -1.1152977786   -2.5482954076   -0.6551846051
 H   -1.8328781824   -0.2803604255    2.0077189400
 H   -3.3940522179    0.0660642987   -0.9127704588