21

 C   -0.1006608811    1.3843555377   -0.0560636942
 O    0.0009324871   -0.0263730498   -0.0120926062
 C    0.6774943583   -0.5935434176    1.1165906530
 C    0.4715924466   -2.1090806946    0.9575623397
 C    2.1777939663   -0.2079448297    1.1400939979
 C    2.9374870220   -0.5517412590   -0.1375064057
 O    4.2346144004    0.0163308098   -0.0106399533
 C    0.0571547293   -0.1527488590    2.3799125215
 C   -0.4397652924    0.1999480850    3.4163666686
 H    0.8729994936    1.8719033665   -0.2033272607
 H   -0.7376218005    1.6171561350   -0.9128233683
 H   -0.5628704356    1.7878197005    0.8536145766
 H    0.8474989841   -2.4355546711   -0.0146096663
 H    0.9934589633   -2.6535287189    1.7481393078
 H   -0.5936432411   -2.3419254105    1.0108412966
 H    2.2763925695    0.8676488056    1.3154137720
 H    2.6523248730   -0.7008184412    1.9945831409
 H    2.9987856711   -1.6424275482   -0.2682527734
 H    2.4017797841   -0.1467036091   -1.0079225462
 H    4.7288142578   -0.1891596309   -0.8094686973
 H   -0.8825121857    0.5085942694    4.3313199672