18

 C   -0.2229814072    1.5301609676    0.0454174753
 C    0.0454262580    0.0419996105   -0.0574230580
 N    0.7198645595   -0.4675439521   -1.3066695129
 C    2.0955239895    0.0618901702   -1.3114184982
 C    1.7986408514   -1.0855448849   -0.4358145497
 C    1.1553185227   -0.6084470192    0.8670562293
 O    2.0012614307    0.2741393922    1.5870026333
 C    0.6440087693   -1.6685262008    1.7245801422
 C    0.2089862959   -2.5122932403    2.4628950305
 H    0.6954236669    2.1188689693    0.0923262043
 H   -0.8094770940    1.8611135632   -0.8177398277
 H   -0.8014847131    1.7471699661    0.9496913069
 H   -0.8876292584   -0.5169309655    0.0426643612
 H    2.6163415365   -0.1531658771   -2.2392925545
 H    2.3192673718    1.0302145858   -0.8775323060
 H    2.1744868892   -2.0884372397   -0.6023357994
 H    1.6324602100    0.3846271306    2.4702079704
 H   -0.1703660087   -3.2668549559    3.1072316830