17

 O    0.0712327296    1.4220407586    0.1154503690
 C    0.0122417408    0.0386487229    0.0764808063
 C    0.8575663788   -0.7383461725    1.0595001606
 C    0.6009488697   -2.0138402735    0.7504970524
 C   -0.3897132087   -1.9205619620   -0.3963893175
 C   -1.3634823730   -0.7602135053    0.0286187629
 C   -1.9776995469   -0.2957452029   -1.2792571080
 O   -0.8074493270   -0.2837459149   -2.1425612783
 C    0.2021093792   -0.7529731430   -1.2721638544
 H   -0.1864372567    1.7434642115   -0.7572658396
 H    1.5244183602   -0.3024046452    1.7885862877
 H    1.0076680791   -2.9232893957    1.1678701465
 H   -0.7710135684   -2.8251129572   -0.8672960053
 H   -1.9987674507   -0.8459023331    0.9100706619
 H   -2.7294875318   -0.9783103423   -1.6902345670
 H   -2.4063387311    0.7121150545   -1.2247927562
 H    1.1618231670   -0.8241214697   -1.7848632512