21

 C   -0.1185548284    1.5407815525   -0.0282994949
 C    0.0192110784    0.0229157634   -0.0085135385
 C    1.1376893607   -0.5514569243   -0.8996172072
 C    1.2367786645   -2.0353996623   -0.6992532840
 C    1.8808853530   -1.1261526172    0.3211062772
 C    3.3439827723   -1.1740345747    0.6581234179
 C    0.7895783241   -0.5576493651    1.2009542172
 C    0.8953780739   -0.0203631585    2.5573620547
 O    0.1996794400   -1.2479918679    2.2956540050
 H    0.8473290790    2.0283329662    0.1432396748
 H   -0.5001698998    1.8841688321   -0.9958763339
 H   -0.8138330725    1.8863807036    0.7436396234
 H   -0.9576696481   -0.4491821243   -0.1676434573
 H    1.5609407625   -0.0457675209   -1.7595328106
 H    0.3517861850   -2.6149146403   -0.4471519921
 H    1.9385285746   -2.5543848544   -1.3453290147
 H    3.9395810533   -1.4396731346   -0.2212260657
 H    3.7048067812   -0.2076463869    1.0276880156
 H    3.5474610614   -1.9251737076    1.4306474109
 H    1.8275488387   -0.1227993789    3.1127810883
 H    0.2697308663    0.8173623098    2.8635933239