18

 O   -0.0245500908    1.3941374292    0.0101506822
 C    0.0505303380    0.0122621441    0.0196912858
 C    0.6135448163   -0.9638155813    1.0714889834
 N    0.0179274910   -1.9045825216    0.0198003470
 C   -1.1795394644   -0.9137109805   -0.0104087946
 C   -2.0804252364   -0.9888353693   -1.2337326843
 C   -1.2742477861   -1.0250756881   -2.4999814222
 C    0.0520011947   -1.0162612215   -2.3983776297
 C    0.6618926752   -0.9623667334   -1.0374802568
 H    0.8687614574    1.7548421061   -0.0122466313
 H    1.6991476106   -1.0572979892    1.1676249457
 H    0.1121941271   -1.0234854790    2.0409016218
 H   -1.7564670876   -0.9590022234    0.9182678697
 H   -2.7204355140   -1.8785360878   -1.1580831964
 H   -2.7634766089   -0.1276427728   -1.2303072171
 H   -1.7882426786   -1.0622797992   -3.4554495239
 H    0.7045113712   -1.0432569669   -3.2648249939
 H    1.7512771954   -1.0531887155   -1.0409935753