20

 C   -0.0445639924    1.5619940354    0.0156593270
 C    0.0576584929    0.0414556365    0.0166333139
 C    0.7287159579   -0.5715025701   -1.2370917720
 C    1.3336319049   -1.8973130234   -0.7340396991
 C    1.5728912560   -1.6458389498    0.7465005746
 C    2.2424816686   -0.3579647207    1.1234976952
 N    0.7937856311   -0.4600551712    1.2064371980
 C    1.6206752806   -2.7888915666    1.6932937426
 O    1.6508667128   -3.9468526022    1.3558063001
 H    0.9451605826    2.0242935874   -0.0653258591
 H   -0.6447484915    1.9032286733   -0.8335671093
 H   -0.5150642348    1.9213069003    0.9349235338
 H   -0.9504396909   -0.3793066183    0.1163392642
 H    0.0132815961   -0.7167523946   -2.0501249288
 H    1.5079124631    0.0958053588   -1.6206436656
 H    0.6310651135   -2.7298963022   -0.8362987099
 H    2.2448948357   -2.1813501909   -1.2670261837
 H    2.7462093741   -0.2718783183    2.0828122390
 H    2.7089163366    0.2054086178    0.3190858174
 H    1.6212266132   -2.4880983610    2.7644979117