20

 C   -0.0181868267    1.5427172574    0.0415539953
 C    0.0952278977    0.0197875216    0.0105095572
 C    0.8909260860   -0.5493694585   -1.1958121665
 C    1.5375739551   -1.7916217928   -0.6339125365
 C    1.4811579262   -1.8257116932    0.6978054065
 C    2.0510352631   -2.8700791127    1.6000344915
 O    2.7050296471   -3.8682903911    0.8370601892
 C    0.7844428932   -0.6022272582    1.2545054202
 H    0.9724419209    2.0088759733    0.0997235980
 H   -0.5119709240    1.9235490483   -0.8590730866
 H   -0.5973915103    1.8843853452    0.9064724118
 H   -0.9158596576   -0.4030270345   -0.0423111347
 H    0.2468285486   -0.7484595961   -2.0606018687
 H    1.6542470808    0.1643610326   -1.5431505779
 H    2.0252037971   -2.5417764260   -1.2436334072
 H    2.7454643039   -2.3909341757    2.3145785316
 H    1.2382837099   -3.3016962199    2.2123709589
 H    3.0379087773   -4.5361866161    1.4426849897
 H    1.5178608062    0.0918940051    1.6944863472
 H    0.0700041953   -0.8359810487    2.0541288412