19

 C   -0.0239287254    1.5182314880   -0.0818559273
 C   -0.0046428921    0.0144398381    0.0291304038
 C    1.2388008586   -0.7844445525   -0.2317490061
 C    0.6362318972   -0.7577092873    1.1684230394
 C    1.3809061894   -0.1971250266    2.3523237160
 C   -0.2625951424   -1.9333664869    1.4136004854
 O   -0.1838803877   -2.7536101531    2.2827359892
 O   -1.2511304063   -1.9653467579    0.4688470066
 C   -1.2900411594   -0.7422021110   -0.2813100265
 H    0.9319007328    1.9516098914    0.2252322107
 H   -0.2085372688    1.8321260728   -1.1156862753
 H   -0.8092085417    1.9547680670    0.5452106648
 H    1.1800925789   -1.6979008328   -0.8161223048
 H    2.1660301159   -0.2325858346   -0.3490163507
 H    2.0486543226    0.6158139176    2.0548310200
 H    0.6925267672    0.1862105964    3.1122609723
 H    1.9820997931   -0.9829192026    2.8186923578
 H   -2.1727420044   -0.1705483767    0.0313890385
 H   -1.3968058476   -0.9983310692   -1.3404926937