16

 C    0.0013234282    1.4768610030    0.0063818875
 N    0.0095385244    0.0282979521   -0.0266338511
 C    0.0382037580   -0.7686267635   -1.1516274071
 C    0.0380495348   -2.0873945118   -0.8472904345
 C    0.0057336916   -2.2168064963    0.6526522010
 C   -0.0121271821   -0.7655109901    1.1357395608
 O   -0.0390238372   -0.3271771228    2.2588087601
 C    0.0644324369   -3.1721656715   -1.8017902591
 O    0.0637739796   -4.3513744564   -1.5074988860
 H    0.8999058902    1.8877930532   -0.4648721656
 H   -0.8827254769    1.8786761827   -0.4990483875
 H   -0.0204307023    1.7706886671    1.0569105049
 H    0.0575110105   -0.3107205447   -2.1327071185
 H   -0.8767577108   -2.7476120671    1.0245006012
 H    0.8762949445   -2.7388562951    1.0630228010
 H    0.0861966607   -2.8441517786   -2.8665772270