13

 C    0.0183726179    1.4094197003    0.2428508558
 C   -0.4820793829    0.0991275549   -0.2965700683
 O   -0.9630831595   -0.1027392885   -1.3768718001
 O   -0.3126642785   -0.8846610284    0.6450775849
 C   -0.7014823046   -2.1533291485    0.3598352456
 C   -1.2689444948   -2.7621331029   -0.7170985651
 O   -1.4198327413   -4.0522199488   -0.4035178944
 N   -0.9242826887   -4.2237950814    0.9107849278
 N   -0.5151459876   -3.1043581966    1.3253182505
 H    1.0757850881    1.3241893772    0.5084637502
 H   -0.1183219771    2.1842555329   -0.5097908682
 H   -0.5259656261    1.6696810012    1.1549348233
 H   -1.5883503448   -2.4261690815   -1.6843849719