18

 O    0.0264661318    1.3021552158   -0.2269860148
 C   -0.0324083104   -0.1052521514   -0.2435824978
 C   -1.3823785019   -0.6233246274    0.2769531046
 O   -2.4072200922   -0.0043554426   -0.5317536722
 C   -3.1998549629   -0.6875381924   -1.4081961640
 N   -4.1470407750   -0.1080630123   -2.0154501085
 C   -2.9175295255   -2.1524702524   -1.6612377633
 C   -2.1416606400   -2.8192733947   -0.5653221332
 C   -1.4487677086   -2.1145383537    0.3208206754
 H   -0.7553416189    1.6128625425   -0.6985945375
 H    0.1341824014   -0.5168688912   -1.2523340080
 H    0.7728390540   -0.4687471268    0.4034099999
 H   -1.5340330252   -0.2023809918    1.2791066823
 H   -4.1963459447    0.8748022296   -1.7397747115
 H   -3.8785813446   -2.6429307203   -1.8367523259
 H   -2.3713856636   -2.2357084915   -2.6121558086
 H   -2.1589089424   -3.9041657623   -0.5248239335
 H   -0.8753065313   -2.5931831571    1.1087235668