21

 C   -0.0351008065    1.4901868925    0.0229658743
 C    0.0081017352    0.0350055731    0.0155519759
 C    0.0488980347   -1.1691682504    0.0300612946
 C    0.0613312701   -2.6329504541   -0.0012646619
 O   -1.2524402191   -3.1760778866    0.1527562229
 C    0.7375561991   -3.1682719883   -1.2786298799
 C    0.9275769197   -4.6894885782   -1.2340919358
 C    1.4505920281   -5.2502276382   -2.5556061105
 O    1.7676654338   -5.0662290221   -0.1425576027
 H    0.8136714673    1.9072425779    0.5761352692
 H   -0.0026046417    1.8994376785   -0.9927935570
 H   -0.9508664940    1.8562068018    0.5001284641
 H    0.6229893183   -3.0208306286    0.8559321561
 H   -1.8334825748   -2.6840177169   -0.4379002568
 H    0.1293474802   -2.8868620429   -2.1476759874
 H    1.7127457732   -2.6782422581   -1.4036628249
 H   -0.0401001781   -5.1448823046   -0.9993111626
 H    2.4122891095   -4.7924024932   -2.8216311928
 H    1.5972384553   -6.3308366397   -2.4762185689
 H    0.7523175770   -5.0529184412   -3.3754464781
 H    2.6569405727   -4.7478141207   -0.3358518379