19

 C    0.0196226205    1.4795625353   -0.0151083470
 C   -0.0351535619   -0.0204781436    0.0088865927
 C   -1.4031649835   -0.7581511862    0.1306850118
 C   -1.3835466525   -2.2359168534   -0.1504917512
 C   -0.7917631173   -1.7258160898    1.1330954144
 C    0.5747434285   -1.0082129383    0.9889599145
 C    1.1451773853   -0.8806040909   -0.4193643535
 C    1.2696297034   -1.8544269738   -1.4711892291
 C    1.4833203737   -2.6167425542   -2.3784486740
 H    1.0381484826    1.8443316692    0.1519793260
 H   -0.3235738282    1.8738163364   -0.9795804578
 H   -0.6224089209    1.9073816643    0.7640738469
 H   -2.3265487259   -0.1992842178    0.2174224573
 H   -2.3537120256   -2.7086681885   -0.0204888449
 H   -0.7824627190   -2.6715971666   -0.9350463657
 H   -1.1767503775   -2.0137126330    2.1025633998
 H    1.2116859514   -0.8025725201    1.8414297153
 H    2.0490556215   -0.2714376129   -0.3676351541
 H    1.6372142054   -3.3059960761   -3.1711326212