20

 C   -0.0634906210    1.5964060003   -0.0828202616
 C   -0.0282627206    0.0622608427    0.0059002221
 C    1.1190003329   -0.5595997292   -0.8666037659
 C    1.9977842756   -0.6628916941    0.4064199157
 C    0.7164480917   -0.5215861876    1.2662697834
 C    0.7555405808    0.2758411900    2.5547156089
 O    1.5540285922   -0.4623994474    3.4676407701
 C   -1.3626538046   -0.4819421718   -0.2224678423
 N   -2.4169388262   -0.9240535856   -0.3989940819
 H    0.9389953697    2.0122258779    0.0493841531
 H   -0.4313896834    1.9064364563   -1.0650179650
 H   -0.7211939899    2.0287718730    0.6762829666
 H    0.8396112969   -1.5387373865   -1.2600541956
 H    1.4740221880    0.0651958820   -1.6891428796
 H    2.5815630732   -1.5740298797    0.5388379156
 H    2.6658952652    0.1952621289    0.5230825650
 H    0.3108607713   -1.5121058097    1.4911305548
 H    1.1812984799    1.2753955729    2.3762464840
 H   -0.2691524771    0.4157089424    2.9363412773
 H    1.6088730753    0.0325414055    4.2903488452