16

 C    0.0811368008    1.5570766684    0.0254401745
 C   -0.0124764942    0.0621668737    0.0033704243
 C   -1.1694434677   -0.6504079298    0.0626567106
 N   -2.4343560330   -0.0977968244    0.1841255998
 C   -1.1335096463   -2.1322691132    0.0619280423
 O   -2.1797822110   -2.7639621471    0.1270872970
 N    0.1110464406   -2.7525679854   -0.0219585670
 C    1.1692973528   -2.0126954041   -0.0906907537
 N    1.1716884760   -0.6599938530   -0.0840635183
 H    1.0045702173    1.8916071571    0.5111435290
 H    0.0616419024    1.9943271976   -0.9813888246
 H   -0.7589113689    1.9735060863    0.5879222641
 H   -2.6293621731    0.7196917547   -0.3739538001
 H   -3.1302777661   -0.8304587761    0.0837857162
 H    2.1513997768   -2.4763999366   -0.1637875148
 H    2.0472267137   -0.1635582881   -0.1358498993