19

 C   -0.0553153252    1.4949337100    0.0280072150
 C   -0.0496687984   -0.0004711014   -0.0171618238
 C    0.0151128995   -0.7820480007   -1.0996799582
 C    0.0275479218   -2.2588380615   -0.7654242884
 C    0.0253170598   -2.2561614784    0.7581835482
 N    1.2173312058   -1.6101151464    1.3588447040
 C   -0.0625700013   -0.8478904906    1.2309370337
 C   -0.7962514576   -0.4018223924    2.4687521596
 H    0.8171346866    1.8767890231    0.5736824451
 H   -0.0398116352    1.9234598238   -0.9777289690
 H   -0.9420959167    1.8821880046    0.5453767095
 H    0.0951928751   -0.4170985188   -2.1185154951
 H   -0.8520338491   -2.7801686507   -1.1670094829
 H    0.9123277255   -2.7661208604   -1.1694472044
 H   -0.4481548046   -3.0674911361    1.3020523615
 H    1.2970043702   -1.9402293186    2.3209243394
 H   -0.3247969020    0.4794691954    2.9191936631
 H   -1.8363637359   -0.1420010151    2.2425413832
 H   -0.8072365883   -1.1957769358    3.2228197295