21

 C    0.0700090880    1.3140879595   -0.3909861756
 C    0.0585000209   -0.1662679006   -0.1257093130
 C    0.5900183071   -1.3006775115   -1.0364769982
 C    2.0719457677   -1.3614149454   -1.3442493745
 O    2.3679355563   -0.3055710758   -2.2543971090
 C    0.0458914030   -2.0336952660    0.2059112698
 C    0.5127668071   -0.9088746092    1.1940026254
 C   -0.8855264107   -0.7894021545    1.8303297210
 C   -1.1630074140   -1.0473541336    0.3379466638
 H    1.0897897063    1.6635956089   -0.5778423622
 H   -0.5258654421    1.5543899713   -1.2785180579
 H   -0.3420780154    1.8769324754    0.4541958810
 H    0.0103132691   -1.4497632018   -1.9566870133
 H    2.6581897084   -1.2588308791   -0.4173338134
 H    2.3224896053   -2.3418643287   -1.7815196822
 H    3.3019719065   -0.3543354082   -2.4779484064
 H    0.0212818950   -3.1038653822    0.4203738371
 H    1.4873111692   -0.8327847252    1.6789154789
 H   -1.1756797469   -1.5816049401    2.5283200649
 H   -1.1692949222    0.1904531745    2.2276465510
 H   -2.1169947287   -1.1370689075   -0.1859032774