17

 O   -0.0261724136    0.1119400265    0.6478437492
 C   -0.0010001894    1.2062110377    0.1233090978
 N    1.0685484984    1.7456265212   -0.5170720191
 C    2.3563017526    1.0893465353   -0.5983658762
 C    3.4732543661    2.0240812717   -0.1233336820
 C    4.8993775808    1.4469933076   -0.3152507591
 O    5.5680296012    2.4250177825   -1.1527348221
 C    4.6344110564    3.3617558196   -1.4249939243
 N    3.4718261541    3.2652531083   -0.9299140037
 H   -0.8722532375    1.8903831830    0.1114142136
 H    1.0117318021    2.6852153470   -0.8797286887
 H    2.3002575281    0.1923472000    0.0234286461
 H    2.5679805464    0.7760944604   -1.6304262404
 H    3.2801793934    2.2903592828    0.9218417888
 H    5.4645655499    1.3508723219    0.6138220289
 H    4.9084326178    0.4872815107   -0.8421821416
 H    4.9777726533    4.1584732638   -2.0757907272