18

 C    0.0367696108    1.6215751965    0.0803824635
 C    0.1059806338    0.1015825327    0.0357934592
 C    1.1675972084   -0.6391431511   -0.7715190731
 C    2.4356034432   -0.7582659689    0.0235203786
 N    1.2809600102   -1.7522159095    0.1995601061
 C    0.6881151732   -0.7010151515    1.2304481549
 C   -0.1120676305   -1.1332750356    2.4203908607
 C    2.1308832028   -0.1985156278    1.3705872949
 O    2.7793478862    0.2204544423    2.2877979053
 H    1.0040826314    2.0648658343    0.3356876673
 H   -0.2735378317    2.0237891467   -0.8896123893
 H   -0.6929984076    1.9569230630    0.8247967746
 H   -0.8710430130   -0.3224049044   -0.2245869397
 H    1.1859797918   -0.8293506194   -1.8399822564
 H    3.3836076594   -1.0485290175   -0.4104407639
 H    0.4765882931   -1.7875167477    3.0697556678
 H   -0.4076012169   -0.2571381287    3.0073674339
 H   -1.0178164645   -1.6653998436    2.1150022556