20

 C    0.1175550130    1.5045122762   -0.1616325541
 C    0.0985042980   -0.0141121836   -0.0327259123
 O    0.7380065458   -0.5439746084   -1.1971904768
 C    0.3679067976   -1.8379467124   -1.5081303611
 O    0.9760177111   -2.8573773129   -0.7193410585
 C    0.7804359664   -2.8842545855    0.6327823469
 N    0.6383057614   -1.9725397801    1.4899262972
 C    0.7614123913   -0.5384706413    1.2558071921
 C    2.2495872979   -0.1617091096    1.3619453474
 H    1.1377812026    1.8736230022   -0.2929469342
 H   -0.4671761888    1.8139066392   -1.0316382699
 H   -0.3116735248    1.9736135891    0.7284574711
 H   -0.9478885694   -0.3606501938   -0.0273350281
 H   -0.7250957448   -1.9582817634   -1.4305734131
 H    0.7065277729   -2.0418265750   -2.5252214688
 H    0.8058805203   -3.9226641929    0.9659548643
 H    0.2291866588   -0.0545977529    2.0853266277
 H    2.7981720999   -0.5301393986    0.4913363318
 H    2.3794445042    0.9220819092    1.4234085911
 H    2.6771548665   -0.6106515654    2.2611082975