16

 O   -0.5030102159    0.0899116115   -0.2465401615
 C   -0.2671255909    1.2372971537   -0.0024382647
 C   -1.1142324614    2.5245749363    0.0682086520
 N    0.1434467293    3.3411595982   -0.0924631047
 C    0.9268565548    3.0493006328    1.1033713876
 C    0.9905089565    2.0581886697   -0.0094744193
 C    2.2321066668    1.7909171814   -0.8286909100
 C    3.2323106290    1.0189058401   -0.0981677601
 C    4.0488644877    0.3893285250    0.5179278671
 H   -1.7663229127    2.6224979919   -0.8033369507
 H   -1.6775956346    2.7405426370    0.9800967400
 H    1.8041166663    3.6786982738    1.2231931891
 H    0.4147004104    2.8016227567    2.0308046243
 H    1.9504078608    1.2603483106   -1.7464205247
 H    2.6517753067    2.7558836433   -1.1386362071
 H    4.7710501370   -0.1752275220    1.0539500230