18

 C   -0.2046388532    1.4482984779    0.0382837013
 C    0.0953511466   -0.0434720121    0.1664376191
 C    0.7154605759   -0.6792273360   -1.1047308071
 N    1.7761599885   -1.5885116057   -0.6233355799
 C    1.6403734280   -1.7697196745    0.8213954312
 C    1.1087483196   -0.3972771162    1.2716360684
 C    0.7101143476   -2.8605930010    1.1943704220
 N   -0.0114984513   -3.7305082931    1.4407505096
 H    0.7085224700    2.0142378404   -0.1786681293
 H   -0.9169354101    1.6408921401   -0.7706025094
 H   -0.6371197009    1.8467730280    0.9617194326
 H   -0.8386501874   -0.5712552879    0.3920214341
 H   -0.0495624346   -1.1980775551   -1.6953575216
 H    1.1620911577    0.0872971590   -1.7512081087
 H    1.8119275975   -2.4647181863   -1.1274551734
 H    2.6120098520   -2.0015283756    1.2717082136
 H    1.9461333999    0.3081921929    1.2694005094
 H    0.6720431042   -0.4163525247    2.2719129581