20

 C    0.1300130270    1.3802489840    0.2741945808
 O   -0.0254618016    0.0007497077    0.0308710637
 C    0.6046531017   -0.4762652141   -1.1480491995
 C    2.1224794797   -0.5975648193   -0.9919983498
 C   -0.0557807860   -1.8237686586   -1.4299453419
 C   -1.5297584745   -1.7908632800   -1.9235787865
 C   -1.0032715555   -2.4961703424   -3.1965301410
 O   -1.4772797169   -2.9561034188   -4.1988623386
 N    0.2915461429   -2.4282685218   -2.7239957149
 H    1.1695899090    1.6566504443    0.5012253531
 H   -0.2082445348    1.9836420328   -0.5825083880
 H   -0.4884926612    1.6234082560    1.1416388034
 H    0.3792840195    0.1991739510   -1.9912795722
 H    2.3682054260   -1.2672953249   -0.1613872498
 H    2.5710044725   -0.9928671324   -1.9087848972
 H    2.5843156920    0.3740021282   -0.7969690395
 H    0.1041802027   -2.4915696725   -0.5751915621
 H   -2.2348113852   -2.3897943940   -1.3456716155
 H   -1.9426578443   -0.7937320334   -2.0843097214
 H    1.1249143269   -2.9040886217   -3.0377600831