25

 C    0.0842540008    1.5219024919    0.2304473986
 C    0.0158871592   -0.0067763029    0.0379714707
 C    0.6587297052   -0.6769790186    1.2711525368
 C   -1.4723688791   -0.4058660085   -0.0435535124
 O   -2.1533891589    0.0974238653    1.1000980992
 C    0.7293301398   -0.4886768002   -1.2518192881
 C    0.5382458099   -1.9574049012   -1.6191429780
 C    0.8909069519    0.4314862416   -2.4436957050
 C    2.0900626746    0.0724097587   -1.5992905074
 H    1.1155514504    1.8822414625    0.2790420714
 H   -0.4312553623    2.0582617219   -0.5716411832
 H   -0.4087312826    1.7904263828    1.1662062022
 H    0.1214608425   -0.3896685215    2.1781519815
 H    0.6332871046   -1.7687391425    1.2040680693
 H    1.7047686225   -0.3723964072    1.3753186123
 H   -1.9042870291    0.0045170704   -0.9709632578
 H   -1.5655463594   -1.4996468626   -0.0869034854
 H   -3.0614031651   -0.2154566666    1.0679415402
 H   -0.4952063019   -2.1834421615   -1.9018951569
 H    1.1672216829   -2.2130822055   -2.4772629081
 H    0.8172356987   -2.6305462150   -0.8021872261
 H    0.8063408904   -0.0090221391   -3.4319234528
 H    0.5253857566    1.4488984592   -2.3864250819
 H    2.5169805072    0.8505012568   -0.9775671976
 H    2.8267550913   -0.6109809580   -2.0090336714