21

 C    0.5340861577    1.2777160171   -0.4056430682
 C   -0.3475909405    0.2453361447    0.3205111313
 C    0.3008865362   -0.3419991797    1.4888911553
 C    0.8545386817   -0.8053163842    2.4534290316
 C    1.5208869388   -1.4022007134    3.6054602582
 C    1.9591716392   -2.8588940314    3.3588397023
 C    2.6599392193   -3.4633860409    4.5913546143
 C    3.0845049058   -4.8419239969    4.3831114581
 C    3.4244927055   -5.9778539124    4.1859544642
 H    1.4635812281    0.8184325428   -0.7530076497
 H    0.0073404438    1.6887872390   -1.2721554262
 H    0.7958024956    2.1029636535    0.2622335393
 H   -1.2894893315    0.7195720660    0.6255708745
 H   -0.6278031344   -0.5521962097   -0.3798631031
 H    2.3995100092   -0.8005012168    3.8766408031
 H    0.8536488387   -1.3670744174    4.4778846646
 H    1.0859304230   -3.4655914995    3.1004145020
 H    2.6342689930   -2.8977754302    2.4985134077
 H    3.5313015011   -2.8488709987    4.8550225878
 H    1.9845629595   -3.4160209575    5.4562417834
 H    3.7288450001   -6.9815942044    4.0220286595