17

 O   -0.1179029674    0.1302429063   -0.8892735911
 C   -0.0452068944    1.2083411480   -0.3622433551
 C    1.2325423801    1.9724756764   -0.1146990755
 O    2.4468305737    1.2778272408   -0.4176878029
 C    2.9273629957    2.3574990211   -1.2582135646
 C    3.0436084334    1.9745949074   -2.7260034357
 C    1.5765692717    1.9758388031   -3.1813510440
 O    0.9339626341    3.0022913142   -2.4017958597
 C    1.5697484789    3.0940274220   -1.1523699072
 H   -0.9516328747    1.7543713924   -0.0117095503
 H    1.2193934004    2.3484609433    0.9212370957
 H    3.8159469716    2.8330260554   -0.8339499801
 H    3.6230139355    2.7377270605   -3.2562240551
 H    3.5302763026    1.0057468059   -2.8573635615
 H    1.4387920279    2.2363532047   -4.2329120764
 H    1.1087909525    1.0055488111   -2.9847006094
 H    1.5128582483    4.1235812575   -0.7977772870