19

 C   -0.0142763170   -1.2160011258   -0.1991969472
 C    0.0063332084   -0.0313264865   -0.0003583306
 C    0.0277085900    1.4108289718    0.2198762468
 C    1.3944431488    2.0306122900    0.0112913711
 C    2.2384192587    1.9203067364   -1.2848236827
 C    3.0405124207    3.0480737235   -0.5616633662
 C    1.6607294914    3.5598444141   -0.0402028382
 C    3.5235831392    2.2785892741    0.6730018022
 O    2.3085807454    1.5842554207    1.0325917240
 H   -0.0301977756   -2.2648265454   -0.3626453328
 H   -0.6838924927    1.8979501775   -0.4578455421
 H   -0.3013636331    1.6383161567    1.2416889367
 H    2.7316745986    0.9645402422   -1.4735481851
 H    1.7145650167    2.2759707548   -2.1737197784
 H    3.7534100725    3.6912593021   -1.0752287939
 H    1.0832481646    4.0765251012   -0.8089751561
 H    1.6302263454    4.1028846091    0.9079382440
 H    4.3201839044    1.5574232222    0.4553348524
 H    3.8439283336    2.9269378513    1.4972144760