19

 C    0.0161848832    1.4158834467   -0.0920015055
 N   -0.0312847212   -0.0259915365    0.0791488981
 C   -1.2297479688   -0.6779659185    0.0417456895
 N   -2.3739573495   -0.0928051736    0.0107531377
 C   -3.4212282250   -1.1148146512    0.1252832442
 C   -2.7304902986   -2.4809558873    0.1357609301
 C   -3.3564820268   -3.6907554261    0.7694844528
 O   -1.9776295210   -2.6995676592   -1.0707959867
 C   -1.2906703779   -2.1790864217    0.0838702607
 H    1.0307367015    1.7673279551    0.1094762054
 H   -0.2840786607    1.7316536305   -1.0998861172
 H   -0.6731133164    1.8797162777    0.6167890483
 H    0.7622799171   -0.5465166541   -0.2590136825
 H   -3.9973384655   -0.9629995678    1.0483422921
 H   -4.1259430734   -1.0331282679   -0.7111970335
 H   -4.2938169849   -3.9479569567    0.2639757430
 H   -2.6881229306   -4.5526226124    0.7007551875
 H   -3.5847261825   -3.5028344701    1.8235302443
 H   -0.4996382891   -2.8009017569    0.4959796818