15

 C   -0.0515676713    1.5786919780   -0.0314080522
 C   -0.0335367400    0.0395643234    0.0055515818
 C    0.7645459780   -0.5037194217    1.2286854058
 C    2.1705306294   -0.1220478108    1.2062823429
 C    3.3293377420    0.1953921983    1.1640440319
 C   -1.3875556241   -0.5094006621    0.0168506796
 C   -2.5029078884   -0.9567893279    0.0515960765
 H    0.9707580711    1.9647421391   -0.0470162425
 H   -0.5779396156    1.9362557434   -0.9196919309
 H   -0.5626336162    1.9787645224    0.8497822768
 H    0.4769543469   -0.3198216231   -0.8972227445
 H    0.2902543155   -0.1391575861    2.1481178751
 H    0.6785535365   -1.5957532967    1.2492513849
 H    4.3548639804    0.4696110095    1.1407152901
 H   -3.4877998842   -1.3534208258    0.0668752346