21

 C   -0.0182255057    1.4256021678    0.0441874892
 O    0.2074662985    0.0435097997   -0.1047493715
 C    0.7064819747   -0.5885132502    1.0626841001
 C   -0.3114012315   -0.8849993825    2.1412849414
 C   -0.1060576304   -2.0897070916    2.6713473669
 C    1.0529065598   -2.8033824592    2.0221851624
 C    1.2928168267   -1.9948851541    0.7222708069
 C    0.5674531860   -2.6366934811   -0.4646829499
 O    2.6944836751   -1.9451700550    0.4774866550
 H    0.8973362386    1.9556531063    0.3512367995
 H   -0.3398176319    1.8087723028   -0.9276287125
 H   -0.8034038436    1.6457617636    0.7826557071
 H    1.5282970691    0.0258494246    1.4713011747
 H   -1.0647401209   -0.1725463640    2.4571452732
 H   -0.6703190373   -2.5181288083    3.4927027571
 H    1.9552544465   -2.7566353154    2.6452317781
 H    0.8574708634   -3.8630114487    1.8244894009
 H   -0.5018547582   -2.7439187461   -0.2626264478
 H    0.6714864441   -2.0229985407   -1.3631601899
 H    0.9958085869   -3.6252106124   -0.6528840080
 H    2.8226457400   -1.5075210655   -0.3712610829