19

 C   -0.0441146101   -1.1825593082   -0.0722056025
 C   -0.0221651601    0.0194166853   -0.0247217090
 C    0.0071154501    1.4669479110    0.0357977129
 C   -0.1078034750    2.0739535936    1.4768756899
 C    1.4357392610    1.9385965741    1.5922889386
 C    1.4404451332    2.1024019598    0.0471962876
 C    1.3020396245    3.5913740054   -0.2899344431
 O    0.5837636469    4.2939685797    0.7165244935
 C   -0.4623583013    3.5589536843    1.3393426019
 H   -0.0685629542   -2.2429562456   -0.1195436646
 H   -0.6843672793    1.8877686091   -0.7046578970
 H   -0.7558140603    1.5660708655    2.1933475843
 H    1.9680967728    2.6861672802    2.1836724277
 H    1.7318929503    0.9328747788    1.8929919559
 H    2.2159843592    1.6206775566   -0.5508630739
 H    2.2857832155    4.0711293890   -0.3390490041
 H    0.8194407190    3.7108011290   -1.2745125664
 H   -1.4077347489    3.6698777410    0.7821013570
 H   -0.5988424634    4.0181260115    2.3246658012