17

 C   -0.2116786228    1.5493262227   -0.0701706738
 C    0.0316580458    0.0458800643    0.0391640211
 N    0.7322107539   -0.5376194627   -1.1073955621
 C    1.9075540698   -1.1740142516   -0.7958490365
 N    2.9028266470   -1.5409504976   -1.4994052208
 C    1.9094892923   -1.4144616181    0.7057703803
 O    3.1776459387   -1.4500940602    1.2709627893
 C    0.9812284284   -0.3053674451    1.2088036272
 O    0.9767925978    0.2261840129    2.2823288014
 H    0.7252714425    2.0829329765   -0.2549975021
 H   -0.9119637230    1.7773751215   -0.8796478386
 H   -0.6349835403    1.9142720866    0.8686646953
 H   -0.9278150810   -0.4648372018    0.2106723428
 H    0.5609113974   -0.1967542273   -2.0408156438
 H    2.8187409653   -1.2894157861   -2.4839611352
 H    1.3537987011   -2.3578067210    0.8845958865
 H    3.7757554069   -1.6201335931    0.5250660588