15

 N   -0.2253859013    1.2218169384   -0.4726071361
 C   -0.1020326600    0.0577829457   -0.0355269280
 O    0.9662556602   -0.5736369654    0.5774509935
 C    0.2486787522   -1.8462067498    0.6280599125
 C    0.0583153130   -2.3849100718    2.0255062992
 O   -0.9100369398   -1.6599321002    2.7942679520
 C   -2.0041267671   -1.2172108120    2.1298996527
 N   -2.1588403447   -1.0069628800    0.8913834925
 C   -1.0102176485   -1.1722300522    0.0259052065
 H    0.6231883876    1.7711889434   -0.3248606282
 H    0.7494349169   -2.5846154616   -0.0050067103
 H   -0.2680428597   -3.4312402138    1.9540143199
 H    0.9893717589   -2.3458280785    2.5953565821
 H   -2.8154562334   -1.0219737509    2.8282265699
 H   -1.3305304943   -1.5393761911   -0.9504408182