20

 C   -0.2039619016    1.5747973595   -0.0765873455
 C   -0.0945152348    0.0486552298   -0.0952106108
 C    0.9034038050   -0.4649680470   -1.1457181295
 C    1.0014094784   -1.9580637744   -1.1689932941
 C    1.6450371430   -2.9029083506   -0.1312622220
 C    1.9015194268   -3.9294408139   -1.2900620335
 C    1.2345533665   -2.9354906774   -2.2493348259
 O   -0.0890750727   -2.6956120435   -1.7504535792
 H    0.7618893724    2.0403135102    0.1504056447
 H   -0.5352329696    1.9595747558   -1.0475858215
 H   -0.9214098182    1.9131225186    0.6773291876
 H    0.2065746767   -0.3113684808    0.8968909820
 H   -1.0759045247   -0.3950155629   -0.2987762141
 H    0.6018856176   -0.1192134220   -2.1418546718
 H    1.8980032249   -0.0433430967   -0.9475569278
 H    2.5729000861   -2.5111085773    0.2934961223
 H    0.9819660511   -3.2251679157    0.6748771336
 H    2.9653111511   -4.0784368855   -1.4903975455
 H    1.4051833018   -4.8994904311   -1.2109081211
 H    1.3905410404   -2.7966454952   -3.3139144977