16

 C    0.1167690170    1.5158276931    0.0120271374
 C   -0.0129558757    0.0285593981   -0.0031517784
 C   -1.1750127919   -0.6695066419    0.0690471906
 N   -2.4297607455   -0.0865876482    0.2000679090
 C   -1.1704604083   -2.1449737465    0.0690250884
 O   -2.2235920091   -2.7775405403    0.1302778634
 C    0.1527094135   -2.7307904558   -0.0205688127
 C    1.2435739972   -1.9454303427   -0.1057084279
 O    1.1969387519   -0.6061336017   -0.1031788397
 H    1.0596412598    1.8077617103    0.4820047202
 H    0.1040349978    1.9449845911   -0.9982972370
 H   -0.7086748645    1.9562662871    0.5781276946
 H   -2.6074884129    0.7244497271   -0.3732400562
 H   -3.1414175062   -0.8040934312    0.0982270421
 H    0.2521921520   -3.8086959356   -0.0344941903
 H    2.2627525748   -2.3037320430   -0.1842923835