8

 N   -0.0945641623    1.2931489773    0.0101823844
 C   -0.0187057301    0.0405322757    0.0023571532
 O   -1.1759608185   -0.6914389492    0.0094164635
 C   -1.0773678574   -2.0518955590    0.0013950850
 O   -2.0363847452   -2.7538473724    0.0068524412
 H    0.8374429504    1.7042323309    0.0035437085
 H    0.8875611516   -0.5758977244   -0.0098076536
 H   -0.0311211186   -2.4080111489   -0.0104199222