19

 C    0.2236018273    1.4526412420    0.0868287110
 C   -0.1089607412   -0.0263166446   -0.0488686795
 O   -1.4756328742   -0.2380268499   -0.3270709434
 C    0.9001849513   -0.8401518147   -0.9275962836
 N    1.4201091009   -1.4420323069    0.3043854306
 C    0.3370555934   -0.9104008174    1.1474316353
 C    2.0109892630   -2.6848977330    0.3455367484
 N    2.0369202708   -3.2586017633    1.6090555322
 O    2.4517138641   -3.2346815596   -0.6469341074
 H    1.2739522958    1.5955193354    0.3577645581
 H    0.0524940177    1.9755801616   -0.8623808342
 H   -0.4042127178    1.9165631280    0.8537718775
 H   -1.7222982036    0.3175215727   -1.0745938213
 H    0.4071578688   -1.5647719222   -1.5837198168
 H    1.6369386649   -0.2671649290   -1.4990252998
 H    0.6670151747   -0.3784175030    2.0472628744
 H   -0.4216231523   -1.6544446097    1.4135991297
 H    2.0503662341   -2.6437171812    2.4083991272
 H    2.6700138323   -4.0410930154    1.6717361016