20

 N   -0.2519276510    1.3255601566    0.0106088410
 C   -0.0662079587    0.0752250233    0.0027673189
 O   -1.1284246200   -0.7464957890    0.0068108455
 C   -0.9901153306   -2.1582681959   -0.0004958724
 C    0.1098038893   -2.8348630942   -0.7725562600
 C    0.1214638164   -2.8416409930    0.7485330490
 C   -2.3567319471   -2.7744617857    0.0072062450
 C   -3.4960638751   -2.1522766873    0.7735254231
 C   -3.5074562203   -2.1457656724   -0.7364454598
 H    0.6457528853    1.8053754206    0.0059707319
 H    0.9065624363   -0.4259217377   -0.0074109062
 H   -0.1346681580   -3.7518236965   -1.2979301673
 H    0.8447197517   -2.2206575893   -1.2813828998
 H    0.8641366023   -2.2319475270    1.2514882851
 H   -0.1149816474   -3.7632649388    1.2694031041
 H   -2.3143862659   -3.8596555861    0.0022193928
 H   -4.1767856674   -2.8141735775    1.2972151591
 H   -3.3070635948   -1.2071011098    1.2678600210
 H   -3.3258529850   -1.1963419577   -1.2253869536
 H   -4.1960581299   -2.8031318527   -1.2555185776