19

 C    0.4639313417    1.3364576921   -0.3183297314
 O    0.6112850997   -0.0612222900   -0.2378452170
 C   -0.2038961951   -0.7533147492   -1.1574934985
 C    0.1091184454   -2.2277077324   -1.0148491432
 O   -0.8084065530   -3.0715983117   -1.7673650235
 C    0.2761477390   -3.7552497735   -2.4233201913
 C    0.6899658299   -3.0916474522   -3.7427473007
 O    1.5773836067   -2.1802719550   -3.0394105485
 C    1.3136439046   -2.8179915193   -1.7763592960
 H    0.7341056038    1.7185172192   -1.3149503929
 H   -0.5687559654    1.6508900657   -0.0983466460
 H    1.1330223361    1.7788787750    0.4237068658
 H   -1.2746690845   -0.5919848507   -0.9473532195
 H   -0.0049665261   -0.4284665399   -2.1894032271
 H    0.1075960132   -2.5056184127    0.0476017670
 H    0.2098777209   -4.8415332453   -2.3497364894
 H    1.2532821016   -3.7340273079   -4.4314424676
 H   -0.1142685416   -2.5759833953   -4.2777192484
 H    2.2200008232   -3.0816590370   -1.2307762817