18

 C   -0.0335107024    1.6073393751    0.0159283356
 C    0.0846810949    0.0946419944   -0.0441024403
 C    0.8049934900   -0.6235098923   -1.1757262710
 C    2.2787467113   -0.7100445432   -0.7629087038
 C    2.3752673416   -0.0497847365    0.5994839772
 N    1.0103164704   -0.6076171319    0.9495347219
 C    1.2573964191   -1.6638902497   -0.1756300544
 C    1.1421745161   -3.0629574135   -0.0813159658
 C    1.0448188420   -4.2605303154    0.0011267138
 H    0.8832151901    2.1193795977   -0.2859375946
 H   -0.8325518227    1.9423499134   -0.6537898458
 H   -0.2915064341    1.9257122939    1.0317842962
 H   -0.9011698754   -0.3557966604    0.1091833995
 H    0.4950180756   -0.8014400703   -2.1982469376
 H    3.0525739460   -0.9511543514   -1.4808901585
 H    3.1193001072   -0.5306401421    1.2388969776
 H    2.4716059287    1.0363835049    0.6810087271
 H    0.9573744116   -5.3157080428    0.0782311128