16

 C    0.2107128245   -1.2477592224   -0.0084872009
 C    0.1580743291   -0.0453704972    0.0193238592
 C    0.0637414546    1.3817094473    0.0427309899
 C    0.4232708239    2.2238289921    1.2775792041
 C    1.2916438167    1.5827456590    2.3472757717
 C    2.5528827028    1.1184103550    1.5757730903
 O    2.5478515762    1.7844545068    0.3029004502
 C    1.2838523887    2.3090273371    0.0610793386
 H    0.2681921293   -2.3072757433   -0.0446180442
 H   -0.7731277179    1.7821889999   -0.5246806822
 H   -0.2635772066    3.0119165375    1.5620319955
 H    1.5385880120    2.3341780064    3.1032504306
 H    0.8056798285    0.7431508903    2.8519939380
 H    3.4856001923    1.3821390416    2.0839124155
 H    2.5347693697    0.0372127317    1.4147666440
 H    1.3068078263    3.1524686482   -0.6196382204