19

 O    0.0583181773    1.4222926940   -0.2270760998
 C    0.0141049155    0.0213367815   -0.0293260809
 C   -1.4187680478   -0.4613579509    0.0506271406
 C   -2.4423658372    0.4093824890    0.1441388548
 C   -3.8803312271   -0.0381275944    0.0906462033
 C   -4.1731843400   -0.8588580451    1.3215819171
 C   -3.5896215329   -2.0539812187    1.5278282852
 C   -2.5308907993   -2.6096789145    0.7164947448
 C   -1.5776523541   -1.9031229842    0.0538978502
 H    0.9661083879    1.7115974157   -0.1021538000
 H    0.5155850652   -0.5144646217   -0.8548863946
 H    0.5481574486   -0.2622367070    0.8931112721
 H   -2.2226894783    1.4668129156    0.2384326582
 H   -4.5511295682    0.8215604750    0.0252717665
 H   -4.0427197377   -0.6558585550   -0.8039892814
 H   -4.8855756902   -0.4741592648    2.0464450047
 H   -3.9136197266   -2.6567652792    2.3737867777
 H   -2.4278467783   -3.6927448770    0.7291334080
 H   -0.7748519969   -2.4729929782   -0.4131690364