20

 C   -0.0458364432    1.5537252691    0.0016159617
 C   -0.0257501888    0.0515068172   -0.0165368949
 C   -0.0344180562   -0.6585654447   -1.1470062971
 C   -0.0177203801   -2.1613565093   -1.1548870227
 O    1.1901602967   -2.7755726414   -0.6537342324
 C    1.4532396713   -2.7769232235    0.6897781967
 N    1.9001002699   -3.8179777194    1.2589387900
 C    1.3538239126   -1.4846811731    1.4755458563
 C    0.0609936223   -0.6555667487    1.3198813861
 H    0.8483432323    1.9542685763    0.4968372984
 H   -0.0953376488    1.9734432660   -1.0063271534
 H   -0.9064804206    1.9251717204    0.5726793422
 H   -0.0573401993   -0.1545780342   -2.1093888587
 H   -0.8693263778   -2.5664624082   -0.5896568181
 H   -0.0957043410   -2.5394439216   -2.1759012633
 H    1.9462475258   -4.5815373752    0.5794577268
 H    1.5021819207   -1.7621788762    2.5206952762
 H    2.2044148791   -0.8562717752    1.1808985464
 H    0.0303109951    0.0784505476    2.1307748585
 H   -0.8115980202   -1.3067383059    1.4656264311