18

 C    0.0394465060    1.6573414381   -0.1138913430
 C    0.0478307466    0.1381381248    0.0962167497
 C   -1.3266726496   -0.3618072761    0.5314254313
 O   -1.5047137488   -1.3641080865    1.1750013994
 C    0.5085424988   -0.5913971183   -1.1681971396
 C    0.4445407826   -2.1319362061   -1.2434702208
 C   -0.5175215178   -1.8819988298   -2.3845029571
 N   -1.1429647775   -2.6016219115   -3.1951671630
 O   -0.4795256075   -0.5006770580   -2.2542636830
 H    1.0406511724    2.0212609608   -0.3618428847
 H   -0.6309283137    1.9283075680   -0.9355308243
 H   -0.2946823996    2.1810857467    0.7868030373
 H    0.7503429493   -0.1411571596    0.8913854706
 H   -2.1825099305    0.2696004740    0.2052926042
 H    1.4581072925   -0.1661387340   -1.5097068186
 H    1.3698887169   -2.6392410605   -1.5185765214
 H   -0.0056858465   -2.6172556812   -0.3764852059
 H   -1.7015465535   -2.0406192507   -3.8404511411