23

 C   -0.3415750945    1.4639357126    0.0802012389
 C    0.1089185548    0.0039037685   -0.0931798152
 C    0.9723662325   -0.1648427850   -1.3523381291
 C    0.8001723959   -0.5262003493    1.1698955976
 C    2.0648817844    0.1993750305    1.6024624309
 C   -0.0566249639   -1.0970086648    2.2522336942
 C    0.8221133929   -2.0427210290    1.4367521818
 C    0.1870153576   -3.0295771710    0.5376775711
 O    0.6643271112   -4.1063382199    0.2685776017
 H    0.5115052117    2.1467970207    0.1470528469
 H   -0.9452803434    1.7804047176   -0.7762404382
 H   -0.9462687870    1.5898943518    0.9840792954
 H   -0.8017528045   -0.5890137810   -0.2390564968
 H    1.8800171137    0.4457943261   -1.3023246851
 H    1.2773552294   -1.2063047085   -1.4948981522
 H    0.4177776085    0.1481379288   -2.2427338774
 H    1.8625224255    1.2522945169    1.8230799547
 H    2.4806829645   -0.2509816115    2.5084581965
 H    2.8386756152    0.1599666689    0.8295413801
 H    0.2172154381   -0.9437994525    3.2905257779
 H   -1.1270802912   -1.1591668966    2.0773329551
 H    1.7205709677   -2.4255105273    1.9100080773
 H   -0.8007021590   -2.7280326260    0.1203222238