19

 C   -0.0831358719    1.2658803757   -0.2817834368
 O    0.8243900834    0.1865134534   -0.5143322181
 C   -0.4203916890   -0.1020987242    0.1308115452
 C   -0.3318570857   -0.5449159902    1.5757540924
 C   -1.7116975108   -0.4567237277    2.2941362918
 C   -2.2676327282   -1.8646093149    2.2400978239
 O   -2.2142752781   -2.4496439974    0.9296121984
 C   -1.1953745279   -2.8002935342    1.8813414635
 C    0.0986697087   -2.0373958631    1.6946686270
 H    0.2367041992    1.9902673273    0.4671977829
 H   -0.5393408874    1.6950641838   -1.1728781305
 H   -1.1200026079   -0.6685997909   -0.4822242932
 H    0.4028229059    0.0998221822    2.0663278994
 H   -1.5905387875   -0.1600092059    3.3425690251
 H   -2.3768331275    0.2748042549    1.8234103414
 H   -3.1275129149   -2.1499833451    2.8409316431
 H   -1.1924230108   -3.8420958533    2.1918852170
 H    0.6690728017   -2.3662124065    0.8208371137
 H    0.7326599088   -2.1941653640    2.5754269235