17

 O   -0.0846116280    1.3702389789   -0.4650426530
 C    0.0053593403    0.0238769565   -0.1528064442
 C   -0.0653650779   -0.5053022334    1.2444166650
 C   -1.2075891773   -0.8095670417    0.2657991329
 C   -2.4295537096   -0.0640008034    0.4663082075
 N   -3.4082107586    0.5424417300    0.5965642417
 N   -1.2764632450   -2.1523619319   -0.2393152242
 C   -2.3621243222   -3.0265120085    0.2073214925
 C   -2.3318740830   -2.5041998041   -1.1881895189
 H   -0.8178283770    1.7697041691    0.0179762625
 H    0.6662670011   -0.4866007230   -0.8438354519
 H    0.5537433661   -1.3545000909    1.5089769812
 H   -0.2786743890    0.1905309941    2.0484928255
 H   -2.0714570453   -4.0501710920    0.4222383438
 H   -3.1151666454   -2.6091262636    0.8717354600
 H   -3.0658788932   -1.7438761893   -1.4446655313
 H   -2.0184048860   -3.1397881565   -2.0105010191