21

 O   -0.0863009788    1.3789457048    0.1521879290
 C   -0.0031408487   -0.0060616168   -0.0187908098
 C   -0.4794405779   -0.6279344814   -1.3064416921
 C   -1.2617950896   -0.8312295512   -0.0161840689
 C   -0.9480095565   -2.0022869709    0.9419706517
 C    0.0857392873   -2.9745499315    0.3233227468
 C    1.4005076303   -2.1247134631    0.3145338135
 C    0.9496242877   -0.7795275012    0.9300997722
 C   -0.0700019340   -1.2690416413    1.9911984002
 H    0.6430803738    1.7818707554   -0.3314395791
 H   -0.9336080344    0.0676814308   -2.0055380038
 H    0.0503557563   -1.4460290906   -1.7797420726
 H   -2.2302408591   -0.3493956735    0.0590764081
 H   -1.8435957465   -2.4983188008    1.3198611072
 H    0.1946253585   -3.8600795183    0.9560899215
 H   -0.2079875883   -3.3233787116   -0.6697995661
 H    2.1674153322   -2.5827561317    0.9458900126
 H    1.8326610194   -2.0099558581   -0.6829515273
 H    1.7684797596   -0.1528871243    1.2878393302
 H   -0.5924815907   -0.4437581173    2.4823932738
 H    0.3608450794   -1.9314932971    2.7509105028