21

 C   -0.0308998644    1.2360735291   -0.2077021643
 C    1.4735188830    1.4751170392    0.0228291054
 C    1.4342620374    0.1024290260    0.7367520725
 O    0.0401742269   -0.0820292508    0.3740829703
 C    2.3047911902   -0.9994523380    0.2153056530
 C    3.8518981150   -1.1402945461    0.3723581590
 C    3.3907572940   -2.3974015857   -0.4209662855
 C    2.2102961357   -2.5139776131    0.5836692125
 C    2.4901200236   -1.4533493961   -1.2668273840
 H   -0.6982498773    1.8968886493    0.3607221329
 H   -0.3684953520    1.2058616721   -1.2502274129
 H    2.0777420771    1.4847674820   -0.8861435705
 H    1.7391268689    2.3317749864    0.6432838109
 H    1.5414776042    0.1718067329    1.8297708053
 H    4.4680496391   -0.4153456280   -0.1679508655
 H    4.2277124735   -1.3081661333    1.3859409551
 H    4.0218906583   -3.2054118365   -0.7917936966
 H    2.4646846000   -2.7816392131    1.6134438782
 H    1.3160410941   -3.0392236287    0.2398864485
 H    1.6181756390   -1.9029546297   -1.7479897493
 H    3.0063965939   -0.7580859780   -1.9358393050