16

 C    0.0814747631    1.4828081276    0.0695925037
 C   -0.0562127236    0.0039035315    0.0340322092
 C   -1.1316124573   -0.8322484602   -0.0388985466
 N   -2.5150186209   -0.5524770454   -0.0570154987
 C   -0.6137290486   -2.1757258684   -0.0102897746
 N   -1.4321879164   -3.3101832365   -0.1308674970
 C    0.7379184224   -2.0538101923    0.0770994081
 O    1.0930513116   -0.7316772917    0.1101629942
 H    0.8663430499    1.8199360064   -0.6162265860
 H   -0.8556217695    1.9585435751   -0.2362350174
 H    0.3348295956    1.8605931426    1.0685347842
 H   -2.7054585253    0.4422209311   -0.0544591535
 H   -2.9642479048   -0.9611871678   -0.8711701187
 H   -2.2741524987   -3.2077306318    0.4262901763
 H   -0.9604782622   -4.1647877610    0.1366186737
 H    1.5461959447   -2.7641605390    0.1169011231