16

 O   -0.0421558132    0.0226600206   -0.2713479178
 C   -0.0514927267    1.1974726570   -0.0660950674
 C   -1.1283853241    2.2425209069    0.2786323490
 N   -0.0224669439    3.1935179621    0.5815864303
 C    1.0118370999    2.3017687513    0.0065882974
 C    2.4058143458    2.2060210275    0.7096455594
 C    3.0576309425    2.6482472573   -0.6090934624
 O    2.6753381286    1.6934770648   -1.6067880872
 C    1.7546765273    2.7317815633   -1.2881310626
 H   -1.7567660589    2.4950721538   -0.5861215622
 H   -1.7750299222    2.0135588680    1.1317594686
 H   -0.1032495884    4.0927663164    0.1192010547
 H    2.4670893586    2.9497856989    1.5073708399
 H    2.7092156548    1.2236175705    1.0776943597
 H    3.9776037451    3.1954430262   -0.7762104511
 H    1.3868376546    3.3589129153   -2.0943432084