14

 C   -0.0882167458   -1.2080232369    0.0927775335
 C   -0.0433027168   -0.0070365120    0.0703021475
 C    0.0092153032    1.4270034323    0.0119914165
 O    0.6198170752    2.1183249786    1.1317931096
 C    1.2918438222    2.1398441504   -0.0988217841
 C    2.6990987563    1.6209954178   -0.3611355349
 O    2.9713151732    2.7802235703   -1.1842869474
 C    1.6937282826    3.3840209447   -0.8838486047
 H   -0.1314023950   -2.2691446630    0.1213197014
 H   -0.8850661223    1.9190582245   -0.3685320576
 H    3.3365877386    1.5797909690    0.5305840238
 H    2.7786954533    0.6811494311   -0.9186193239
 H    1.1166337563    3.6131109158   -1.7872767634
 H    1.7894626690    4.2872451475   -0.2676043963