19

 C    0.0138885242    1.4931408185    0.0792433168
 C   -0.0091460372    0.0034975136   -0.0159322411
 C    0.0206128747   -0.7503731082   -1.1306185474
 C   -0.0335969813   -2.1914154791   -0.7885077814
 O   -0.1004570977   -3.1335400491   -1.5467634771
 C   -0.0285598404   -2.2869882826    0.7328736147
 C   -0.7817824134   -3.4255734119    1.3719419555
 C    1.2266205497   -1.7172422145    1.3736799701
 C   -0.0165877704   -0.8594159577    1.2112685771
 H    0.8785795452    1.8298920446    0.6644045490
 H    0.0528662543    1.9645880181   -0.9053318546
 H   -0.8766565351    1.8610074498    0.6040348030
 H    0.0860349592   -0.3936542027   -2.1505443968
 H   -0.4141734992   -4.3799207743    0.9831978278
 H   -0.6622600383   -3.4245687412    2.4594251703
 H   -1.8517668573   -3.3684476634    1.1462865769
 H    1.4633506963   -2.0818013614    2.3691121382
 H    2.0872238754   -1.4868017003    0.7543532800
 H   -0.5549991489   -0.5385786483    2.0965105489