19

 C   -1.9981007389    0.3542967951   -0.6462119916
 N   -0.7509879577   -0.4006943644   -0.5356058519
 C    0.3775667403   -0.1389885527   -1.4130515467
 C    0.3796867398    0.8920455201   -2.5250373546
 O   -0.1472675941    0.3371861734   -3.7262007637
 C    0.4504935406    0.2025930298    0.0541015140
 C    0.4967173489    1.6308005873    0.5266198969
 N    1.2251982477    1.8022335349    1.6683578196
 O   -0.0550935878    2.5692224471   -0.0269071691
 H   -1.8817681077    1.4234688264   -0.8440854159
 H   -2.5997511110   -0.1082161050   -1.4364793873
 H   -2.5492923164    0.2404112310    0.2925159491
 H    0.8987686165   -1.0509721278   -1.7068808155
 H   -0.1325282094    1.8097415234   -2.2276105870
 H    1.4178783600    1.1564157494   -2.7536046320
 H   -1.0924081592    0.2097280713   -3.5983518965
 H    0.9981426774   -0.4890468559    0.6940326715
 H    1.6377877590    1.0377392518    2.1717121778
 H    1.2882579618    2.7302318448    2.0532011128