16

 O   -0.0300844271    1.4819974527   -0.1487093823
 C    0.0860940351    0.0734563114   -0.0382212285
 C   -1.3341690670   -0.4903807121    0.0738022309
 C   -1.3785523993   -1.9689051351    0.1722996125
 C   -1.7080201519   -2.8633329735    1.1418069981
 O   -2.1253990871   -2.5999922949    2.3963722332
 N   -1.5649391427   -4.1567327057    0.6813063755
 C   -1.1547331375   -4.0046395621   -0.5392069592
 O   -1.0138919667   -2.7288052661   -0.9294139246
 H    0.8537693202    1.8534045880   -0.2207800085
 H    0.5844089310   -0.3615926753   -0.9180791912
 H    0.6666015209   -0.2192417000    0.8502930189
 H   -1.8116650725   -0.0753145948    0.9664854267
 H   -1.9107418369   -0.1401172157   -0.7912048694
 H   -2.2929030480   -3.4511705070    2.8179541418
 H   -0.9199882506   -4.7705152598   -1.2613738441