17

 C   -0.4693435003    1.3741430868    0.0872528346
 N    0.3958415638    0.2319762997   -0.1398727538
 C    1.0466466202   -0.3819473935    0.8798645211
 N    0.8175302014   -0.0937402018    2.1049114330
 C    1.5648539060   -0.7912247451    3.1067766347
 C    3.0769542765   -0.4802071801    3.1180386236
 O    3.6653825263    0.0026251621    2.1902011134
 C    1.0012800695   -0.4941498489    4.4952248018
 O    1.4603528314   -0.9494554247    5.5106641379
 H    0.0798799132    2.2267628187    0.5052265218
 H   -0.9256021913    1.6674324895   -0.8601079750
 H   -1.2574737341    1.1076296745    0.7961863544
 H    0.7502336490    0.0806799566   -1.0678721157
 H    1.7475624617   -1.1548945573    0.5446501584
 H    1.5391637189   -1.8955472246    3.0142450736
 H    3.5781068553   -0.7687575374    4.0646460658
 H    0.1362335426    0.2012115254    4.4770558504