19

 C   -0.1627996038    1.5155366777    0.2973210093
 C   -0.0168218723    0.0255042782    0.0566787262
 C    1.3372491592   -0.5294940604   -0.3266085868
 C    0.7803329511   -0.7963753202    1.0470418486
 C   -1.2061092959   -0.6452474172   -0.5777267087
 O   -2.4660308158   -0.4347955705    0.1222952331
 C   -3.1463946308    0.0975589857   -1.0304986453
 C   -1.8448868691   -0.0125431489   -1.8333011572
 O   -1.4782321328    0.2795686483   -2.9292491314
 H    0.7245578173    1.9192682553    0.7928469037
 H   -0.2927281801    2.0609660322   -0.6446504258
 H   -1.0288335139    1.7188468832    0.9346544695
 H    1.3788129624   -1.3506889945   -1.0342060653
 H    2.1525112399    0.1785795830   -0.4255156636
 H    1.2180389525   -0.2726918664    1.8898321551
 H    0.4378327873   -1.7992513682    1.2778689654
 H   -1.0115136034   -1.7192709862   -0.7160459901
 H   -3.9622387234   -0.5453295480   -1.3863757614
 H   -3.5262589783    1.1148398169   -0.8743383951