17

 C   -0.0328227488    1.5096986152    0.0508119456
 C   -0.0138905252    0.0159145665   -0.0001094290
 C    0.0004820427   -0.7738779543   -1.0812913235
 C   -0.0014172335   -2.2569062147   -0.7394603613
 C    1.2195812882   -2.9592248881   -1.3253866886
 O    1.1804470670   -3.7140958501   -2.2619498690
 C    0.0251795755   -2.2398065354    0.7922833787
 O    1.2024573962   -1.6469175196    1.3462458544
 C    0.0084267617   -0.8355018885    1.2328234079
 H    0.8595804678    1.8983093518    0.5566059210
 H   -0.0754146852    1.9444611243   -0.9508539694
 H   -0.8986270439    1.8749718019    0.6170054818
 H    0.0505258308   -0.4294244962   -2.1083603997
 H   -0.8909397805   -2.7655912940   -1.1271006193
 H    2.1707987310   -2.6975625760   -0.8174798938
 H   -0.3993672606   -3.0608872145    1.3626535082
 H   -0.4052590233   -0.4989238382    2.1790310561