15

 O   -0.0241434829    1.5144187323    0.1357696158
 C   -0.0036558339    0.1384195286   -0.2054595809
 C   -1.3196363974   -0.4986182535   -0.1474000079
 C   -2.4076369403   -1.0135139790   -0.0675282305
 C   -3.6939555761   -1.6929711391    0.0183473770
 O   -3.7992888016   -2.8875583336    0.1461264690
 N   -4.7544702868   -0.7912971841   -0.0671315508
 C   -6.1242829669   -1.0414440301   -0.0105329821
 N   -6.6375468946   -2.1868093627    0.1562049824
 H   -0.3446115790    1.5873609093    1.0409769977
 H    0.3797117386    0.0863386242   -1.2305612397
 H    0.6982539008   -0.4299348502    0.4241165466
 H   -4.4875538856    0.1720084449   -0.1992213824
 H   -6.6810665960   -0.1030617492   -0.1295819373
 H   -7.6534441583   -2.1078381179    0.1626780531