14

 N    0.0128034224    1.3697701287   -0.1508621008
 C   -0.0250555589    0.0020926716   -0.0548387866
 C   -1.2271711518   -0.7051624317    0.0036693839
 C   -1.1343031764   -2.0971736998    0.0517488944
 N   -2.2422602719   -2.8991158749    0.1564492456
 N    0.0529059786   -2.7344512945    0.0391703812
 C    1.1219842947   -1.9474066576   -0.0151901395
 N    1.1700180845   -0.6204336337   -0.0613739869
 H    0.9130878916    1.7796946389    0.0437202824
 H   -0.7858513512    1.8920709283    0.1692759084
 H   -2.1859795558   -0.1981554679    0.0114111940
 H   -3.1272578671   -2.5310650559   -0.1511081645
 H   -2.0765493921   -3.8726285801   -0.0468814813
 H    2.0845022135   -2.4563930515   -0.0229053304