18

 N   -0.1859808689    1.2702529326    0.1131657796
 C    0.0844257781   -0.0662628090    0.0377525705
 O    1.1878041122   -0.5559162463    0.0099300479
 O   -1.0861113608   -0.7638839991    0.0322056750
 C   -0.9843503077   -2.1643439358    0.0103559131
 C   -0.3489550958   -3.0986439592    1.0739077057
 C   -0.9848083881   -4.0126341557   -0.0166023229
 C   -2.2295780115   -3.0715782634    0.0083115884
 C   -0.3684439495   -3.0673542288   -1.0913800694
 H    0.5811108038    1.8920900113   -0.0746960754
 H   -1.1191070205    1.5916904778   -0.0793287862
 H    0.7387916975   -3.0857386395    1.1394129228
 H   -0.8263368123   -3.1108278571    2.0572673538
 H   -0.9926268935   -5.0990858424   -0.0323316709
 H   -2.8323630790   -3.0782881723    0.9200138418
 H   -2.8486970034   -3.0522479366   -0.8922812904
 H   -0.8635952711   -3.0515923522   -2.0659941247
 H    0.7179411206   -3.0524299844   -1.1761597685