13

 O    0.0261964733    1.3366369520    0.0979384023
 C    0.0410066249    0.0076134609   -0.0218503221
 N    0.0544487200   -0.7051570905   -1.1230220211
 C    0.0643260064   -1.9830950443   -0.6321369644
 N    0.0541700042   -2.0941358460    0.6791258272
 N    0.0307288438   -0.7791016057    1.0750715164
 C    0.0571632118   -0.4095910422    2.4707633082
 C    1.4183047728   -0.3279243404    3.0225929598
 N    2.4812901216   -0.2511550207    3.4659812147
 H    0.0307225541    1.7047868251   -0.7951878358
 H    0.0740965268   -2.8523684314   -1.2723041478
 H   -0.4327026813    0.5612534343    2.5862257789
 H   -0.5150205083   -1.1551186809    3.0285461835