22

 C    0.0097740954    1.5526489304    0.0074416568
 C    0.0424674994    0.0136885203    0.0037503803
 C    0.7924845841   -0.5008618945    1.2456381590
 C   -1.3951003384   -0.5363891219    0.0011465903
 C    0.7260297647   -0.4939170728   -1.2712549247
 O    2.0763669202   -0.0019355514   -1.3053225151
 C    2.7940283661   -0.3566532915   -2.3986832157
 N    4.0378417169    0.2116591618   -2.3429779567
 O    2.3815171630   -1.0459582488   -3.3014808349
 H    1.0202898299    1.9681134970   -0.0243472327
 H   -0.5398537795    1.9372288429   -0.8589470505
 H   -0.4852888741    1.9263156540    0.9098860000
 H    0.3043145585   -0.1546544600    2.1626465671
 H    0.8106250987   -1.5962536117    1.2698392392
 H    1.8266114217   -0.1467546085    1.2560582449
 H   -1.9544054441   -0.1901178182   -0.8748801064
 H   -1.4046121343   -1.6318928414   -0.0042942692
 H   -1.9343094386   -0.2030420350    0.8936959704
 H    0.7453452266   -1.5888640875   -1.3000965847
 H    0.1991788948   -0.1481978413   -2.1669900909
 H    4.3669798682    0.5669556580   -1.4614480072
 H    4.7187330807   -0.1579801898   -2.9838029292