16

 C   -0.0763617687    1.5387670115   -0.2757706017
 C   -0.1338607421    0.0304192733   -0.2509622606
 C   -0.1282714702   -0.6963997777    1.0694266561
 C   -1.3891118850   -0.6426413030    0.2466480016
 N    1.2845429730    2.0432561789   -0.0791929953
 N    1.7972821297    2.3546282225    1.1004259526
 N    3.0268910017    2.6955958127    0.8560280565
 N    3.2569362684    2.5874746603   -0.4652775583
 N    2.1713900120    2.1786872945   -1.0510876321
 H   -0.4181109983    1.9427354569   -1.2313471982
 H   -0.6771871909    1.9715140845    0.5267878217
 H    0.3851955254   -0.4436493660   -1.0780359541
 H    0.4125478837   -1.6335730431    1.1274513601
 H   -0.0822939179   -0.0996706731    1.9739917360
 H   -2.1996261339   -0.0126931446    0.5983081571
 H   -1.7170532268   -1.5401787975   -0.2644799715