18

 C    0.1123162598    1.4484046394   -0.0702924640
 N    0.1476241692   -0.0047247331   -0.0512934566
 C    0.5362721258   -0.6045112675    0.9851408986
 O    0.9632471998   -0.0060452533    2.1557751824
 C    1.1630266548   -1.0437865743    3.1238957808
 C   -0.2042528767   -1.7013037008    3.4817249149
 C    0.0929532613   -2.7426905757    2.4041221265
 C    1.5493358776   -2.3308047485    2.3444572330
 C    0.6759710475   -2.0779531773    1.1489632960
 H    0.7048930469    1.8085652787   -0.9191613421
 H   -0.9184519415    1.7793320426   -0.2445984719
 H    0.4816926363    1.9241390898    0.8451097926
 H    1.7946126894   -0.6576470134    3.9203342459
 H   -0.1822086259   -2.1480883054    4.4794067514
 H   -1.0859922124   -1.0615106003    3.3787460015
 H   -0.3312650257   -3.7362095551    2.3280441601
 H    2.4714115964   -2.8948724444    2.3612348949
 H    0.7480518572   -2.6879249114    0.2595127762