15

 C   -0.0175628007    1.5316025960   -0.0240490681
 C   -0.0075033253    0.0373172940    0.0314326696
 C   -0.0344557485   -0.8125784358   -1.0298030484
 O   -0.0153546966   -2.1614432163   -0.6519998538
 C    0.0243182936   -2.0989682529    0.6853955046
 C    0.0323655189   -0.8209052057    1.1991776588
 C    0.0752991337   -1.0384522511    2.6004866915
 N    0.0918552852   -2.3378368981    2.8907224763
 N    0.0592736416   -2.9944827351    1.6876128451
 H    0.8767697578    1.9522217433    0.4494358653
 H   -0.0524237263    1.8896499732   -1.0564560320
 H   -0.8845728024    1.9423945080    0.5055270821
 H   -0.0673778656   -0.6503389733   -2.0944167834
 H    0.0954178436   -0.3257940709    3.4115335500
 H    0.0642972210   -3.9985889755    1.6691289424