22

 C    0.1149364078    1.6982817574   -0.0065494157
 C    0.0491025753    0.1585825653   -0.0234258989
 C    0.6562953547   -0.4689418496   -1.2409197722
 C    0.0719212279   -0.8470679206   -2.4380318787
 C   -1.3759201215   -0.7263250870   -2.8127007673
 C    1.1099050846   -1.3621049147   -3.2677163880
 C    2.2839639573   -1.2816551575   -2.5619414222
 N    2.0120148261   -0.7351660772   -1.3315931828
 C    2.9880849525   -0.5576559102   -0.2784587447
 H    1.1489200443    2.0561547511   -0.0453855498
 H   -0.4081174528    2.1154722894   -0.8720937105
 H   -0.3469796208    2.1015501572    0.9009364693
 H    0.5258048870   -0.2334168360    0.8840334833
 H   -0.9999570034   -0.1499695966    0.0382759272
 H   -2.0091160750   -0.5437004904   -1.9389877439
 H   -1.5535797198    0.0968886855   -3.5165144732
 H   -1.7398024424   -1.6403713295   -3.2952893957
 H    0.9979325732   -1.7456687850   -4.2710871398
 H    3.2906096083   -1.5720868462   -2.8194388379
 H    3.0147654118    0.4783188930    0.0742361943
 H    2.7824581261   -1.2085913378    0.5792382308
 H    3.9755697887   -0.8101652608   -0.6689261034