23

 C   -0.0381660535    1.5493659470    0.1286929385
 C    0.0036383363    0.0270172537   -0.0300190379
 C    0.7144057569   -0.4787365316   -1.3049521735
 C    0.0466544887    0.0406478352   -2.5806705960
 O    2.0587139917    0.0263429177   -1.3492588995
 C    0.7528818979   -2.0254877684   -1.2778152111
 C    1.4994464563   -2.6439545592   -2.4344277816
 C    1.2429990846   -4.0192503689   -2.8777683132
 O    0.7490083098   -2.9093134093   -3.6274978611
 H    0.9619885707    1.9766114951    0.0149946174
 H   -0.6883637842    2.0186817250   -0.6152317317
 H   -0.4189170580    1.8236331232    1.1171404158
 H    0.5211268108   -0.4113021887    0.8362646957
 H   -1.0138222141   -0.3828350503   -0.0070114523
 H    0.0897140707    1.1313885021   -2.6145437878
 H    0.5505511190   -0.3482477132   -3.4671658388
 H   -1.0007091744   -0.2719674200   -2.6220354064
 H    2.4946996344   -0.2264289753   -0.5275500072
 H    1.2373535322   -2.3394606265   -0.3410966294
 H   -0.2668217352   -2.4266011653   -1.2576571340
 H    2.4851348293   -2.2199019830   -2.6227730824
 H    2.0350729130   -4.5942251029   -3.3559660964
 H    0.4843058972   -4.6139029365   -2.3692264570