18

 C   -0.2624940065    1.5567807628    0.1618763503
 C    0.0662581434    0.0784120347    0.0131226811
 O    0.9028297706   -0.0858416291   -1.1655682283
 C    2.1780386508   -0.5521844760   -1.0242165138
 N    2.9895595663   -0.6524249254   -1.9879425217
 C    2.5274439680   -0.9754611104    0.3773459353
 C    1.3984422309   -1.8720524777    0.9304148674
 C    0.7768742160   -0.4967919970    1.2354822967
 O    2.1062049023    0.0939746196    1.2794152139
 H    0.6392470869    2.1117963831    0.4324517726
 H   -0.6551332372    1.9529748746   -0.7775582822
 H   -1.0163967388    1.7037761703    0.9421594792
 H   -0.8450228829   -0.5001518697   -0.1848659640
 H    2.5531012956   -0.3322769262   -2.8557237998
 H    3.5765993975   -1.2481715351    0.4736229963
 H    0.8816005190   -2.5461287367    0.2446130413
 H    1.7040799036   -2.3945725404    1.8371064224
 H    0.2062661248   -0.3396590015    2.1545818834