20

 C   -0.9151725448    1.0189284095   -0.4462930944
 C    0.1347427453   -0.0554131898   -0.2076886492
 C    1.4265112647   -0.0335361818   -1.0687809404
 C    2.2887279272   -0.3269421026    0.2115226616
 C    3.5513217445    0.4934581058    0.4216660388
 C    1.0213662370    0.0439991406    1.0629936051
 C    2.5607124114   -1.8082255478    0.3172236707
 O    3.6361294182   -2.3042887055    0.5402523839
 H   -0.4703005921    2.0195619505   -0.3981318922
 H   -1.3809345358    0.9081462088   -1.4318730209
 H   -1.7110787976    0.9713147655    0.3052662176
 H   -0.3355863662   -1.0434285822   -0.2611365772
 H    1.4979359769   -0.7452253199   -1.8963819672
 H    1.6489930093    0.9660800981   -1.4545882182
 H    3.3330068336    1.5627187301    0.3414667774
 H    3.9843513078    0.3009748001    1.4078622334
 H    4.3128511873    0.2383848926   -0.3214160968
 H    1.1003590858    1.0710936603    1.4323417042
 H    0.7751262857   -0.6068637823    1.9069499557
 H    1.6609703818   -2.4523553401    0.1692517082