16

 O    0.0670976723    0.0371029925   -0.2831330978
 C    0.0101295898    1.2104944836   -0.0221650221
 N   -1.1458111342    1.8685618362    0.2989504892
 C   -1.3817701083    3.2417774064    0.4684782343
 C   -0.7842180856    4.2971066013   -0.0895535530
 C    0.2925834813    4.4275077633   -1.1334424428
 O    0.6303143062    3.2522946993   -1.8578278882
 C    1.5768101074    2.4538310447   -1.2236904703
 O    1.1113831511    2.0312597281    0.0470354809
 H   -1.9362457952    1.2506202623    0.4060295959
 H   -2.1956914416    3.4261931325    1.1636430894
 H   -1.1491246688    5.2629488957    0.2532929354
 H   -0.0545613653    5.1455520554   -1.8862546137
 H    1.1993242113    4.8630589845   -0.6795659005
 H    1.7555796624    1.5963981970   -1.8795243306
 H    2.5079350374    2.9962312971   -1.0157428261