23

 C   -0.0985975455    1.4957796148   -0.0966547006
 C    0.1592437904   -0.0146962968   -0.0329060176
 C    0.7932774162   -0.5062606578    1.2821490586
 C    2.1405722294    0.1564313296    1.5530630896
 C   -0.2231411738   -0.5109002421    2.4702149596
 C   -0.4668138802   -2.0223600316    2.2446138523
 C    0.8286369861   -2.0926816501    1.3905753463
 C    0.8041802186   -2.9088465379    0.1292633320
 O    1.7319701510   -3.5552236520   -0.2907339267
 H    0.8320003709    2.0700570785   -0.0930770631
 H   -0.6381685960    1.7522878689   -1.0133143452
 H   -0.7049236868    1.8377370521    0.7489569789
 H   -0.7920404290   -0.5373956296   -0.1920963142
 H    0.8081104843   -0.3035626887   -0.8704527477
 H    2.0357384668    1.2379620575    1.6872012098
 H    2.5962770312   -0.2445655874    2.4640071432
 H    2.8397177038   -0.0138653843    0.7260311522
 H    0.2701615619   -0.3101284515    3.4252769414
 H   -1.0878523673    0.1523807861    2.3855035679
 H   -0.5033268445   -2.6674686836    3.1246044402
 H   -1.3602630103   -2.2167553101    1.6424210156
 H    1.6982415671   -2.4033134824    1.9751028275
 H   -0.1648510644   -2.8862155416   -0.4229173000