23

 C   -0.4031993960    1.5349320593   -0.0203527385
 C    0.0249899847    0.0730120368    0.0092164179
 C    1.0737412187   -0.4774779230   -1.0204388604
 C    1.8432614071   -1.1850832016    0.1459672927
 C    1.9773035803   -2.6904121547    0.0843278709
 C    3.0541001785   -0.4438867677    0.7758965309
 C    2.9161194258    1.0459977992    0.7384302733
 C    2.1076183379    0.2781648733    1.7512839168
 C    0.8981460523   -0.4915605391    1.1736710392
 H    0.4402578060    2.2217393352    0.0858714224
 H   -0.9128480783    1.7734026719   -0.9609911638
 H   -1.1023104394    1.7494227220    0.7960672487
 H   -0.8777875200   -0.5452586314   -0.0550760071
 H    0.6560461943   -1.1654656755   -1.7609375802
 H    1.6439189901    0.2842356061   -1.5585622834
 H    2.6995822317   -2.9919049556   -0.6850127948
 H    2.3256466514   -3.0951610174    1.0416919170
 H    1.0200867684   -3.1675007933   -0.1539041237
 H    4.0076382212   -0.9209139977    0.9770311310
 H    3.7552427271    1.5860802707    1.1678438321
 H    2.4662279447    1.5579665131   -0.1038692935
 H    2.2452879310    0.4662684435    2.8099453843
 H    0.3821574126   -1.0886557743    1.9290774083