16

 O   -0.1978127417    1.2192605690   -0.1906437346
 C    0.0372885242   -0.0856653265   -0.0586873081
 N    1.1476551559   -0.6869460596    0.2013155645
 C    0.7762977798   -2.0380670165    0.2157256554
 C   -0.5462458603   -2.1598815801   -0.0392586899
 O   -1.0392543412   -0.8711747170   -0.2214073341
 C   -1.4864145885   -3.2746778565   -0.1532286298
 C   -2.9212086537   -3.1457982353    0.3219244282
 C   -2.6298190836   -3.2411689328   -1.1494319187
 H    0.6475619294    1.6649275008   -0.0516694799
 H    1.4947071990   -2.8181857884    0.4094707771
 H   -1.0067999174   -4.2347841779    0.0039920384
 H   -3.3624969837   -4.0006038930    0.8218881684
 H   -3.2257429041   -2.1824438057    0.7139924800
 H   -2.7389572787   -2.3417938664   -1.7441760618
 H   -2.8691791955   -4.1620766542   -1.6690748050