17

 C    0.0266092441    1.4008862476   -0.0802472818
 O   -0.0249471038    0.0094582528    0.1956922371
 C   -1.2940978481   -0.5665457500    0.0807163270
 C   -2.2621689339   -0.0096040718    1.0176745679
 C   -3.0020124446    0.5074289010    1.8115883418
 C   -1.8465583195   -0.9504465199   -1.3493083897
 C   -0.6893007149   -1.9628331036   -1.5097579538
 C   -1.2952366846   -2.1161035135   -0.0954072158
 O   -2.6438748102   -2.0002682411   -0.6869372573
 H    1.0654807016    1.7065438787    0.0575063220
 H   -0.2763403458    1.6179037194   -1.1144656068
 H   -0.6145981410    1.9695607904    0.6035690335
 H   -3.6734302337    0.9418874624    2.5106280652
 H   -2.3514202290   -0.3262577164   -2.0863302114
 H   -0.9123814516   -2.7907216297   -2.1824528179
 H    0.3278858046   -1.5834575492   -1.5953435996
 H   -1.1368040196   -2.8786315972    0.6664328694