18

 C   -0.0168428670    1.5061827298   -0.1359503722
 C    0.0299565408    0.0066674921    0.0389481521
 O   -1.1095760164   -0.6717132108   -0.4281705350
 C    1.3526868799   -0.7419643199   -0.0450536843
 C    0.6226055131   -0.5965278987    1.2788544759
 O    1.1251671662    0.3091262372    2.2153562968
 C   -0.0524129633   -1.8147115803    1.9022316766
 C    0.9137022957   -2.5999650867    2.6704952020
 N    1.7122116350   -3.1775397369    3.2746907688
 H    0.8336988844    1.9847788336    0.3510397393
 H   -0.0016463512    1.7669687847   -1.2008513270
 H   -0.9368893278    1.9061591336    0.3007507425
 H   -1.1175008788   -0.6090144856   -1.3897358719
 H    1.3484524675   -1.7149202784   -0.5245871985
 H    2.2597723012   -0.1609876877   -0.1714469137
 H    1.8997042499   -0.0905278329    2.6301954645
 H   -0.8511691086   -1.4826357482    2.5745751374
 H   -0.5109302007   -2.4343870750    1.1291024967