18

 C   -0.1527957499    1.4153260857    0.1045313723
 N   -0.0711950196   -0.0315288146    0.0698737509
 C   -0.0648500975   -0.8018836007   -1.0537486250
 C    0.0663726896   -2.1271906844   -0.6890452051
 C    0.1399369387   -2.1441683996    0.7266835463
 O    0.2606426664   -3.2256068350    1.5547153456
 C    0.0609553071   -0.8430584695    1.1890923987
 C    0.0681521087   -0.3239390321    2.5818317453
 O   -1.1625556055    0.3073599192    2.9693419034
 H    0.8328592252    1.8726358314    0.2545095905
 H   -0.5595220722    1.7731395460   -0.8435059544
 H   -0.8108982625    1.7227771356    0.9199034819
 H   -0.1600660751   -0.3516433079   -2.0295258770
 H    0.0911308510   -2.9755965354   -1.3564976925
 H    0.3357279050   -4.0160814488    1.0133369957
 H    0.3170430857   -1.1561942642    3.2529601007
 H    0.8283575919    0.4522592493    2.7291926506
 H   -1.8659460070   -0.3225859050    2.7772439219