19

 C   -0.0004345693    1.5944876859    0.1523374294
 C   -0.0185635429    0.0762922411   -0.1016326241
 C   -1.3888604954   -0.5292763287   -0.0249100301
 C   -2.0877523821   -1.1317159845   -0.9844089364
 C   -3.4235192881   -1.5811202246   -0.4700990502
 O   -3.4907719717   -1.0682530963    0.8609901850
 C   -2.2327136134   -0.5659814192    1.2465762738
 C   -1.5647900087   -1.4511036514    2.3027703243
 O   -1.9290601366   -2.5565811280    2.5947754390
 H    1.0164971468    1.9866764109    0.0600818722
 H   -0.6350251232    2.1181374782   -0.5689279474
 H   -0.3613224294    1.8416257639    1.1556877159
 H    0.4019272790   -0.1334484147   -1.0908635949
 H    0.6468709750   -0.4123877419    0.6228453454
 H   -1.7583448125   -1.2931965598   -2.0036286256
 H   -4.2661774319   -1.1778413391   -1.0495247162
 H   -3.5226515177   -2.6776067845   -0.4626488647
 H   -2.3559959220    0.4345080937    1.6956100510
 H   -0.6774312957   -0.9781046010    2.7887935535