18

 N   -0.1233138981   -1.1848738368   -0.2328472127
 C   -0.0786644834   -0.0334009400   -0.1298677823
 C    0.0097278020    1.4092122671    0.0366870357
 C   -0.2552136154    2.0245904667    1.4466043688
 C    0.5102144407    1.3130105224    2.5872698330
 C    1.8230112804    2.0172888983    2.1578687229
 C    2.4651462731    1.3886535979    0.8944167751
 C    1.4143933855    2.0891977996    0.0008282322
 C    0.9817547379    2.9693679100    1.2289192765
 H   -0.6437044015    1.8922866456   -0.6963214935
 H   -1.2752263100    2.3555085857    1.6389705977
 H    0.1675906310    1.6851267495    3.5570404411
 H    0.4955361334    0.2189686976    2.6061266208
 H    2.4928528558    2.3590756644    2.9466827106
 H    3.4563374169    1.8123820226    0.7091843689
 H    2.5342220936    0.2978518286    0.8407482953
 H    1.7348177855    2.4719841685   -0.9675415231
 H    0.9637610525    4.0556447823    1.2566825531