16

 N   -0.2518827824    1.3835473138   -0.1560479253
 C   -0.0633965930   -0.0289225010   -0.0601018794
 C   -1.2211168161   -0.8052063260   -0.1179846065
 O   -2.4590949459   -0.2301396672   -0.2484373591
 C   -1.1555929325   -2.1997981851   -0.0655686118
 O   -2.2948997184   -2.9394770328   -0.1339365703
 C    0.0848598624   -2.8232274552    0.0363307398
 C    1.2440497990   -2.0513919964    0.0693332226
 C    1.1780732309   -0.6607882587    0.0263134467
 H    0.6159117491    1.8604392357   -0.3703813684
 H   -0.6122280834    1.7733829847    0.7108332163
 H   -2.3040421844    0.6687171200   -0.5775311855
 H   -3.0289326590   -2.3230756428   -0.2544306491
 H    0.1223791224   -3.9056433052    0.0721760762
 H    2.2090141678   -2.5410738921    0.1401032330
 H    2.0824579534   -0.0620258318    0.0679817010