20

 C    0.0547725682    1.5866001162    0.2524777009
 C   -0.0184460490    0.0809890594   -0.0626455875
 C   -1.4055018020   -0.4478512743   -0.1714745823
 C   -2.1863368453   -0.8502119209   -1.2173117757
 N   -1.8948386096   -0.8313950419   -2.5942158963
 C   -3.4644655977   -1.2318629766   -0.6666638967
 C   -4.6463223642   -1.7341143232   -1.4329534345
 C   -3.3528720045   -1.0238705164    0.6710179029
 O   -2.1265280271   -0.5455457527    0.9958964329
 H    1.0941374791    1.9181091285    0.3442556807
 H   -0.4263691812    2.1745062526   -0.5350551923
 H   -0.4574255241    1.8050980493    1.1937601564
 H    0.5057777032   -0.1243040071   -1.0042614491
 H    0.5228949810   -0.4758315400    0.7135853427
 H   -0.9080285546   -0.7016783576   -2.7803738536
 H   -2.2027864075   -1.6758536353   -3.0624376128
 H   -4.4385072213   -2.6917064061   -1.9284075563
 H   -5.5066328963   -1.8886495810   -0.7760156265
 H   -4.9425302334   -1.0273307514   -2.2168437741
 H   -4.0383786635   -1.1661789414    1.4911458812