17

 N    0.0335009604   -1.0879048447   -0.0499990177
 C    0.0055499924    0.0667745027   -0.0211492428
 C    0.0049865905    1.5167269928    0.0252468854
 C   -0.6822425440    2.1906344862    1.2454446559
 C   -0.4567286126    3.6186686438    0.7696735490
 C    0.8604083807    3.6377005761   -0.0000329707
 C    1.4021331559    2.2167425767    0.0234739169
 C   -0.4685056061    3.5477059104   -0.7366117960
 N   -0.7401863534    2.1554574532   -1.0914336739
 H   -1.7368520434    1.9152241325    1.3066688990
 H   -0.1795663543    1.9483136755    2.1846033075
 H   -0.8268514881    4.4787132287    1.3100197288
 H    1.4995586480    4.5089220576   -0.0409793394
 H    1.9846401107    1.9772567278    0.9169319893
 H    1.9868036979    1.9544690847   -0.8637962876
 H   -0.8688832420    4.3231209811   -1.3744223669
 H   -0.2961431325    1.9184665149   -1.9772525668