15

 O    0.4126150920   -0.0281412714    0.5090105664
 C    0.1502595698    1.1229069795    0.2311862117
 C    1.1909765485    2.0901520394   -0.0699362853
 C    2.0356739234    2.9106508503   -0.3199739277
 C   -1.2672189790    1.6435828151    0.1245598331
 C   -1.8804079766    1.5451585703   -1.3246993701
 C   -3.0950747059    0.8486011264   -0.6811534023
 O   -4.1964709828    0.6014641980   -1.0721934413
 C   -2.3813225407    0.7056804278    0.6670273513
 H    2.7967355284    3.6203524004   -0.5383934565
 H   -1.3227383387    2.6652925963    0.5047103289
 H   -2.0792598867    2.4781834026   -1.8556048653
 H   -1.3240999419    0.8708880318   -1.9841038756
 H   -1.9967439527   -0.3082951850    0.8213397018
 H   -2.9353901471    1.0210778986    1.5534414708