16

 C    0.0520803447    1.4844038906   -0.0065176400
 C   -0.0464400817   -0.0136550217   -0.0121211746
 C   -1.2060954612   -0.7154585617    0.0713543921
 C   -1.2145129605   -2.1612354645    0.0593304252
 N   -2.2928657690   -2.8612817201    0.1368893172
 C    0.1507780987   -2.7166254185   -0.0513563904
 O    0.2298367911   -4.0626557458   -0.0693373938
 N    1.2477891763   -2.0415054353   -0.1302250626
 N    1.1365011218   -0.6885532843   -0.1095391086
 H    0.6549072967    1.8393298544    0.8374404127
 H    0.5193412980    1.8548708952   -0.9263269709
 H   -0.9407308467    1.9283987387    0.0737129191
 H   -2.1547745278   -0.2004025055    0.1492385073
 H   -2.0616152290   -3.8549956675    0.1102797906
 H    1.1654104947   -4.2951593766   -0.1435267314
 H    2.0154670340   -0.2049565874   -0.1732754619