19

 C   -0.0174911051    1.4951978546    0.1503706031
 C    0.0335633022   -0.0232314899    0.0741487755
 O    1.0786825948   -0.6458713053    0.1760436695
 N   -1.1583728380   -0.6618200766   -0.1172444225
 C   -2.4756972262   -0.0356649677   -0.2399725536
 C   -3.3409012487   -1.1322456080   -0.8267437810
 N   -2.8030846961   -1.6569704544   -2.0970930458
 C   -2.5613141795   -2.3923946546   -0.8385483553
 C   -1.1925949885   -2.1215272747   -0.2550305456
 H    0.9849544104    1.8536253283    0.3816290055
 H   -0.3400050077    1.9263292793   -0.8036018372
 H   -0.7145217279    1.8416801985    0.9201254789
 H   -2.8776570950    0.2772089373    0.7352945089
 H   -2.4350549347    0.8438217558   -0.8903359967
 H   -4.4122530980   -1.1063594167   -0.6617774994
 H   -3.5517177164   -2.1138876395   -2.6125129212
 H   -3.0241980572   -3.3607423090   -0.6851652349
 H   -0.3691284999   -2.4474988042   -0.8951023442
 H   -1.0796379186   -2.6201997130    0.7171621460