18

 C    0.0268718936    1.3212372033    0.0432313281
 O    0.0686411087   -0.0893069120   -0.0523370568
 C    0.7048566043   -0.5615926601   -1.1742958391
 C    0.2874148989   -0.4005735439   -2.6737671362
 C    1.5433272015   -1.3129855517   -2.6703201295
 C    2.1896268214   -0.3450358615   -1.6365835928
 C    0.8830532533   -2.0630589860   -1.4656409657
 O    1.6842702833   -2.7660859401   -0.5545068182
 H    1.0358066481    1.7558234607    0.0718638348
 H   -0.5235026954    1.7695967690   -0.7961693995
 H   -0.4895444255    1.5624580869    0.9746860680
 H   -0.6611704070   -0.8548217839   -2.9740697193
 H    0.4231301101    0.5883784867   -3.1153953177
 H    2.0233731282   -1.7571528531   -3.5393196227
 H    2.4485184828    0.6487528310   -2.0098513057
 H    2.9611835914   -0.7638081761   -0.9925241308
 H   -0.0418186326   -2.6069910879   -1.7007441523
 H    1.8681478449   -3.6347671612   -0.9245035745