19

 O   -0.0952871811    1.4882341795    0.0109558458
 C    0.0269503897    0.0740820731    0.0023533368
 C   -1.3775296219   -0.5156275405    0.0124055514
 C   -1.3777168684   -2.0455388407    0.0043660171
 C   -2.8087392114   -2.6254621852    0.0145964808
 C   -2.8371572314   -4.0795270247    0.0071798852
 C   -2.8372226175   -5.2900621920    0.0009749940
 C   -2.8381529595   -6.6509834392   -0.0063533612
 C   -2.8399760579   -7.8587827406   -0.0130693373
 H    0.7883115914    1.8676047588    0.0046469543
 H    0.5703073366   -0.2743715292   -0.8914520767
 H    0.5869503890   -0.2837214996    0.8820814375
 H   -1.9043943305   -0.1406022023    0.8986546403
 H   -1.9208448547   -0.1313746573   -0.8598475724
 H   -0.8507775539   -2.4211110756   -0.8806220213
 H   -0.8344713171   -2.4303236611    0.8754268528
 H   -3.3456014418   -2.2558941925    0.8987360622
 H   -3.3618961534   -2.2466954517   -0.8555025213
 H   -2.8411855264   -8.9201359691   -0.0188083880