15

 N   -0.1136646640    1.2309730368   -0.1659828532
 C   -0.0237595491   -0.1231740426   -0.1053859609
 O    0.9831406986   -0.7366388898   -0.4116286639
 C   -1.2786318102   -0.8276264932    0.4135371333
 N   -1.0520623825   -2.2520007183    0.4172108414
 C   -2.0753514086   -3.0910731634    0.0288443785
 N   -1.6711187210   -4.3999465386   -0.1893125650
 O   -3.2257357518   -2.7197373227   -0.1239556154
 H    0.6644010175    1.7464895562   -0.5431236879
 H   -0.9785875419    1.7154029441    0.0008120380
 H   -1.5029684781   -0.4455252534    1.4197655030
 H   -2.1464065399   -0.5913597697   -0.2134244860
 H   -0.1025875644   -2.4874867646    0.1508955076
 H   -0.8741124574   -4.7367098106    0.3291915150
 H   -2.4437062371   -5.0463210303   -0.2326141942