18

 O   -0.0920534304    1.4263868466    0.0163268864
 C    0.0051114537    0.0494567801   -0.0247026286
 C   -0.1740936061   -0.8240012963    1.1984479127
 C   -1.1292379382   -0.9760300425    0.0419156070
 O   -2.4927285092   -0.8644836650    0.2303550905
 C   -0.4718029523   -1.7690926882   -1.0705662010
 C   -0.5349279970   -3.2218263382   -1.3199626138
 N   -1.1853165265   -2.2576852845   -2.2443487004
 C    0.6792412552   -0.7417815707   -1.1605062264
 H    0.6179233665    1.7705353779    0.5691227545
 H    0.5361733686   -1.6052752569    1.4615377082
 H   -0.6219675230   -0.2994677603    2.0375559523
 H   -2.8417987838   -0.2651670709   -0.4393691401
 H    0.3174222716   -3.7451826716   -1.7447418784
 H   -1.1655574339   -3.8256123740   -0.6719175812
 H   -2.1861888313   -2.2403161499   -2.0501551372
 H    0.6488518135   -0.2038184126   -2.1110064855
 H    1.6932320625   -1.1097715832   -0.9721106289