23

 C   -0.2313140481    1.5223602642   -0.2311424998
 C   -0.2171433168   -0.0054774114   -0.3252020834
 C    0.9859507113   -0.5456088353   -1.1109559432
 C    1.0042766266   -2.0593736869   -1.1859518291
 C    0.2367854304   -2.7963467377   -2.2597842855
 C    1.7448310741   -2.8152906339   -2.2688219756
 C    2.5109647633   -2.1160170747   -3.3493552319
 C    2.2797136730   -2.3956200206   -4.7746559806
 O    1.8085052356   -1.1852610220   -4.1775369592
 H    0.6702025632    1.8973847837    0.2665176143
 H   -0.2710586304    1.9788990091   -1.2263818033
 H   -1.0969565356    1.8811098048    0.3347326612
 H   -0.2139980872   -0.4358245980    0.6853769371
 H   -1.1422705084   -0.3557769501   -0.8002655533
 H    0.9802034433   -0.1256018518   -2.1222623473
 H    1.9117979697   -0.1916247214   -0.6351230732
 H    1.0168979238   -2.5450225141   -0.2118761497
 H   -0.2945998758   -3.7062628690   -2.0040923565
 H   -0.2367497725   -2.1886879104   -3.0240049515
 H    2.2269216282   -3.7379551616   -1.9527787482
 H    3.5087601861   -1.7740174612   -3.0670817233
 H    3.0885255835   -2.2745236955   -5.4936621989
 H    1.5038699328   -3.1065610562   -5.0540731494