18

 C   -0.0140808872    1.4953057589    0.0628194914
 C   -0.0278065693    0.0013481128   -0.0051395273
 C   -0.0150628922   -0.7740049134   -1.0950386888
 C   -0.0204747299   -2.2506627128   -0.7686667529
 C    0.0345765994   -2.2760001728    0.7578168209
 C    1.2568537000   -1.6873082371    1.4519833638
 C    2.4744791543   -1.4231834188    0.7395579984
 N    3.4664374850   -1.2278916475    0.1763651556
 C   -0.0065287535   -0.8447624769    1.2314466075
 H    0.8930804739    1.8589813989    0.5608949831
 H   -0.0561647174    1.9402174589   -0.9343745128
 H   -0.8656289750    1.8744870642    0.6417203927
 H    0.0363062625   -0.4062914980   -2.1135706529
 H   -0.9305208302   -2.7462052636   -1.1307307150
 H    0.8257346818   -2.7782692665   -1.2262984546
 H   -0.4749567443   -3.0663191653    1.2952548213
 H    1.4178536376   -2.0337573587    2.4681782766
 H   -0.5366647457   -0.5289018422    2.1238355329