18

 C    0.1274547495    1.5510431029   -0.1427553063
 C    0.0333804411    0.0453088287    0.0248514734
 O    0.6139618784   -0.5977589668   -1.1356659983
 C    1.1308316702   -1.8214219265   -0.8071556630
 N    1.4079065591   -2.7417810426   -1.6232441305
 C    1.3652758149   -1.8837828424    0.6894337266
 O    2.6985949590   -1.4454075025    1.0343122402
 C    2.2031415930   -0.1843366382    1.5334022791
 C    0.7406807275   -0.5817251123    1.2346341918
 H    1.1665804845    1.8802856307   -0.2200041289
 H   -0.3959951414    1.8628726268   -1.0502210091
 H   -0.3370878583    2.0539367136    0.7112206107
 H   -1.0261027061   -0.2464819130    0.0571594202
 H    1.1853454658   -2.4562199018   -2.5792703232
 H    1.1247728464   -2.8598180138    1.1149081929
 H    2.4385923095   -0.0502539092    2.5952652061
 H    2.6038939775    0.6659727013    0.9703333827
 H    0.0902455693   -0.6493566649    2.1057730657