23

 C   -0.1198452605    1.6118757522   -0.0614169668
 C    1.4218926935    1.6114234762   -0.0409631534
 C    2.1117633446    2.2074524722    1.1878028246
 C    2.1215011127    1.3384519761    2.4586282112
 C    0.7887266737    0.7853635896    3.0136320848
 C    0.3446738329   -0.5902419060    2.4652246024
 C   -0.5265452967   -0.6563388641    1.1976042814
 C    0.0068371479    0.0754303178   -0.0357068290
 O    1.4559555073    0.1600621505   -0.0861926671
 H   -0.6065813013    2.0632520924    0.8046541245
 H   -0.5658178249    2.0196250532   -0.9702372044
 H    1.8685560661    2.0281516330   -0.9526772781
 H    3.1565890569    2.4337638635    0.9419283236
 H    1.6350059149    3.1763862204    1.3926609183
 H    2.7952090794    0.4908159701    2.2913823690
 H    2.5916064204    1.9458860080    3.2415774360
 H    0.9308124214    0.6581596125    4.0933993755
 H   -0.0156048421    1.5260341679    2.9178258476
 H    1.2440248119   -1.1929467566    2.2971319475
 H   -0.2195725372   -1.1055757847    3.2520163232
 H   -0.6674412925   -1.7170802145    0.9561339253
 H   -1.5305360509   -0.2596970908    1.4044257119
 H   -0.3750491378   -0.4072050187   -0.9443426679