23

 C   -0.0418912554    1.5122680003    0.0949952696
 C   -0.2052165487   -0.0155499654    0.0603742256
 C   -1.6908564133   -0.4054188913    0.0085733943
 C    0.5441989854   -0.5995570897   -1.1349160848
 C    2.0926045731   -0.6538564257   -1.2455617058
 C    2.1549272718   -1.8151324844   -0.2305565022
 C    1.0110305649   -2.0913693432   -1.2467472996
 C    0.2209792997   -3.3426404295   -1.4763450324
 O    1.9409368503   -1.6525463925   -2.3266045660
 H    1.0105215271    1.8020248149    0.1787299107
 H   -0.4411180108    1.9690446702   -0.8182588230
 H   -0.5785782707    1.9459587453    0.9452533890
 H    0.2135458375   -0.4171534016    0.9911614047
 H   -2.1635400604   -0.0227818991   -0.9037008589
 H   -1.8254570559   -1.4916460193    0.0213846063
 H   -2.2354380766    0.0092466010    0.8632676090
 H    0.0992342417   -0.2617594519   -2.0779651818
 H    2.8044527719    0.1548227978   -1.4131961903
 H    3.0225436248   -2.4677426709   -0.3395209234
 H    1.9023678235   -1.6254675721    0.8147072016
 H   -0.3890228043   -3.5770233219   -0.5983670317
 H   -0.4420139892   -3.2277786626   -2.3392452496
 H    0.8920779735   -4.1865570085   -1.6640388015