22

 C   -0.5317098373    1.5588809800    0.0500416752
 C    0.5837030881    2.6105506151   -0.0732599933
 C    1.4360531933    2.6078978347   -1.3602657538
 C    2.6726860623    1.7116399428   -1.3705399167
 N    2.8762851422    0.7696068754   -0.2646455578
 C    2.6189747383    0.2271343825   -1.6118139202
 C    1.3545785048   -0.4774566322   -1.9222824335
 C    0.2186590326   -0.5284733838   -1.2216957232
 C   -0.0826850475    0.0794274832    0.1251070935
 H   -1.0942219398    1.7887243266    0.9637483279
 H   -1.2400365756    1.6804272895   -0.7808324506
 H    0.1000372015    3.5928992207   -0.0067114416
 H    1.2503676838    2.5330499402    0.7923053185
 H    0.8023400556    2.3609820797   -2.2216868954
 H    1.7880152703    3.6317040986   -1.5313880254
 H    3.5665298209    2.1982783137   -1.7580599536
 H    3.8621549474    0.6818349388   -0.0378184581
 H    3.4815329795   -0.1761747598   -2.1402241444
 H    1.3681677677   -0.9654193885   -2.8956721243
 H   -0.6140173410   -1.0525929905   -1.6888696802
 H    0.7861437773    0.0057082477    0.7809573565
 H   -0.8929662046   -0.4984621445    0.5842625708