20

 C   -0.1560498479    1.5339687340   -0.1379550852
 C    0.0589133995    0.0186724795    0.0344329210
 C    0.7012288553   -0.5397290464   -1.1597216252
 N    1.1972849952   -0.9851061788   -2.1037610160
 C    0.8910289664   -0.3496077792    1.3026692825
 O    2.1581837517    0.2888080169    1.2781239003
 C    0.1274539099   -0.0823846182    2.5798404379
 C   -0.7902103226   -1.1376686170    3.1493331597
 C    0.5127120622   -0.8205405373    3.8360707948
 H    0.8057562872    2.0477698786   -0.2067704754
 H   -0.7170183197    1.7420533227   -1.0515844364
 H   -0.7203368440    1.9417757321    0.7047743027
 H   -0.9161621906   -0.4746393890    0.1334164796
 H    1.1067955868   -1.4232753956    1.2482037955
 H    2.0749295521    1.1461066147    1.7072056195
 H   -0.1935949494    0.9489287927    2.7106662436
 H   -1.7148490218   -0.8153945077    3.6143512599
 H   -0.8661556216   -2.0819713510    2.6198486014
 H    1.3164699619   -1.5451357348    3.7628271913
 H    0.4827046595   -0.2824907362    4.7766715184