19

 C    0.5561726764    0.7642809872    0.4406863624
 O   -0.4829483093    0.4969122684   -0.4978969810
 C   -1.5141479177   -0.4049169452   -0.0994094560
 C   -2.3500349340    0.0800870689    1.0970109983
 O   -1.6904587735    0.0039471128    2.3431714285
 C   -2.4095483469   -0.4962488243   -1.3589915653
 O   -1.6577669581   -0.7766414524   -2.5154789695
 C   -0.8964246392   -1.7839610368    0.1435486229
 O   -1.0678866308   -2.4491295050    1.1386115741
 H    1.2670453014    1.4131930428   -0.0757152495
 H    0.1765755354    1.2608822135    1.3368006229
 H    1.0753543454   -0.1533715049    0.7494142473
 H   -2.5977141213    1.1333344452    0.9307350607
 H   -3.2956133021   -0.4854786630    1.1079569237
 H   -1.5110767206   -0.9345967295    2.4891099408
 H   -3.1433869229   -1.2999914209   -1.2422062441
 H   -2.9591075922    0.4552295567   -1.4464843349
 H   -0.9271732481   -0.1449374642   -2.5079742542
 H   -0.2662944719   -2.1464065196   -0.6929787371