19

 C    0.0096280026    1.4705608685   -0.0107320838
 C   -0.0111352879   -0.0385125100    0.0436362020
 C   -1.2571793387   -0.7925777813   -0.3212376464
 C   -1.2274513178   -2.0139844412    0.2188559212
 C    0.1239539127   -2.2216562129    0.8609528558
 C    0.6513595989   -0.7828640456    1.1733674836
 C    1.3413018045   -0.7584250399   -0.1742321851
 C    1.1970391241   -2.2648139949   -0.3092214783
 O    2.4202179271   -2.8569991979    0.0796561312
 H    0.9529272190    1.8690314866    0.3762207140
 H   -0.1066117959    1.8350868119   -1.0377451592
 H   -0.8037731219    1.8951458319    0.5882361028
 H   -2.0376812859   -0.3770892808   -0.9476926071
 H   -1.9582309042   -2.8007851155    0.0764233523
 H    0.2242655402   -3.0125909338    1.6040355973
 H    0.9406056342   -0.3580260911    2.1273848828
 H    2.2123390382   -0.1999367731   -0.4966413689
 H    0.8420339180   -2.6750510589   -1.2662191314
 H    2.2754039928   -3.8067133322    0.1459249374