17

 C   -0.2516604153    1.5065557161    0.0220317892
 C    0.0596974680    0.0192116141   -0.0282336117
 O    1.0441340657   -0.2232362211   -1.0773970977
 C    2.0904325411   -0.8300382006   -0.4688807683
 N    2.0414422943   -1.0744204234    0.7743786066
 C    0.7474682786   -0.5880527437    1.2119218634
 C    0.6317879829   -0.0387659444    2.6098636344
 C    0.0144863068   -1.3732350401    2.2651084513
 H    0.6319193934    2.0787752018    0.3185499022
 H   -0.5854694923    1.8569016396   -0.9584403422
 H   -1.0506835343    1.7045278411    0.7432891417
 H   -0.8375364484   -0.5456199797   -0.3064295170
 H    2.9202471483   -1.0644773270   -1.1257261782
 H    1.5386458877   -0.0359744064    3.2031163289
 H   -0.0282503153    0.8042022414    2.7821790260
 H   -1.0672955001   -1.4317797561    2.1884215260
 H    0.4968695488   -2.2715054418    2.6323631554