20

 C   -0.0005058947    1.5046446513    0.0450603838
 C   -0.0028799092    0.0062062003   -0.0159811953
 C   -0.0190630057   -0.7051317575   -1.1470144365
 C   -0.0197917889   -2.2163253297   -1.0893787952
 C   -0.0002856813   -2.6943373249    0.3724174221
 C   -1.0563456843   -1.9082198270    1.2038023618
 C    0.0141722633   -0.7779416216    1.2885689382
 C    1.0796921927   -1.9103713911    1.1745960970
 H    0.8857542108    1.8791405122    0.5744168274
 H   -0.0139735560    1.9499883473   -0.9537502946
 H   -0.8708870807    1.8809289994    0.5989206728
 H   -0.0318974640   -0.2209824368   -2.1204305922
 H   -0.9037843049   -2.6178537788   -1.6059818225
 H    0.8489410098   -2.6196117015   -1.6299435936
 H   -0.0005020608   -3.7852709174    0.4369890440
 H   -2.0125208554   -1.6651547602    0.7328152619
 H   -1.2290911560   -2.3787502410    2.1757693510
 H    0.0268460701   -0.1301802710    2.1677508827
 H    1.2780012807   -2.3812759749    2.1414891483
 H    2.0231204244   -1.6692209370    0.6776347188