21

 C    0.0344883927    1.5150003041   -0.0962429895
 O    1.3078632737    1.5780607835    0.5789308146
 C    1.4823013816    0.1507630224    0.4821881588
 C    0.0221736328   -0.0218350934   -0.0307412422
 C   -0.9593655374   -0.6362959376    0.9672192354
 C   -0.8209358729   -2.1647363611    1.0009139551
 C   -0.9235557870   -2.7255341558   -0.4231747347
 C    0.0676592365   -2.0032761412   -1.3353815123
 O   -0.1206178621   -0.5928641410   -1.3149277134
 H   -0.7530801482    2.0416417239    0.4552573964
 H    0.0860497660    1.8912909665   -1.1252718137
 H    2.2394030002   -0.1240831902   -0.2640282994
 H    1.7383452843   -0.2969767099    1.4496619634
 H   -0.7971086059   -0.1987813812    1.9582745592
 H   -1.9761603349   -0.3650258121    0.6544040979
 H    0.1533466625   -2.4365839458    1.4301792856
 H   -1.5825258301   -2.6046691690    1.6527381992
 H   -0.7230515682   -3.8026950837   -0.4406891108
 H   -1.9388120144   -2.5743548486   -0.8101630049
 H    1.1000907015   -2.2492072526   -1.0329213019
 H   -0.0516721007   -2.3045886072   -2.3797172627