25

 C    0.0554733211    1.5985836303    0.0823206676
 C   -0.0066773049    0.0681660313   -0.0186592363
 C    0.6276538094   -0.4553506534   -1.3211296996
 C    0.0819516515   -1.8239161908   -1.7660489813
 C    0.4781729974   -3.0231749401   -0.8931561716
 C    0.2353839849   -2.8442453011    0.6116407376
 C    0.4961695700   -4.1292193904    1.3934318644
 O    1.1354585312   -1.8572638074    1.1143631697
 C    0.6366531632   -0.5430500579    1.2452652004
 H    1.0909915630    1.9526991770    0.0153268163
 H   -0.5136366205    2.0717720870   -0.7239589085
 H   -0.3552605467    1.9546002100    1.0339304806
 H   -1.0680346402   -0.2156433247   -0.0376839119
 H    0.4213572299    0.2670852484   -2.1205606564
 H    1.7192501340   -0.4969755607   -1.2152014007
 H   -1.0144647899   -1.7569759686   -1.8110451338
 H    0.4109106022   -2.0233153803   -2.7930565230
 H   -0.0604603360   -3.9124974511   -1.2443702218
 H    1.5484916507   -3.2333519397   -1.0160254247
 H   -0.8043714133   -2.5264871308    0.7897760345
 H    1.5323508200   -4.4531455636    1.2523638494
 H    0.3354942372   -3.9643501901    2.4623553269
 H   -0.1665937756   -4.9339094625    1.0603003209
 H    1.5115629493    0.0545119742    1.5287709715
 H   -0.0815885481   -0.4818940250    2.0809469698