13

 C   -0.0001938351    1.3947682341    0.0121997408
 C    1.4196924419    1.9538415221    0.0357657238
 O    2.1294385381    1.5621686939    1.2272806086
 C    1.9208841893    0.2649953679    1.4943446082
 N    2.6101211504   -0.4711160680    2.3121316320
 O    2.0062687407   -1.7124938705    2.2440671566
 N    0.9334510484   -1.7287024763    1.3728296835
 C    0.8766288268   -0.5158601540    0.9129790072
 O   -0.0082153803   -0.0463064506    0.0218754396
 H   -0.5685143453    1.7624915656    0.8751635882
 H   -0.5086650829    1.6931862552   -0.9060770660
 H    1.9784236949    1.6111417304   -0.8436037172
 H    1.3962140630    3.0448137904    0.0434240147