18

 O   -0.0708460535   -0.0228186231    0.0233441034
 C    0.0010307236    1.1796892666    0.0692729495
 C    1.2976340950    1.9628525865    0.0101973676
 C    1.4051035239    2.8688731047   -1.2309857768
 C    0.4491726626    4.0176419370   -1.4594069640
 C    1.7728307232    4.2755820835   -0.7867247291
 C    1.7828794648    4.2680764714    0.7265774671
 N    0.4764814408    3.9554214305    1.3440249445
 C    1.4925450331    2.8912744883    1.2141290444
 H   -0.9081152169    1.8108684550    0.1591599970
 H    2.1139154465    1.2339789740   -0.0098384607
 H    1.8608497929    2.4244544323   -2.1084569724
 H    0.3389012749    4.3466732648   -2.4870801648
 H   -0.4387752106    4.1099525096   -0.8480103505
 H    2.5404852278    4.8475456827   -1.2937491983
 H    2.4639588220    4.9265810394    1.2539817332
 H    0.4554018157    4.2887802911    2.3041872561
 H    1.9341452344    2.4813108157    2.1168937337