11

 C   -0.0117024135    1.5406295138   -0.0622483041
 C   -0.0262207852    0.0374078102    0.1659024986
 O   -0.0925050695   -0.4777585769    1.2498065622
 N    0.0489958611   -0.6938516007   -1.0358432901
 C    0.0614720786   -2.0769532621   -1.2001423424
 O    0.0094511280   -2.9035706566   -0.3336996281
 H    0.9081679850    1.8488212355   -0.5708729173
 H   -0.8576979015    1.8489248941   -0.6859866927
 H   -0.0745421561    2.0391846565    0.9039579644
 H    0.1012365975   -0.1581045414   -1.8901725168
 H    0.1281999957   -2.3274673623   -2.2795691436