23

 C   -0.0302149121    1.5084707124   -0.2532759632
 C   -0.0671187585    0.0728466112    0.2841756362
 C   -1.4359405677   -0.5631957991    0.1595237578
 C   -1.8584605745   -1.2383913770   -1.1278918021
 C   -1.6259939533   -2.0571848121    0.1053379308
 C   -0.5730086546   -3.1339944559    0.4060802716
 C   -1.4867174038   -3.6392510087    1.5617749634
 C   -2.6598016305   -2.8142995388    0.9581730032
 O   -3.5201230940   -2.0970970418    1.8076693884
 H    0.9684098819    1.9453133833   -0.1535495772
 H   -0.3087900702    1.5372537183   -1.3116947582
 H   -0.7315907924    2.1513739070    0.2898682379
 H    0.6672824445   -0.5377241215   -0.2554273291
 H    0.2496935058    0.0685929040    1.3362834221
 H   -2.2312078646   -0.0239513341    0.6734100171
 H   -2.8799720173   -1.1090315597   -1.4729952112
 H   -1.1214306198   -1.3043551965   -1.9240863557
 H   -0.4751064794   -3.8646478757   -0.4025369336
 H    0.4270472128   -2.7942351822    0.6861649681
 H   -1.6299803830   -4.7164531632    1.6706021145
 H   -1.1809141482   -3.2273601814    2.5293121465
 H   -3.3160758835   -3.4367134821    0.3404088163
 H   -2.9726413776   -1.5410034066    2.3730103163