20

 C   -1.0370462184    1.0464287759   -1.0972431173
 C   -0.0516822490   -0.0524646439   -0.7598136327
 O    1.2817034966    0.2210173222   -1.2492587127
 C    1.8778404424   -0.3173344627   -0.0454447752
 C    3.0734566510    0.4788351300    0.4305930311
 C    0.5087083109   -0.2748488271    0.6809293527
 C    0.2969164937    0.8630017289    1.6680169881
 O    0.2108271999   -1.5256770051    1.2703940653
 H   -0.7108374041    2.0161522794   -0.7123713795
 H   -1.1381719193    1.1321739825   -2.1838944088
 H   -2.0265953817    0.8178779398   -0.6861240164
 H   -0.4122760068   -1.0176608998   -1.1473106764
 H    2.1606341854   -1.3700461042   -0.1943566470
 H    2.8205819982    1.5288444597    0.5997535409
 H    3.4695279484    0.0550737626    1.3594349375
 H    3.8664022364    0.4398410437   -0.3228952175
 H    0.5754176691    1.8303425512    1.2436966837
 H   -0.7578849051    0.9260452129    1.9635559330
 H    0.8940765878    0.6963435991    2.5695570967
 H   -0.5979331755   -1.4358356250    1.7852464046