21

 C    0.7501863946    1.6607501118    0.7046659658
 C    0.4115650093    0.2382441064    0.2559732218
 C   -1.0923732002    0.0126919120    0.0418123456
 C   -1.3781713405   -1.3965956048   -0.5053148603
 N   -1.7847573608    0.1965687128    1.3113884812
 C   -3.0151611973    0.5507013324    1.3221099609
 N   -3.8833927221    0.7820638597    0.2900061490
 C   -3.6310555221    0.7289714092    2.6784257384
 O   -4.7556641132    1.1370399831    2.8447974594
 H    1.8247577470    1.7782729884    0.8744980838
 H    0.4511458632    2.3971778419   -0.0507337999
 H    0.2288050941    1.9031500337    1.6349892149
 H    0.9377490382    0.0035008937   -0.6775745691
 H    0.7570849351   -0.4813732617    1.0081178548
 H   -1.4339546156    0.7515878400   -0.7082778430
 H   -2.4479318578   -1.5468187193   -0.6772964056
 H   -0.8505031980   -1.5559303115   -1.4509578839
 H   -1.0411840094   -2.1518696326    0.2110657519
 H   -3.5306458513    0.9521757599   -0.6361839362
 H   -4.7408118442    1.2473215715    0.5509489766
 H   -2.9448213787    0.4663519836    3.5046797838