25

 C    0.0279455780    1.6046415807   -0.0448954788
 C    0.0007405952    0.0779446644    0.0575300619
 C   -1.4191475816   -0.5042746154    0.0376233141
 O   -2.1267223235   -0.1041485051   -1.1381016090
 C   -1.4300692452   -2.0276040198    0.2171983994
 C   -2.8217680406   -2.6475529552    0.2556120405
 C   -3.6514151689   -2.8046063775   -1.0509307282
 C   -4.1496487151   -4.1773602821   -0.5260148788
 C   -2.9510732207   -4.1841814704    0.4609368623
 H    1.0538846941    1.9825088180   -0.0878908201
 H   -0.5024347134    1.9383120483   -0.9404739305
 H   -0.4620589789    2.0652253600    0.8202037245
 H    0.5700292168   -0.3632981372   -0.7741415628
 H    0.5041444308   -0.2487234369    0.9761900015
 H   -1.9945094854   -0.0514389570    0.8570432319
 H   -1.6872563084   -0.5115513182   -1.8931680785
 H   -0.8437861493   -2.4899148379   -0.5927936217
 H   -0.8999589238   -2.2698467614    1.1488346116
 H   -3.4286090095   -2.1284876560    1.0082438672
 H   -4.3881113904   -2.0337985448   -1.2825780632
 H   -2.9956961651   -2.9266370894   -1.9203387555
 H   -5.1048770067   -4.0873644053   -0.0002383046
 H   -4.2256527484   -5.0013660162   -1.2395931563
 H   -2.0884562749   -4.7116256919    0.0387155944
 H   -3.1175656950   -4.5534089138    1.4765124885