17

 C   -0.1036507467    1.5358128212   -0.0366822018
 O   -0.2041708368    0.1228417460   -0.0576400177
 C    0.5925874543   -0.5180446964   -1.0287166358
 C    2.1409664506   -0.5401392940   -0.7135738474
 C    2.0584146354   -2.0730092851   -0.6808948763
 O    2.8786610506   -2.9404786636   -0.6233451212
 C    0.5310622076   -2.0660226330   -0.8130821664
 C    0.2812120562   -0.0968036631   -2.3925851730
 C    0.0305791181    0.2458981926   -3.5174780353
 H    0.9250560929    1.8677316441    0.1661129165
 H   -0.4352835217    1.9788097128   -0.9838972249
 H   -0.7519445970    1.8803544686    0.7713732400
 H    2.8180524254   -0.1114599255   -1.4546414036
 H    2.3571773542   -0.1163325742    0.2722449502
 H    0.0220184201   -2.3028429468    0.1259924652
 H    0.1103667495   -2.6658290746   -1.6215938316
 H   -0.1942002927    0.5446487411   -4.5119195470