17

 C   -0.3145578799    1.5525315561    0.1634000139
 C   -0.0799692652    0.0533910899    0.0071422416
 C    0.7582511658   -0.4787910869   -1.2023926952
 C    1.6399358544    0.4219612324   -2.1044717288
 N    3.0359608103    0.2021976573   -1.6638810463
 C    3.0194101328   -0.5631746560   -0.6502906768
 N    1.7509786907   -1.0474287720   -0.2415155310
 C    1.0513056668   -0.5145298020    0.8910765838
 O    1.3340253701   -0.4983732375    2.0498619801
 H    0.6132929282    2.1236671628    0.0642066091
 H   -1.0234156446    1.9175395137   -0.5859620245
 H   -0.7260121080    1.7614463815    1.1547617794
 H   -1.0209296451   -0.4902135714    0.1384402609
 H    0.2492610586   -1.2572522582   -1.7742561845
 H    1.5424673846    0.1473610688   -3.1581360180
 H    1.4143807352    1.4920470148   -2.0314782729
 H    3.9021597353   -0.8477352733   -0.0885686508