16

 N    0.2169653577    1.1833019974   -0.2996637393
 C   -0.0272061324    0.0177972114    0.3521302794
 O    0.6565172665   -0.3569494355    1.2919992988
 C   -1.2504610069   -0.7672116786   -0.1317160472
 C   -1.0161316621   -2.2430621406   -0.1949769741
 C   -1.4405356389   -3.2139292093   -1.0679730844
 N   -0.9933737018   -4.4539505445   -0.6744212638
 C   -0.3035490188   -4.2356647881    0.4234843381
 N   -0.2965340488   -2.9187524219    0.7654730940
 H    1.0037756417    1.7398769875   -0.0062114825
 H   -0.3039813861    1.4688074164   -1.1093174230
 H   -2.0514096147   -0.5290571777    0.5846662987
 H   -1.5949254540   -0.4144990377   -1.1079587527
 H   -2.0456014494   -3.0881901748   -1.9540257308
 H    0.2093020773   -4.9851043140    1.0076458587
 H    0.2277634906   -2.4399090701    1.4846205703