18

 C    0.2477704975    1.3940070169   -0.0740089811
 C    0.1446318125   -0.0866586186    0.0995073148
 O   -1.1028895551   -0.6986631355   -0.2136583614
 C   -0.9503580718   -1.6196167351    0.9082125723
 C    0.4413994865   -1.0675487849    1.2093817875
 C    1.2936179660   -1.0755629572   -0.0469322727
 C    1.3195433849   -2.1903527162   -1.0566078666
 N    2.2118147477   -1.9811182257   -2.0802953621
 O    0.6477340560   -3.2012896345   -0.9887167329
 H    1.2211429931    1.7596210958    0.2649284235
 H    0.1282282495    1.6655824728   -1.1291432941
 H   -0.5362558782    1.9038034114    0.4944528425
 H   -1.6751253814   -1.3742018477    1.6919152065
 H   -1.0285059986   -2.6609023600    0.5998775518
 H    0.8722292998   -0.9214486669    2.1912680954
 H    2.2560767203   -0.5908256503    0.1031025562
 H    2.5751674902   -1.0607073672   -2.2621459884
 H    2.1565492512   -2.6177495772   -2.8600896011