23

 C   -0.6294815331    1.4270254554    0.5442477202
 C    0.1231723512    0.1942457306    0.0221960768
 C    0.9580009832   -0.5035462778    1.0865664497
 C    0.2464735612   -1.2967647091    2.1726698086
 C    1.0360321128   -2.0461040698    1.1516546944
 C    0.3868056244   -2.9503687567    0.1290519829
 C    2.2564462742    0.1270744941    1.5216954226
 C    2.9153384698    1.1436834895    0.6025509468
 O    2.8025256946   -0.2082997570    2.5540774068
 H    0.0507762843    2.1849698598    0.9460370817
 H   -1.2136309306    1.8953714023   -0.2540723782
 H   -1.3181378220    1.1506763046    1.3488614149
 H   -0.6087451148   -0.5105039305   -0.3828283636
 H    0.7558961565    0.4789602790   -0.8264124756
 H    0.6509157710   -1.2117657962    3.1741973242
 H   -0.8363722263   -1.3397713284    2.1023767756
 H    2.0035681975   -2.3939373630    1.5024070027
 H   -0.6254285771   -2.6296258841   -0.1314522354
 H    0.9724422824   -3.0066693529   -0.7952012257
 H    0.3086240806   -3.9662818237    0.5320685257
 H    3.1003981197    0.7046253121   -0.3844462151
 H    2.2787525385    2.0198438279    0.4467492046
 H    3.8617004519    1.4549274141    1.0456642952