18

 C   -0.0492401948    1.3162833741   -0.2183260212
 O   -0.1492194593   -0.0916496054   -0.0938583017
 C   -1.4435254541   -0.6021495682    0.1792603829
 C   -2.0142009177   -0.0662658226    1.4926433736
 O   -2.3583524467   -0.2773482023   -0.8661097112
 C   -2.5541369813   -1.4016834073   -1.7185381525
 C   -1.9304987219   -2.5545984759   -0.9842785688
 C   -1.3168682346   -2.1076354161    0.1024618619
 H    0.9431325926    1.5209654910   -0.6275376474
 H   -0.8078074527    1.7115250803   -0.9036370209
 H   -0.1376363157    1.8298890678    0.7490348557
 H   -2.2496919723    0.9975759581    1.4095126512
 H   -2.9370204155   -0.5970389494    1.7373764300
 H   -1.2943519278   -0.2071228172    2.3038930011
 H   -3.6320236232   -1.5296559148   -1.8872706730
 H   -2.0837363797   -1.2400773917   -2.7011461323
 H   -1.9792022735   -3.5775628376   -1.3354899992
 H   -0.7495108518   -2.6752423128    0.8273252918