19

 O   -0.4898331688    0.2081246157   -0.0921956639
 C   -0.0235375151    1.3054797591    0.0684187598
 C    1.3555995701    1.7339114783   -0.3794640255
 C    1.3119571497    2.9769495265   -1.2673661764
 O    2.6389392187    3.4275666449   -1.4512837859
 C    2.7478194160    4.5256456691   -2.3153944189
 C    2.4676015657    5.9370624244   -1.7397799079
 O    3.8041989844    6.3665508074   -2.0681862351
 C    4.1889197385    5.0338294649   -2.4662169321
 H   -0.6067480904    2.1037838910    0.5860483644
 H    1.9367272612    1.9877345514    0.5180412569
 H    1.8483168858    0.9020072003   -0.8874642220
 H    0.8487301498    2.7405780525   -2.2389701894
 H    0.6969944512    3.7614122180   -0.7951042292
 H    2.2321433884    4.3259815081   -3.2648102563
 H    1.7061394457    6.5455870379   -2.2407151102
 H    2.2848159641    5.9341594196   -0.6565021524
 H    4.8759936010    4.5633428653   -1.7519603712
 H    4.6256993340    5.0112609657   -3.4702614348