21

 C    0.1408386889    1.4249037543    0.2632904169
 C    0.0546466464   -0.0823625629    0.0016071547
 C    0.7068547340   -0.5088215580   -1.3082308419
 O    0.0406798377    0.0262066238   -2.4444889100
 C    2.2702593198   -0.3845711869   -1.4372412739
 C    2.3640392562   -1.8863782197   -1.8221419251
 C    2.4991857939   -2.8364293382   -0.6228156461
 O    1.0703338787   -2.8120638996   -0.3832168753
 C    0.8377080595   -2.0326103071   -1.5727302634
 H    1.1802013543    1.7700454452    0.3034830068
 H   -0.3753763825    1.9996186590   -0.5144470960
 H   -0.3294264115    1.6837211417    1.2162349539
 H    0.5240287481   -0.6385474569    0.8187328915
 H   -0.9966935925   -0.3935501508   -0.0279713690
 H    0.1869310365    0.9780784877   -2.4558300426
 H    2.5662883151    0.2991431184   -2.2360408538
 H    2.8058217681   -0.1151620855   -0.5220633709
 H    2.8699512049   -2.1485275289   -2.7491648793
 H    2.8365732411   -3.8496808277   -0.8761115149
 H    3.0742984885   -2.4717289104    0.2379255174
 H    0.1013227048   -2.4757093578   -2.2476917889