19

 O   -0.0663529233   -0.0945331693   -0.0698901546
 C   -0.0508500895    1.1198628260   -0.0352246317
 C    1.2514298738    1.9052247815   -0.0085239562
 C    2.4944306913    1.0028435431   -0.0313317684
 C    3.7356826770    1.7658218816   -0.0048802028
 C    4.7456970932    2.4173021041    0.0175366946
 C   -1.3057831318    1.9244935251   -0.0163165950
 C   -2.5014422714    1.3709300116   -0.7801303791
 C   -2.5059928418    1.3287838294    0.7076623674
 H    1.2581746911    2.5975438640   -0.8605492280
 H    1.2530891977    2.5462811559    0.8827574593
 H    2.4547027844    0.3142636892    0.8199255616
 H    2.4602262179    0.3658084030   -0.9220600385
 H    5.6476228551    2.9769157948    0.0369165187
 H   -1.1875192091    3.0018254051    0.0145857692
 H   -3.1350560319    2.0876231013   -1.2895351830
 H   -2.3272738118    0.4388709844   -1.3051949478
 H   -2.3348747411    0.3684626066    1.1801712471
 H   -3.1428241998    2.0155895624    1.2529621071