23

 C   -0.0543513525    1.6748219098   -0.0162454209
 C   -0.0191804311    0.1357434577    0.0049373243
 C    0.6578413782   -0.4479219724   -1.2482633037
 C   -0.0035526999   -0.0750670885   -2.5700615285
 O    0.6346813964   -0.8304480359   -3.5896040207
 C    0.6609934968   -0.4267230949    1.2699816268
 O    2.0039893310    0.0483213372    1.4394322344
 C   -0.1077511791   -0.2062626245    2.5767102272
 O    0.5919182255   -0.7752767855    3.6636684445
 H    0.9516786903    2.0962639231   -0.1340264905
 H   -0.6507616539    2.0435379471   -0.8546294469
 H   -0.4933060404    2.0898140864    0.8956825115
 H   -1.0582846741   -0.2245403015    0.0315526491
 H    1.7100369201   -0.1429295506   -1.2716475662
 H    0.6548197679   -1.5424367743   -1.1825356350
 H   -1.0826804390   -0.3021739614   -2.5232210262
 H    0.0933014322    1.0038474401   -2.7648528814
 H    0.2602238069   -0.5702104592   -4.4361337943
 H    0.7803661167   -1.5096120617    1.1478658543
 H    1.9700140465    1.0104118925    1.4941276828
 H   -0.2803352718    0.8721837725    2.7400308401
 H   -1.0898822237   -0.6897872079    2.5250484919
 H    1.5231019371   -0.5799132883    3.4943684274