19

 C   -0.1084509265    1.4635133314   -0.3107309644
 C    0.0438452525    0.0277963534    0.1910871978
 O    0.7349257759   -0.0301436060    1.4364751448
 C   -1.3010400154   -0.6700035582    0.2810926712
 N   -1.7910925805   -1.3461399883   -0.9332947719
 C   -1.4854753386   -2.1435605999    0.2756652366
 C   -0.3760829793   -3.1558919393    0.1134505255
 O   -0.7934096815   -4.2301172636   -0.7144724318
 H    0.8677231265    1.9516513521   -0.3714060302
 H   -0.5736692946    1.4784776718   -1.3011492138
 H   -0.7425819676    2.0486063998    0.3683194166
 H    0.6757914400   -0.5248568155   -0.5092686747
 H    0.2438215504    0.5024737424    2.0718216893
 H   -2.0381880866   -0.1106801594    0.8617373149
 H   -2.7938063151   -1.2184324205   -1.0351335027
 H   -2.3408055246   -2.5207828576    0.8344947238
 H    0.5290036403   -2.6772858005   -0.2824030447
 H   -0.1209033116   -3.5924423641    1.0842699850
 H   -1.0683730139   -3.8294986478   -1.5475473014