21

 C   -0.2089603014    1.4463215498    0.2364407466
 C   -0.0880426444   -0.0441371454   -0.0876698094
 C   -1.4441581004   -0.7496330072   -0.1840844950
 C   -1.2747548634   -2.2201445027   -0.5690123211
 O   -2.5461910496   -2.8603899229   -0.6816555220
 C   -3.0101851049   -3.5123631048    0.4047032108
 O   -4.1162875814   -3.9599899476    0.4584576868
 O   -2.1072322141   -0.6950952160    1.0743497081
 C   -3.4024228459   -0.1196405371    1.0501728717
 H    0.7778103803    1.9099119364    0.3242311882
 H   -0.7598350508    1.9808223166   -0.5454439488
 H   -0.7360562348    1.5901366500    1.1833317543
 H    0.4494097031   -0.1822735807   -1.0344461231
 H    0.5045964808   -0.5437313751    0.6888228266
 H   -2.0608234242   -0.2604637679   -0.9517030079
 H   -0.7878901576   -2.3182962815   -1.5427847826
 H   -0.6591039323   -2.7293352930    0.1837881943
 H   -2.2576844078   -3.5949141612    1.2098719279
 H   -3.7774165763   -0.1435890235    2.0763273183
 H   -3.3747617539    0.9247283377    0.7088378657
 H   -4.0906776610   -0.6843733238    0.4082285410