19

 O   -0.1244114137    1.3881794290   -0.1071965096
 C   -0.0701107317    0.0029759149    0.0629317349
 C   -0.6128005062   -0.6269719907    1.3233763789
 C   -1.3887063169   -0.7111215988    0.0358583662
 C   -2.7229294808   -0.0434096306   -0.3063969975
 C   -2.9521748013   -1.1531823722   -1.3718255203
 C   -1.7434809090   -1.9648944382   -0.7989978113
 C   -0.7138789719   -2.4165769215   -1.7982525868
 O   -0.1731991556   -3.4935487084   -1.8029845089
 H    0.5299446716    1.7878760447    0.4752110399
 H    0.7853244270   -0.4842344062   -0.4066215427
 H   -0.1268673319   -1.5206194367    1.7032162750
 H   -1.0057549064    0.0425433254    2.0828267423
 H   -3.4450912860   -0.0811214986    0.5143385805
 H   -2.6565610572    0.9832274871   -0.6708956271
 H   -3.9133969166   -1.6690540595   -1.3559824576
 H   -2.7616323208   -0.8027972122   -2.3906017119
 H   -2.0375483855   -2.8154274853   -0.1788209250
 H   -0.4659111872   -1.6476283421   -2.5685482391