16

 C   -0.0566825750    1.6370993457    0.1542758802
 C   -0.0463184658    0.1044632473    0.0091818315
 C    0.7748241117   -0.5784509313    1.1246587058
 C    2.1673840336   -0.1410740084    1.1444010683
 N    3.2679479587    0.2121720613    1.1413729681
 C   -1.4845676831   -0.4236044742    0.0862781180
 N   -2.1383568871   -0.4898291642   -1.1064637965
 O   -2.0064138105   -0.7321361973    1.1408529906
 H    0.9618236790    2.0332543617    0.1301082399
 H   -0.6254185073    2.1031037822   -0.6552804125
 H   -0.5195889764    1.9257606126    1.1030206343
 H    0.3904067993   -0.1585592722   -0.9613092660
 H    0.3038194783   -0.3690378086    2.0897264978
 H    0.7510800389   -1.6661466653    1.0006129846
 H   -1.7089181705   -0.2243705356   -1.9749431363
 H   -3.1070453938   -0.7653298338   -1.1074630078