16

 N    0.0167036540   -1.0887731528    0.0643694961
 C   -0.0046474012    0.0663002602    0.0275624398
 C    0.0008807176    1.5085948187   -0.0515737629
 C    0.5081799172    2.1487187698   -1.3268098566
 C    1.3455173051    2.2202933947   -0.0697672778
 C    1.4127633845    3.5062455538    0.7493321567
 O    0.3679076156    3.5741180853    1.7148509115
 C   -0.8744000953    3.3810910400    1.1253438819
 O   -1.0684049901    2.0497747738    0.6677102984
 H    0.8275351598    1.4934108707   -2.1280814978
 H   -0.0009798593    3.0511367562   -1.6504700847
 H    2.2228936043    1.5857171817   -0.0276035338
 H    2.3451213072    3.5467321659    1.3149967391
 H    1.3698859843    4.3909506641    0.0955414032
 H   -1.6381980666    3.5384575755    1.8879268913
 H   -1.0228780371    4.0888823424    0.2895667155