25

 C    0.0933410355    1.6056151776   -0.0017846025
 C   -0.0458799554    0.0749301679   -0.0013471610
 O   -1.4349858749   -0.2734866621    0.0812546710
 C    0.6067652127   -0.4983226090   -1.2845973883
 C    0.1128944927   -1.8703481217   -1.7821620054
 C   -0.0740371508   -2.9920053054   -0.7391312912
 C    0.8695443871   -2.9598721545    0.4738740934
 C    0.4237174875   -1.9768051544    1.5683133486
 C    0.6139332030   -0.4835472564    1.2739241724
 H    1.1443967904    1.9105016029   -0.0442494128
 H   -0.4096721769    2.0390158680   -0.8748547877
 H   -0.3560323551    2.0326724559    0.8993121801
 H   -1.8863885804    0.1348674342   -0.6649239615
 H    0.4619676370    0.2175404106   -2.1049239084
 H    1.6903639517   -0.5305792450   -1.1200268867
 H   -0.8385285874   -1.7376077304   -2.3099974106
 H    0.8272318871   -2.2011843008   -2.5465356738
 H   -1.1012007142   -2.9573557236   -0.3616888895
 H    0.0315303012   -3.9534921004   -1.2554712224
 H    0.8965084358   -3.9631142082    0.9161863951
 H    1.9011922597   -2.7448472368    0.1608659727
 H   -0.6340999424   -2.1615512098    1.7886663926
 H    0.9727880330   -2.1985438069    2.4920601276
 H    1.6855968000   -0.2542574044    1.2135438925
 H    0.2246164831    0.0825148126    2.1287028659