20

 C   -0.4062112682    1.4928664777   -0.0329810239
 C    0.0085425768    0.0173822317    0.0222117720
 C    0.8191748828   -0.4166890886   -1.1783127366
 C    0.1533876401   -0.9129934450   -2.4128568651
 N    0.8080111299   -1.8743663305   -1.5107641248
 C    2.1457422460   -2.2559775092   -1.9618362843
 C    3.0061697993   -0.9843728599   -2.0453619144
 O    4.1014752937   -0.8986243817   -2.5319053906
 C    2.2159396896    0.1460374979   -1.3715174327
 H    0.4655136554    2.1552418208   -0.0577896781
 H   -1.0065509441    1.7016685250   -0.9248355362
 H   -1.0018666030    1.7634591413    0.8436254407
 H    0.5930069422   -0.1693449097    0.9331146962
 H   -0.8778424927   -0.6223766032    0.0874828669
 H   -0.9297014256   -0.9903518786   -2.4515567714
 H    0.6213222577   -0.7066454252   -3.3755503024
 H    2.6005623846   -2.9369131637   -1.2309726139
 H    2.1262758156   -2.7771305744   -2.9240021221
 H    2.2661912194    1.0545614997   -1.9771954672
 H    2.6923587606    0.3732484957   -0.4088420421