14

 O    0.1970331953   -0.0007027570    0.0171159683
 C    0.0692550767    1.1833225449    0.0606569816
 C   -1.1608086079    2.1437340423    0.0238172707
 C   -0.1364623094    3.2833419708   -0.1220003160
 C   -0.2698467449    4.5840847890   -0.8663479143
 C   -1.3118818707    5.4435168314   -0.2983941462
 N   -2.1435427140    6.1093170052    0.1471119829
 O    0.6607220151    3.2422699930    1.0520711115
 C    1.0331577938    2.3677788447   -0.0407127816
 H   -1.7695487540    1.9466374226   -0.8639185018
 H   -1.7941463560    2.1955756324    0.9106061422
 H    0.6872421365    5.1146740363   -0.8396765121
 H   -0.5139848086    4.3896382380   -1.9170592818
 H    2.0444698680    2.4454012664   -0.4227407034