20

 C   -0.0155919980    1.6319547365   -0.3258861922
 C    0.0450311553    0.1263080118   -0.1251807568
 C    1.0967529036   -0.6824050087   -0.9020723424
 N    2.4180519804   -0.2524159572   -0.3823325404
 C    1.6290065579   -1.2793979879    0.3497079810
 C    0.6435352896   -0.4749995486    1.2012575127
 C    1.0839777761    0.3285180919    2.4359327885
 C    0.1131495731   -0.5889466444    3.2028208742
 O   -0.2882184369   -1.2499949142    1.9811003914
 H    0.9806859920    2.0723027030   -0.2316473104
 H   -0.4042562903    1.8788125008   -1.3201220741
 H   -0.6756256757    2.1036362821    0.4103461039
 H   -0.9408761818   -0.3353080042   -0.2431351052
 H    1.0051547287   -1.1136798195   -1.8916811117
 H    3.1316802781   -0.7492272766   -0.9148730423
 H    2.0248077460   -2.2668473212    0.5542334915
 H    2.1414197458    0.2406701882    2.6886985671
 H    0.8074813977    1.3841039244    2.4196203714
 H    0.5767237945   -1.2879497485    3.9096936817
 H   -0.7341396561   -0.0972677776    3.6944600823