17

 O    0.1332584277    1.4123161775   -0.1644781521
 C    0.1089499098    0.0154557733    0.0180184311
 C   -1.3350719559   -0.4929592698    0.0602145952
 O   -2.0293628727   -0.0351365690   -1.0927896171
 C   -1.4220524047   -2.0441702840    0.1966219325
 C   -0.7678753151   -2.5072674407    1.4240428731
 C   -0.2263288732   -2.8669147800    2.4336641851
 C   -2.8092397928   -2.5110171793    0.1226732941
 C   -3.9453453409   -2.8933643215    0.0609201908
 H   -0.5500038802    1.6020649489   -0.8206402456
 H    0.6474798704   -0.5107944920   -0.7939110970
 H    0.6259642579   -0.2090078545    0.9543390613
 H   -1.8558946330   -0.0362191813    0.9065616632
 H   -1.6910294084   -0.5101569281   -1.8618814084
 H   -0.8720717642   -2.4682237445   -0.6600296699
 H    0.2476346724   -3.1927847073    3.3266617403
 H   -4.9516590870   -3.2288344877    0.0091872534