19

 C    0.0751327808    1.5301371055   -0.0502455037
 C   -0.0043067394    0.0175104853    0.1274391787
 O    0.6590748858   -0.4278761008    1.3022410725
 C   -1.4704646199   -0.5203459657    0.0837118043
 O   -2.0970756615   -0.1104463505   -1.1236782802
 C   -1.4825582855   -2.0708273620    0.1458920347
 O   -1.0245255230   -2.6106397165   -1.0894221432
 C   -2.2154248339    0.0019667999    1.2320694876
 C   -2.7734143764    0.3982606544    2.2210136018
 H    1.1211151895    1.8469009775   -0.0685470710
 H   -0.4113275855    1.8315353388   -0.9802160903
 H   -0.4288546245    2.0413479422    0.7771767395
 H    0.5266036798   -0.4667026902   -0.7020519412
 H    0.2111979518   -0.0170040606    2.0524844820
 H   -1.8664538906   -0.8008202814   -1.7632576700
 H   -0.8852165310   -2.4152401078    0.9941665097
 H   -2.5149094741   -2.4080536756    0.2656275241
 H   -0.0630972520   -2.6461046398   -1.0667906791
 H   -3.2938964004    0.7561495672    3.0754154639