19

 C    0.0686158501    1.5166156507   -0.1674867656
 C   -0.0100711580    0.0080414734    0.1077518003
 C   -1.4213343737   -0.5113238072    0.0673500379
 C   -2.4936624905   -0.2007435848    1.1328997511
 C   -2.8807073967   -1.6959418614    1.0907293602
 O   -3.5623849791   -2.3808442967    1.8010652108
 C   -1.9156591539   -2.0145809983   -0.0074459522
 C   -2.0871985403   -1.0186404677   -1.1493197978
 O   -3.3286284676   -0.5106843585   -1.5358238241
 H    1.1043512388    1.8665063606   -0.1266688909
 H   -0.3334818471    1.7580025685   -1.1564796705
 H   -0.5061880079    2.0832301922    0.5722025772
 H    0.5955295922   -0.5343588822   -0.6285725765
 H    0.4281486705   -0.2102140985    1.0900287133
 H   -2.0717369613    0.0518892883    2.1104792987
 H   -3.2633854774    0.5226304238    0.8599341405
 H   -1.3731878863   -2.9433688814   -0.1444685187
 H   -1.4107326945   -1.2313789787   -1.9798907088
 H   -3.8495961573   -1.2315470920   -1.9056440549