18

 C   -0.1462936654    1.3661569724   -0.2211779604
 C   -0.0589181428   -0.0695794960    0.0030096849
 C    0.0241549254   -1.2579846175    0.1763605837
 C    0.1140057737   -2.6953580453    0.4129478223
 N   -1.1984612243   -3.3271744012    0.4862244643
 C   -1.4812494807   -4.4797045425   -0.1893572952
 O   -0.6534798377   -5.1066190107   -0.8169733750
 C   -2.9602139017   -4.8819068013   -0.1267303274
 O   -3.0483775562   -6.2825572656   -0.2042099656
 H    0.6212626310    1.7027793023   -0.9265737087
 H   -1.1209020641    1.6430357497   -0.6379042087
 H   -0.0112771187    1.9270424491    0.7100759012
 H    0.6484574144   -3.2049333005   -0.3954279698
 H    0.6831468290   -2.8864678750    1.3336278475
 H   -1.9241092481   -2.8476439373    0.9932056960
 H   -3.4193181087   -4.4882855505    0.7957770908
 H   -3.4583318565   -4.3853518893   -0.9755028211
 H   -3.9556179487   -6.5136027307   -0.4214918288