23

 C    0.8798151279    1.1333831547    0.6367735769
 O    0.0102981302    0.5796590132   -0.3228225575
 C    0.5986954117   -0.3595996751   -1.2112415980
 C    0.9550830576   -1.6665068614   -0.5244855425
 C    1.9474308842   -2.5996744236   -1.1732053873
 C    2.3117852621   -1.8851472283    0.1011655358
 C   -0.3846356145   -0.5849805463   -2.3473443138
 C   -1.8718798818   -0.5788364473   -2.0996966634
 C   -1.2282145579    0.5385365058   -2.8860879962
 H    1.2029536666    0.3973909779    1.3843863713
 H    1.7774617212    1.5673136496    0.1682380962
 H    0.3294385248    1.9309294269    1.1430981147
 H    1.5282540387    0.0741467641   -1.6270993503
 H    0.1089173151   -2.1335420893   -0.0279963037
 H    1.7519871635   -3.6652921171   -1.1360256037
 H    2.4275806406   -2.2702689621   -2.0896372866
 H    3.0386764053   -1.0819050596    0.0348008209
 H    2.3684535757   -2.4590300938    1.0196623201
 H   -0.0209779098   -1.3083642576   -3.0707947018
 H   -2.4831245924   -1.3020726616   -2.6282490329
 H   -2.2078430827   -0.3421502055   -1.0974703294
 H   -1.1443477691    1.4991121184   -2.3922507471
 H   -1.3966538769    0.5853176879   -3.9565173816