20

 C    0.0218720995    1.5292713495   -0.0177119611
 C    0.0643985180    0.0191006304   -0.0259995413
 N   -0.8583320357   -0.7395083922    0.8479254547
 C    0.5950021660   -0.7370892299    1.1383693368
 C    1.3428836864   -2.0450490559    0.9260152742
 O    1.6824018252   -2.2821015133   -0.4288795666
 C    0.5742676222   -2.1094550379   -1.2926355286
 C    0.1765235648   -0.6285331080   -1.4000327499
 O   -1.0372828150   -0.4845950669   -2.1226696369
 H    0.9577880098    1.9491330317   -0.4021067468
 H   -0.7914955017    1.8880206169   -0.6565511373
 H   -0.1300255321    1.9182081709    0.9947199024
 H   -1.3383599659   -0.1050140166    1.4818197686
 H    0.9165130554   -0.1516846914    1.9975336034
 H    2.2915058323   -2.0228007485    1.4708277476
 H    0.7374885156   -2.8768714608    1.3208338091
 H    0.8705724124   -2.4865325749   -2.2744600498
 H   -0.2929671388   -2.6919727852   -0.9434231229
 H    0.9378514890   -0.0980673301   -1.9824551386
 H   -1.7262680373   -0.8400555977   -1.5459812071