21

 C    0.0508057865    1.5436201455    0.2129806984
 C    0.0130898629    0.0416129365   -0.1019247008
 C   -1.3806160283   -0.5246946415   -0.0934338658
 C   -2.0796917300   -0.9834461504    1.1559347825
 C   -1.8697942390   -1.9724578177    0.0402366526
 C   -2.9330387978   -1.7591821999   -1.0521196738
 C   -2.4336588847   -0.2698346137   -1.1823053534
 C   -2.6627725406   -2.5421622485   -2.3066448738
 O   -3.4695449369   -3.2161572022   -2.8939972976
 H    1.0761924749    1.9248756097    0.1918937947
 H   -0.5316513798    2.1159784621   -0.5169186174
 H   -0.3667313622    1.7476912737    1.2042236365
 H    0.4737485895   -0.1370384272   -1.0829666738
 H    0.6259234935   -0.5028281169    0.6275009631
 H   -1.4349696132   -1.1294345823    2.0175574850
 H   -3.0808395029   -0.6367738276    1.4034441347
 H   -1.2994775544   -2.8831658218    0.1848209587
 H   -3.9740838791   -1.9081491687   -0.7530876806
 H   -3.1834332478    0.5005079773   -0.9793237291
 H   -1.9901914837   -0.0732218183   -2.1636421803
 H   -1.6133577368   -2.4481789079   -2.6780412599