17

 C    0.0383539314    1.5281949736    0.0096771870
 C   -0.0365414377   -0.0101426864    0.0028206962
 C   -1.4063403594   -0.5076113004    0.0133466788
 C   -2.5525688120   -0.8858131584    0.0219754831
 C   -3.8858070390   -1.3540670273    0.0310048227
 N   -4.9937723316   -0.6276081621    0.0421428297
 C   -6.0248710761   -1.5275245706    0.0475987451
 C   -5.5509867391   -2.8161453314    0.0400421014
 N   -4.1852449619   -2.6948513926    0.0296840347
 H    1.0819220065    1.8558249978    0.0013446589
 H   -0.4631456911    1.9447652339   -0.8675770207
 H   -0.4463061870    1.9360957638    0.9003708060
 H    0.4863165402   -0.3997370393   -0.8806574144
 H    0.5028684720   -0.4083674690    0.8723850994
 H   -7.0536718742   -1.2009096829    0.0567847916
 H   -6.0404506087   -3.7757171657    0.0411479647
 H   -3.5121652923   -3.4426675230    0.0222212159