22

 C    1.1560189570    1.3043341547    0.1362484630
 C    0.5707476001   -0.1050492571    0.0032834496
 N    0.4453043229   -0.5578246012   -1.3789466386
 C    1.6253470531   -1.0073306740   -2.1079964202
 C    1.9218305442   -2.4911580277   -1.9237701198
 O    2.3074530718   -2.7235315062   -0.5836786739
 C    2.5346379010   -4.0856202598   -0.3059319468
 C   -0.7594361393   -0.5870318893   -2.0107008412
 O   -0.9444060181   -0.9583920720   -3.1534515803
 H    2.1598970407    1.3660079651   -0.2948506248
 H    0.5241713269    2.0398441380   -0.3709325803
 H    1.2310279734    1.5831075977    1.1921537524
 H    1.1833504156   -0.8306327649    0.5449543903
 H   -0.4296154206   -0.1307173377    0.4487153370
 H    1.4483146822   -0.8176309311   -3.1693752769
 H    2.4913427213   -0.4221649125   -1.7839543744
 H    1.0287839744   -3.0811156995   -2.1813410059
 H    2.7293882270   -2.7896714057   -2.6141942228
 H    1.6308324405   -4.6919533531   -0.4725685519
 H    3.3435283325   -4.4979884744   -0.9293059969
 H    2.8248216227   -4.1626044466    0.7446462687
 H   -1.5781607790   -0.2268960025   -1.3562384262