16

 C    0.1217781525    1.4872082115    0.0273705540
 C   -0.0492510943    0.0044982389    0.0142709095
 C   -1.2129639648   -0.6914033527   -0.0129414684
 N   -2.5113570298   -0.1409122963    0.0449803506
 C   -1.0772071920   -2.1251604509   -0.0069106621
 N    0.0426859148   -2.7657312072    0.0062474170
 C    1.2241734050   -2.0319729976    0.0416681940
 N    2.3989726573   -2.5073334217    0.0547242252
 O    1.1394645901   -0.6440777686    0.0709648021
 H    1.0128134988    1.7572823348   -0.5453651685
 H   -0.7424856636    1.9947609289   -0.4087373992
 H    0.2591985178    1.8638984408    1.0480831838
 H   -2.5244706577    0.8687804586   -0.0036476037
 H   -3.1255055125   -0.5134785938   -0.6703110779
 H   -1.9918538017   -2.7219294956   -0.0148348816
 H    2.3250491501   -3.5229138090    0.0370683052