21

 C    0.1120600343    1.4998972532   -0.4597338050
 N    0.0637172651    0.0940418070   -0.0902078742
 C    1.2921842656   -0.6818491405   -0.1878261531
 C    0.7080175046   -0.3655413047    1.1492969214
 C    1.3829087613    0.5390150867    2.1599683901
 C    2.7793733033    1.0578846628    1.8600212411
 C    0.4687781481    1.4252536087    2.9868023517
 C    1.0983468960    0.2101747724    3.6121559434
 H    1.0563629254    2.0117967884   -0.2229035633
 H   -0.0531718815    1.5806380184   -1.5392196009
 H   -0.6978407570    2.0357049845    0.0449372517
 H    1.2009582484   -1.6784598038   -0.6142573189
 H    2.2040379280   -0.1575968340   -0.4697956627
 H    0.1222277946   -1.1536228410    1.6209741596
 H    2.8113782127    1.7029337760    0.9760861217
 H    3.1554675487    1.6466519231    2.7031610053
 H    3.4787684743    0.2315318550    1.6924731812
 H    0.8357619519    2.4043824070    3.2764833159
 H   -0.5946901225    1.3935073584    2.7763628050
 H    0.4603076587   -0.6403403923    3.8285847144
 H    1.9002108502    0.3554007147    4.3281270953