15

 C    0.0486968880    0.6093369863    1.0382632769
 C    0.0539375583    0.2590452958   -0.4551002326
 N    0.5614713142   -1.0898373652   -0.6686358569
 C    1.7763619514   -1.2786064975   -0.9347933607
 O    2.7105376122   -0.2480615739   -0.9587381905
 N    3.9085499505   -0.4016421906   -1.7638769501
 N    4.2102651320   -1.5327966313   -2.1283668300
 C    3.4143850871   -2.6421087716   -1.7240207563
 N    2.2685427125   -2.5626606777   -1.1811404692
 H   -0.5079959787   -0.1402265147    1.6072846218
 H    1.0688350160    0.6520860260    1.4309788360
 H   -0.4202376563    1.5854809309    1.1945072603
 H   -0.9740846815    0.2735154489   -0.8315562544
 H    0.6287679870    1.0112659275   -1.0094480391
 H    3.8675928674   -3.6038189328   -1.9413007152