19

 O    0.0433114752    1.3967565329    0.3110165123
 C   -0.0268693469    0.0633481846   -0.1567826839
 C   -1.4036440164   -0.5262357831    0.0249103571
 C   -1.8063056460   -1.1698409181    1.3201809085
 C   -1.6129790321   -2.0172231731    0.0675051003
 C   -2.8301602873   -2.5519154151   -0.6802767211
 O   -3.3403871364   -1.6097352103   -1.6231170268
 C   -3.5329479178   -0.3618323508   -1.0379451467
 O   -2.3168979713    0.2711215867   -0.6964467712
 H   -0.6768449650    1.8703792736   -0.1207819918
 H    0.2463655082   -0.0026532132   -1.2219738145
 H    0.7036948374   -0.5151600522    0.4170871515
 H   -1.0632916237   -1.2294322622    2.1077090414
 H   -2.8231868596   -1.0356729907    1.6757589117
 H   -0.7268389221   -2.6425381432    0.0231117438
 H   -2.5632311561   -3.4354881796   -1.2638918917
 H   -3.6312292186   -2.8379321846    0.0193119906
 H   -4.0105833341    0.2824325517   -1.7785953296
 H   -4.1796948774   -0.4486997032   -0.1451868999