16

 O    0.0750111419    1.4188405424    0.0068272436
 C    0.0103892108    0.0113378679    0.0020059865
 C   -1.4326235008   -0.4208993371    0.0131504259
 C   -2.4959362799    0.4288871249    0.0234522018
 C   -3.8050976329   -0.1314932089    0.0328763853
 C   -4.0133746859   -1.4775469390    0.0317762776
 C   -2.9060310159   -2.4130990925    0.0210441708
 O   -2.9610874047   -3.6323345840    0.0187903464
 N   -1.6496035787   -1.7686759719    0.0122075332
 H    1.0000727844    1.6794420857   -0.0017876522
 H    0.5001277651   -0.4164914284   -0.8899729181
 H    0.5159320707   -0.4233175447    0.8817867840
 H   -2.3263256886    1.4947122122    0.0242460158
 H   -4.6580371714    0.5411874482    0.0411268494
 H   -5.0057808220   -1.9104890281    0.0388533367
 H   -0.8687834320   -2.4125867870    0.0047202533