14

 C   -0.0412400589    1.4408910343    0.0564109632
 N    0.0336086674   -0.0037657318   -0.0558840904
 C    0.6191898213   -0.6375510676   -1.0788430282
 N    1.1634863990    0.0712637426   -2.0465499392
 C    1.7531746806   -0.5700363958   -3.0763238030
 O    2.2967788967   -0.1295752094   -4.0390639798
 O    1.7256310945   -2.0478908296   -3.0086311227
 C    1.1427434718   -2.6167975809   -1.9749995928
 N    0.5766369490   -2.0220075314   -0.9859739396
 H    0.9593160279    1.8823159613    0.0769454556
 H   -0.5804792732    1.8704475661   -0.7928105755
 H   -0.5651104431    1.6897754786    0.9803924503
 H   -0.3656950421   -0.5953078354    0.6540273047
 H    1.1743126490   -3.7044906311   -2.0166795226