19

 C    0.5485881315    1.5017121040    0.3120273080
 N    1.2114562364    0.3501849570   -0.3218696328
 C   -0.1728816023    0.2130667508    0.1412535391
 C   -0.4226274063   -0.7120689765    1.3062694798
 C    0.5204360286   -1.8053226637    1.5936830516
 O    0.5150058885   -0.6032079336    2.3792232050
 C   -1.8629062657   -0.8081044207    1.7289949971
 C   -2.2210121612   -1.2020377156    3.1095817246
 N   -2.4120277746    0.1920024459    2.6649522142
 H    0.9427369171    1.7540413503    1.2908675205
 H    0.2493097705    2.3448508242   -0.3043651757
 H    1.2312284601    0.4646405247   -1.3312321787
 H   -0.9613648375    0.1888843826   -0.6088575797
 H    0.1655281447   -2.6950668172    2.1103437212
 H    1.3938005523   -1.9197730600    0.9572919567
 H   -2.5463038627   -1.0615803729    0.9201432475
 H   -3.1374974591   -1.7556596339    3.2914261512
 H   -1.4049287236   -1.4068331946    3.7954626240
 H   -1.6396926467    0.7479149692    3.0287406266