15

 N   -0.1948925802    1.2897342377    0.4115801511
 C    0.1088693705    0.0200980308    0.0047100133
 O    1.2414970094   -0.4016270279   -0.0493063679
 C   -1.1210731944   -0.7905752835   -0.4542808371
 C   -0.9461838493   -2.2280314288   -0.3356363515
 C   -0.8211037622   -3.4187161534   -0.2276874446
 C   -0.6311206369   -4.8581483942   -0.1119817700
 O   -1.6029773774   -5.4013794331    0.7754095590
 H    0.5591013197    1.8585545980    0.7616028956
 H   -1.1373109620    1.5769220040    0.6092967077
 H   -2.0139566204   -0.4744621083    0.0998449476
 H   -1.3043937265   -0.5139908636   -1.5021150762
 H   -0.7078785642   -5.3146453250   -1.1124923722
 H    0.3918721359   -5.0525737981    0.2487244932
 H   -1.4303318720   -6.3459831346    0.8428834021