18

 C    0.1246340658    1.5169950739    0.0499261873
 C   -0.1624209704    0.0246200851   -0.0869401071
 N    0.5741722978   -0.5354528522   -1.2048668263
 C    0.7630955088   -1.8635881492   -1.4142376025
 N    0.3718987027   -2.7156803724   -0.4490062190
 C    0.6077433408   -4.0046630146   -0.6849055405
 C    1.2094097838   -4.4689599314   -1.8477252672
 C    1.5582047978   -3.4920443032   -2.7788412464
 N    1.3467699680   -2.1966917195   -2.5868126868
 H    1.1901167749    1.6981333931    0.2209899949
 H   -0.1736270093    2.0642398626   -0.8518505080
 H   -0.4357653424    1.9353954623    0.8903003210
 H    0.1339614005   -0.5125059816    0.8176404549
 H   -1.2437867614   -0.1424896909   -0.2050218033
 H    0.7757783551    0.0499198788   -1.9997834130
 H    0.2946994017   -4.6958759170    0.0958668194
 H    1.3886348676   -5.5214602769   -2.0232678301
 H    2.0276162782   -3.7646246369   -3.7227100873