21

 C    0.2540181366    1.4633846183    0.2563172797
 C   -0.1727262885    0.0414823234   -0.1254378456
 C    0.5837442163   -0.4970020322   -1.3245421251
 O    0.3510386356    0.2036670601   -2.5256456772
 C    1.9637495212   -1.1109073427   -1.1390515881
 C    0.7580586737   -1.9712883347   -1.4992418050
 O    0.2071778205   -2.7837655616   -0.5025725276
 C    0.6761944957   -2.6049423145   -2.8653455022
 O    1.3277953441   -3.8737525778   -2.7466694371
 H    1.3193500446    1.5044313922    0.5089201848
 H    0.0727020466    2.1677802967   -0.5633232720
 H   -0.3097552399    1.8227638136    1.1220545235
 H   -0.0277645750   -0.6397921444    0.7167469806
 H   -1.2434941781    0.0272146744   -0.3620194851
 H    0.8492989698    1.0268826335   -2.4845459116
 H    2.7069255651   -0.9309150536   -1.9086741204
 H    2.3451479596   -1.2007581636   -0.1278406192
 H    0.5833788767   -3.6599828454   -0.6594037495
 H   -0.3799087758   -2.7361769577   -3.1407500491
 H    1.1538288450   -1.9709039177   -3.6195289934
 H    1.0538545961   -4.4239945563   -3.4853035302