14

 O   -0.0739237701   -0.0279369182    0.0060128187
 C    0.0452138031    1.1625904502    0.0096004924
 O   -1.0799273307    1.9976719163    0.0287381308
 C   -0.7224491983    3.3861680935    0.0297743531
 C    0.7682838791    3.3378642242    0.0088378501
 C    1.2119829020    2.0440418303   -0.0028881542
 C    2.6362387682    2.0651619176   -0.0226263790
 C    2.9908137776    3.3924791561   -0.0216628592
 N    1.8368575247    4.1709371361   -0.0023580966
 H   -1.1658545995    3.8679766879   -0.8507729862
 H   -1.1411210965    3.8602894984    0.9264556222
 H    3.3120791293    1.2254225360   -0.0356771840
 H    3.9612015805    3.8627189817   -0.0330454775
 H    1.8213752906    5.1765327097    0.0021503296