22

 C    1.1407814526    1.3298280939   -0.6498631355
 C    0.1452535938    0.1653981681   -0.7042755980
 N    0.6451561993   -1.1797491547   -0.9313941150
 C    1.8764035157   -1.3948828208   -1.0549380173
 O    2.3307656043   -2.6585316987   -1.2162440063
 C    3.7072661942   -2.8079200025   -1.5668825110
 C    3.9277060167   -2.7502681705   -3.0569932028
 C    4.2063970066   -1.4384168620   -3.7478176885
 C    5.3067075392   -2.4572751625   -3.5916542000
 H    1.8635515974    1.2132194748    0.1649164959
 H    1.6981175330    1.4340041456   -1.5872064929
 H    0.5998216592    2.2658025202   -0.4807296304
 H   -0.4294573204    0.1399854169    0.2315497108
 H   -0.5974536182    0.3655609506   -1.4882464524
 H    2.6742178789   -0.6416183225   -1.0203580067
 H    4.3165200452   -2.0453269642   -1.0594542841
 H    3.9977917993   -3.7850661087   -1.1693812310
 H    3.3338999849   -3.4709758557   -3.6112972608
 H    3.7830315552   -1.2795299930   -4.7330046253
 H    4.2623412328   -0.5406718169   -3.1404671660
 H    6.0949935582   -2.2440325138   -2.8765243734
 H    5.6421310123   -2.9999843239   -4.4679645491