14

 C   -0.0304835544    1.4727125903   -0.0358178064
 C   -0.3188068932    1.9000679718   -1.4568153486
 C    0.7946964898    1.4581735552   -2.3238027353
 C    1.4668495621    0.4022269850   -1.4354520477
 C    0.1334696577   -0.3676084920   -1.4566921742
 C   -0.0230076518   -0.0047474449    0.0264885554
 N    1.2800656927    0.7661353093    0.0376018336
 N   -0.5195413686    0.7064067198   -2.3269067215
 H   -0.2829624414    2.0942414086    0.8142339095
 H   -0.9329284806    2.7623410021   -1.6847881035
 H    1.1809054264    1.9708756872   -3.1977599977
 H    2.4423092752   -0.0141463902   -1.6713867117
 H   -0.0064835721   -1.3818059828   -1.8205190579
 H   -0.3481750818   -0.6219568094    0.8566334958