19

 C    0.0538913898    1.4733992848    0.1233036923
 C    0.0160301233   -0.0117297699   -0.0312278157
 C    0.7004157807   -0.9392162386   -1.0765326304
 C    0.0786684664   -1.8174323472    0.0349751846
 O    0.6148531112   -0.8702597424    1.0404381328
 C   -1.1917389286   -0.9669501849   -0.0381772153
 C   -2.4809762139   -0.9319259008    0.7083299084
 C   -2.4484785650   -0.9834218440   -0.8195904491
 O   -2.7345824834    0.1728049024   -1.5578919305
 H    1.0862786370    1.8340933902    0.1486958056
 H   -0.4694354404    1.9410474922   -0.7152971462
 H   -0.4415856216    1.7719155622    1.0524414031
 H    0.2676465282   -0.9847849541   -2.0788031634
 H    1.7910108636   -0.9037544490   -1.0713118566
 H    0.1954509076   -2.8826703097    0.2329742685
 H   -2.8147126577   -1.8131347911    1.2477195574
 H   -2.7704160324    0.0140445154    1.1567397585
 H   -2.7573333550   -1.9179630714   -1.2906450576
 H   -3.6871230997    0.3136636558   -1.5338181262