15

 N   -0.0278740971    1.4889694898    0.0303351536
 C    0.0014028362    0.0335463672    0.0085118129
 C    0.8473823184   -0.4982829202    1.1882988254
 C    0.8077810737   -2.0469540563    1.2432456860
 C    1.4497984399   -2.5981427276    2.4334836273
 N    1.9452006181   -3.0289416380    3.3836547195
 C    2.2249761077   -0.0101069576    1.0722617939
 N    3.2995618469    0.3910294117    0.9314052962
 H    0.8782799580    1.8644386960   -0.2344121185
 H   -0.6987766862    1.8362954568   -0.6462286308
 H   -1.0215375695   -0.3337958186    0.1459144038
 H    0.3853458551   -0.4127150694   -0.9248633426
 H    0.4258196888   -0.0911597681    2.1131242016
 H   -0.2389010990   -2.3698088154    1.2317695046
 H    1.2861040792   -2.4667975103    0.3522168770