16

 N    0.1746364496    1.1181877416   -0.4059153451
 C    0.0630031111   -0.1568467756    0.0621125451
 O    1.0075299758   -0.8041840193    0.4639415561
 C   -1.3727668142   -0.7246760255    0.0712101978
 C   -2.0406754771   -0.8419668217   -1.3195344810
 O   -1.8186307264   -2.1933443694   -1.7128096964
 C   -1.4497908691   -2.9382996386   -0.6197160541
 N   -1.2115685519   -4.1770995783   -0.6154328743
 N   -1.3993807284   -2.1053851064    0.4958513510
 H    1.0746312261    1.5674966971   -0.3514020105
 H   -0.6272269323    1.6853094959   -0.6205819712
 H   -1.9770133890   -0.0869754709    0.7295712312
 H   -3.1181523035   -0.6517096961   -1.2557321916
 H   -1.6014726415   -0.1803918005   -2.0701728291
 H   -1.3383711704   -4.5661233485   -1.5468006208
 H   -0.6836369088   -2.3691736438    1.1606721028