14

 O    0.0626099495   -0.0006909887   -0.4409281542
 C    0.0145886447    1.1669977181   -0.1807700188
 O   -1.1070895157    1.9508700805   -0.1007548114
 N   -0.7046527722    3.2633227630    0.2312596501
 N    0.5432674142    3.2799331974    0.3434068885
 N    1.0385113547    2.0531165485    0.1087372571
 C    2.4373648507    1.7307673893    0.1573470411
 C    3.4616145520    2.7260149552   -0.3065434549
 C    3.3338678402    2.3931753950    1.1634976149
 H    2.5606166228    0.6793248281   -0.0699583734
 H    4.3120543793    2.3498070414   -0.8630531381
 H    3.0960393626    3.6950277881   -0.6263518031
 H    2.8850539854    3.1451412576    1.8022568226
 H    4.0948000317    1.7836895468    1.6367773996