16

 C   -0.0871896323    1.4477679790    0.0490822519
 N   -0.0119245901   -0.0016414693    0.0347510662
 C    0.0644597418   -0.8140125570   -1.0452527614
 N    0.1201050491   -2.0914903217   -0.7229232763
 C    0.0786297828   -2.1333135744    0.6422964446
 C    0.1201649289   -3.4126690502    1.4071012500
 C   -0.0039438947   -0.8416331102    1.1421623483
 C   -0.0711762643   -0.3578964597    2.4627611366
 N   -0.1267681758    0.0464195698    3.5488631318
 H    0.7638608410    1.8728251043    0.5878917668
 H   -0.0727545052    1.8077969818   -0.9806965326
 H   -1.0101018565    1.7812892845    0.5310270508
 H    0.0761007146   -0.4172733978   -2.0503437940
 H    1.0383752613   -3.9654436687    1.1836295888
 H    0.0764080543   -3.2307593695    2.4833421105
 H   -0.7202369250   -4.0561782408    1.1274252279