15

 N    0.0338798896   -1.0983510196   -0.0299069548
 C   -0.0052633542    0.0574786779    0.0089979824
 C   -0.0570415160    1.4935787941    0.0620162447
 C   -0.7552437451    2.4023372327    1.0974376916
 C   -0.1052458738    3.3813084843    0.1018093332
 C    1.1664438949    2.4807088908   -0.0886366357
 C    1.0513362859    2.5077676700   -1.6243539826
 C   -0.4082733825    2.4625458331   -1.1345536173
 H   -1.8478763513    2.3623616415    1.1145413153
 H   -0.3468085046    2.3796755957    2.1115401672
 H   -0.1172258088    4.4701647629    0.1009383802
 H    2.0523140192    2.4690496758    0.5468924242
 H    1.3685663616    3.4306841580   -2.1179979222
 H    1.4195893614    1.6307397950   -2.1635600661
 H   -1.3372405761    2.4299533077   -1.7044278001