23

 C    0.0003463012    1.4973573225    0.0738903825
 C   -0.0134702466   -0.0203520897   -0.0208659529
 C    0.7410425774   -0.6043873775   -1.2266366551
 C    0.9734606744   -2.0349045524   -0.7145249880
 C    1.4293781906   -1.7219200517    0.7205779682
 O    0.7180222147   -0.5430042093    1.1124521725
 C   -0.3629146062   -2.8036528547   -0.7403635985
 C   -1.4206149730   -2.1289830502    0.1563397314
 C   -1.4467150530   -0.5976879779   -0.0010333013
 H    1.0265010019    1.8748789671    0.0406385612
 H   -0.5623707186    1.9433843089   -0.7527030283
 H   -0.4544585093    1.8259784481    1.0133698371
 H    0.1649510065   -0.5629225477   -2.1549450809
 H    1.6872831512   -0.0741350527   -1.3802507931
 H    1.7416084782   -2.5748618176   -1.2752658084
 H    1.2076725772   -2.5324005718    1.4263209270
 H    2.5105661856   -1.5258140041    0.7608900538
 H   -0.7180828822   -2.8498984993   -1.7780731571
 H   -0.2131685757   -3.8401229002   -0.4159315608
 H   -2.4113750646   -2.5506461971   -0.0439852485
 H   -1.1951427853   -2.3569065136    1.2035424820
 H   -2.0139302146   -0.1512138869    0.8233802095
 H   -1.9541838799   -0.3074454822   -0.9301990925