20

 C    0.0381592019    1.4868565097    0.0206793631
 C    0.0370358542   -0.0232503564    0.0335482045
 C   -1.2638884060   -0.8439222154    0.2623288893
 C   -0.2984632931   -1.9469211000    0.6833370246
 C    0.7496461561   -0.9074879792    1.1604878743
 C    1.8300329052   -1.6365277053    0.3311662050
 C    2.2322699379   -0.7594069110   -0.8547054629
 C    0.7150513217   -0.7919819344   -1.1155517000
 N    0.6557177128   -2.1997727708   -0.4853784247
 H    1.0527478083    1.8917934525   -0.0596559961
 H   -0.5397256614    1.8702197208   -0.8290957945
 H   -0.4091867491    1.8942551629    0.9334822076
 H   -1.8403952508   -0.4703275488    1.1143876949
 H   -1.9277022102   -1.0158406141   -0.5920222903
 H   -0.5916246142   -2.8547414143    1.2090622005
 H    0.8597163966   -0.5105120707    2.1696246170
 H    2.5054057990   -2.3396018988    0.8209049521
 H    2.7138593983    0.2048421563   -0.6731908262
 H    2.7886925128   -1.3291908817   -1.6023820695
 H    0.2951332499   -0.6750975712   -2.1163823785