17

 O    0.0272673891    1.3348723897   -0.0876195779
 N    0.0270952547   -0.0436024493   -0.0574178605
 C   -1.1237042452   -0.5995436312    0.0308453403
 C   -1.1280433933   -2.1097105066    0.0418191163
 C   -2.1954959422   -2.6292228844   -0.9283596949
 C   -3.5671057038   -2.1144582315   -0.4999121346
 N   -3.5313777872   -0.6779509074   -0.2589609332
 C   -2.4582026779    0.1048537234    0.0987383082
 O   -2.6068576929    1.2665077312    0.4245125723
 H    0.9669206007    1.5309315732   -0.1809955673
 H   -0.1286314306   -2.4685055612   -0.2133109340
 H   -1.3582731462   -2.4720027165    1.0543193042
 H   -1.9688048486   -2.2854680923   -1.9440071706
 H   -2.2088728855   -3.7230789318   -0.9447078239
 H   -4.3155152976   -2.3212723213   -1.2728102525
 H   -3.8888196518   -2.6473665479    0.4087663310
 H   -4.4122015317   -0.1953485760   -0.1484368830