19

 C    0.0141969679    1.3601412841   -0.0880345069
 O   -0.0346323728   -0.0522820581   -0.0276457211
 C    0.6310345473   -0.5888565705    1.0582589919
 C    2.1651449456   -0.4236308967    1.2695172702
 C    2.0809379348   -1.7864616186    1.9594324810
 C    0.7683929333   -1.8268431097    2.7528841539
 C    0.7880073271   -2.1399531933    1.2699675549
 C    0.0450684693   -0.5176930282    2.5106768010
 O    0.3880084141    0.5552001386    3.3623119503
 H    1.0480449581    1.7310094511   -0.1154799840
 H   -0.4968628685    1.6592455101   -1.0056472498
 H   -0.4964855573    1.8269942783    0.7670549341
 H    2.6959596982   -0.4941862824    0.3161285977
 H    2.5081918125    0.4368782810    1.8505785978
 H    2.8953550281   -2.4514809641    2.2141012243
 H    0.6238224263   -2.5190127338    3.5716292830
 H    0.4491313730   -2.9988665906    0.7122994899
 H   -1.0407194563   -0.6787255675    2.4714558330
 H   -0.2795187808    1.2418916704    3.2761371787