19

 C   -0.2042366570    1.4996975161    0.0353453755
 C    0.0276869006   -0.0229826300   -0.0327061774
 C    0.8015713469   -0.4669750989   -1.2817250165
 O    0.1006949300    0.0136274639   -2.4187587744
 C    2.2591266192    0.0164990756   -1.2499389568
 C    2.9153758078   -0.2999589288    0.0635671408
 C    2.2249688167   -0.5371205225    1.1863105257
 C    0.7462939219   -0.4794141739    1.2389910706
 O    0.1359274324   -0.7338764654    2.2581884677
 H    0.7351897718    2.0530152196    0.1369671629
 H   -0.7086136182    1.8426719968   -0.8699101103
 H   -0.8259173905    1.7372652952    0.9022386041
 H   -0.9494311110   -0.5152805591   -0.0385148955
 H    0.8170347773   -1.5693109785   -1.2858754087
 H    0.5177984974   -0.3485537238   -3.2068829816
 H    2.8272545977   -0.4403759728   -2.0707964840
 H    2.2872839749    1.0993091315   -1.4341440739
 H    4.0023247192   -0.3351176674    0.0818883945
 H    2.7178836730   -0.7759708477    2.1234772173