18

 C    0.0041852809    1.6320262904    0.2841607693
 C   -0.0382225416    0.1243691655   -0.0352635097
 C    0.7371746264   -0.6955473535    1.0158153222
 C   -1.4167930726   -0.3507119877   -0.1517503219
 C   -2.5525902115   -0.7475642343   -0.2269452379
 C   -3.9182572434   -1.1866443070   -0.3190816828
 C   -4.2821260815   -2.4957756435   -0.8972844648
 O   -4.3234945969   -2.2924311633    0.5085267956
 H    1.0411167787    1.9803638313    0.3243824766
 H   -0.5259035633    2.2114920099   -0.4762288053
 H   -0.4642029722    1.8334776322    1.2523753674
 H    0.4527274304   -0.0270794720   -1.0070462000
 H    1.7779630495   -0.3597913299    1.0622708951
 H    0.2902993828   -0.5713577383    2.0067887537
 H    0.7267229275   -1.7606606258    0.7709293974
 H   -4.6624946070   -0.3924677819   -0.3741938707
 H   -5.2477814402   -2.6096299732   -1.3889677679
 H   -3.4891772559   -3.1497458890   -1.2551961162