20

 C    0.1752405712    1.4804210530   -0.6590637994
 C   -0.0674173827    0.0977914092   -0.1079988988
 N    1.0865560129   -0.7793011721    0.0358130434
 C    0.3879208943   -0.3467556053    1.2612593311
 C    1.1227709146    0.5688585485    2.1983315128
 O    2.0305918234    1.2879300215    1.8408956213
 C    0.6254180307    0.5527071600    3.6337908321
 C    1.3305788678    1.5614858757    4.5263300351
 O    0.7772692853    1.4295316547    5.8281675277
 H    1.1140845133    1.8832262512   -0.2783485140
 H    0.2280204121    1.4397102303   -1.7523010335
 H   -0.6430170316    2.1555378272   -0.3863728178
 H   -1.0036109142   -0.3628343741   -0.4252016493
 H    0.8423231128   -1.7449181130   -0.1676218051
 H   -0.2597594775   -1.0676932946    1.7566157396
 H   -0.4583006909    0.7324899127    3.6415638563
 H    0.7527213034   -0.4598490266    4.0412605223
 H    2.4116052010    1.3646683041    4.5193312230
 H    1.1868753643    2.5741706042    4.1231082606
 H    1.2231248599    2.0563290333    6.4050267925