20

 C   -0.0227957327    1.5130235733   -0.1184429624
 C    0.0579163251    0.0082507231    0.0841081060
 O    1.0817677422   -0.5486181594    0.4450623159
 N   -1.0914572311   -0.6848366539   -0.1614503629
 C   -1.1499552217   -2.1357344575   -0.0662291225
 C   -0.4384498072   -2.8191615179   -1.2319845620
 C   -0.8011264477   -2.7182034130    1.3260493522
 O   -2.0947763408   -3.3615014434    1.4184690091
 C   -2.5627656197   -2.6848909677    0.2422251822
 H    0.4155626891    2.0062169816    0.7518596335
 H    0.5821712697    1.7859062391   -0.9883142576
 H   -1.0404577783    1.8830211136   -0.2679173342
 H   -1.9035488417   -0.1952535863   -0.5001636620
 H    0.6154289627   -2.5318557841   -1.2419192758
 H   -0.5056438921   -3.9068761294   -1.1337460473
 H   -0.8929746432   -2.5313294038   -2.1862012245
 H    0.0219485199   -3.4380033649    1.3550923582
 H   -0.6580163392   -1.9636732004    2.1055599031
 H   -3.3054382299   -1.9079392026    0.4782662152
 H   -2.9865637433   -3.3748927164   -0.4972165143