19

 C   -0.6664252060    1.2386828904   -0.0236752309
 C    0.1418673245   -0.0455836061   -0.1022108593
 C    1.5451592439   -0.0430788563   -0.7650196850
 C    2.0264017663   -1.0541798379    0.3058229448
 C    0.8046346743   -0.6484727102    1.2013337188
 C    1.1762967146    0.3846557295    2.2741826197
 C    0.0673819790   -1.7547305093    1.8014632465
 N   -0.5246416148   -2.6363289220    2.2605871585
 H   -0.0918976938    2.0588807170    0.4178440412
 H   -0.9709688092    1.5532677141   -1.0276867191
 H   -1.5765761341    1.1031580964    0.5704467139
 H   -0.4671692662   -0.8321896802   -0.5582450178
 H    1.6010561871   -0.3557025363   -1.8093640083
 H    2.0402185617    0.9278642291   -0.6695779594
 H    1.9506822767   -2.0882954602   -0.0355064995
 H    3.0107341381   -0.8995444491    0.7531402833
 H    1.7550867841    1.2020402099    1.8353570622
 H    0.2856406973    0.8077030177    2.7463328411
 H    1.7857377465   -0.0819059564    3.0534106293