17

 C   -0.1126841248    1.3459554704   -0.0665962067
 O    0.1546596420   -0.0423346170    0.0515386858
 C    0.7203608175   -0.6073378972   -1.0978095790
 C    1.0532896692   -2.0889819672   -0.8740777521
 C    1.3192615043   -2.6289564068   -2.2975890799
 C   -0.2105206342   -2.3951964942   -2.3542789883
 O   -0.2752861736   -2.7151805614   -0.9263880695
 C   -0.2999975794   -0.8650181641   -2.2590185408
 O   -0.9938422954   -0.0857974914   -2.8506318640
 H    0.8109033284    1.9121610430   -0.2649056782
 H   -0.8321085151    1.5555562414   -0.8655579506
 H   -0.5268335686    1.6670703845    0.8914864889
 H    1.5823529190   -0.0189507463   -1.4528151113
 H    1.6388068451   -2.3567644333    0.0034391186
 H    1.9751392939   -2.0722945488   -2.9728016195
 H    1.5584026474   -3.6926179801   -2.2917940903
 H   -0.9105637857   -2.9336022516   -2.9895584228