19

 N   -0.1196368788   -1.1716742251    0.0092107433
 C   -0.0571929632   -0.0184541589    0.0300485779
 C   -0.0011404972    1.4417587566    0.0318771362
 C    1.4327106374    1.9959690342    0.0297080412
 C    1.4303504521    3.5262459517   -0.1133684431
 O    2.7477164345    4.0383367917   -0.0753820893
 C    3.4251358321    3.6950305830    1.1259098424
 C    3.4802235275    2.1764480834    1.3041480575
 N    2.1514370613    1.5595752069    1.2282657251
 H   -0.5410026883    1.8108061672   -0.8476599863
 H   -0.5449765426    1.8129141317    0.9102564926
 H    1.9688721232    1.5824369388   -0.8343270183
 H    1.0059045858    3.8403726219   -1.0729577856
 H    0.8197766401    3.9690383436    0.6960338200
 H    4.4264914106    4.1294858113    1.0489821630
 H    2.9147206778    4.1545942327    1.9911551380
 H    4.1010187517    1.7427586676    0.5106297704
 H    3.9395287570    1.9159300334    2.2633425620
 H    1.6150176891    1.8206710581    2.0534857228