21

 C   -0.0898778244    1.5127569710    0.0463272726
 C   -0.0773996350    0.0221276019   -0.0250107626
 C   -0.0940043982   -0.7850549545   -1.0850456699
 C    0.0287117261   -2.2179301730   -0.5905265330
 C    1.5030798686   -2.6662520862   -0.4839786104
 C    2.3157291032   -1.6464737889    0.3481269850
 C    1.5325678798   -1.1187598424    1.5738781568
 C    0.0522577793   -0.8778951649    1.2041525185
 O   -0.4745183585   -2.1266865371    0.7494038264
 H    0.8155830100    1.8971458200    0.5336168868
 H   -0.1536236161    1.9635717703   -0.9476422700
 H   -0.9384408996    1.8744897862    0.6409043368
 H   -0.1071850766   -0.4957148620   -2.1286374641
 H   -0.5776816012   -2.9454080447   -1.1383377101
 H    1.5098151868   -3.6486215356    0.0014441839
 H    1.9511275915   -2.7895984738   -1.4770909134
 H    3.2608843596   -2.0941156068    0.6722050220
 H    2.5812109407   -0.8002844229   -0.2933708938
 H    1.5464197587   -1.8564612144    2.3838947784
 H    2.0000753683   -0.2049003533    1.9601743574
 H   -0.5329048728   -0.5470697088    2.0685502727