19

 C    0.0634197465    1.5035830079    0.1037165030
 C   -0.0312673097   -0.0206328598   -0.0010183427
 C   -1.4672624066   -0.4978205839   -0.1827890776
 O    0.7002590843   -0.5244932210   -1.1203172638
 C    2.0981038372   -0.5113914578   -0.9830794402
 C    2.6586462790   -1.2874615118   -2.1833018533
 C    4.1167253924   -1.3412940981   -2.1715802739
 N    5.2713599297   -1.3737333346   -2.1444732951
 H    1.0931128071    1.8413284482    0.2514745930
 H   -0.3254992788    1.9706893276   -0.8068531531
 H   -0.5252432841    1.8617694380    0.9539906018
 H    0.3849892554   -0.4692876086    0.9167431758
 H   -1.8937275266   -0.0770842298   -1.0988698307
 H   -1.5019216016   -1.5877069280   -0.2577064244
 H   -2.0868649076   -0.1847613083    0.6624346111
 H    2.5083938280    0.5088201803   -0.9819653020
 H    2.4110609221   -0.9946776635   -0.0440850221
 H    2.2553024958   -2.3052261481   -2.1777022435
 H    2.3195690474   -0.8119469188   -3.1095160522