18

 C   -0.1556260971    1.5275086314    0.0834537054
 C   -0.0182565971    0.0246153349    0.0621786085
 C    1.2591418030   -0.6429412159   -0.3021149584
 C    0.7813086867   -0.7140176077    1.1557423809
 C    1.4841141571    0.0437844365    2.1497876096
 C    2.0651349344    0.6585439092    3.0078545889
 C    0.1939784663   -2.0553288138    1.5546724308
 N    0.3691442384   -2.4060489248    2.8531152778
 O   -0.3960593140   -2.7528120878    0.7475283866
 H    0.7668031309    2.0108431363    0.4161126883
 H   -0.3906820678    1.8977929188   -0.9201643383
 H   -0.9607236978    1.8434883567    0.7547136781
 H   -0.9096174089   -0.5304063388   -0.2135331217
 H    1.2115821448   -1.5809638396   -0.8420426281
 H    2.1318792970   -0.0256198265   -0.4833830843
 H    2.5848019002    1.2116552898    3.7506302425
 H    0.8727594307   -1.8156645081    3.4925707313
 H    0.0013362234   -3.2898563108    3.1618711221