18

 C    1.2279978866    0.7674367169   -0.4565887568
 N   -0.1053015813    0.1864007258   -0.3027559592
 C   -0.4281168637   -0.7982100189   -1.3107124052
 C    0.3165165102   -2.1263873613   -1.1692197603
 O    0.9320235361   -2.4696061778   -0.1928241781
 O    0.1515019088   -2.8879379646   -2.2753950383
 C    0.7792789959   -4.1884445231   -2.2534401056
 C    2.1274992477   -4.1500463202   -2.8015495153
 C    3.2364108950   -4.1335907435   -3.2620820642
 H    2.0460050719    0.0306043251   -0.4602885134
 H    1.2690934469    1.3310990888   -1.3956105199
 H    1.4063363942    1.4726594038    0.3599772632
 H   -0.1678747957   -0.2550813046    0.6092287810
 H   -1.5004141621   -1.0342188171   -1.2786810909
 H   -0.2370884893   -0.3930425766   -2.3100058876
 H    0.7948786067   -4.5594143523   -1.2251090417
 H    0.1329551536   -4.8275600410   -2.8607201981
 H    4.2208810786   -4.1177467794   -3.6604554796