18

 C    0.0480181642    1.3395355303   -0.2203877912
 C   -0.0846528708   -0.1256759348    0.1085623099
 C   -0.8474434726   -0.5882462982    1.3197374148
 C    0.6624678024   -0.7572770776    1.2470856240
 N    1.1705219953   -2.0653687132    0.9405754477
 C    1.8017133010   -2.0925956480   -0.3728187806
 C    0.7651359887   -1.7666086940   -1.4417737666
 O    0.7679407461   -2.2340138427   -2.5448866478
 O   -0.2229335901   -0.9072126464   -1.0721834183
 H    0.9399106330    1.5264935867   -0.8277637365
 H   -0.8253807097    1.6835125587   -0.7829282059
 H    0.1236662401    1.9337858755    0.6944111259
 H   -1.2648535835    0.1680920819    1.9753986729
 H   -1.4226388120   -1.5005870797    1.2182331819
 H    1.2856006602   -0.0947788593    1.8495098664
 H    1.7755368974   -2.4267547406    1.6655397062
 H    2.6435796335   -1.3845047844   -0.4881037386
 H    2.1783950369   -3.0921746643   -0.5963303642