20

 C   -0.1048136915    1.5655595867    0.0003200992
 C    0.0386517439    0.0401636928    0.0274876175
 C    0.7986560400   -0.5479578799   -1.1841420176
 C    1.4742114105   -1.8335161953   -0.6606887130
 C    1.6230987358   -1.5591668310    0.8202470374
 C    2.4848250119   -2.3318847441    1.6769681041
 O    3.1672721775   -3.2760908728    1.3185367156
 C    0.8215306145   -0.5223923390    1.2038270097
 N    0.5870797584   -0.0406044276    2.4570323972
 H    0.8748224630    2.0553711672    0.0186024792
 H   -0.6180864938    1.8795829887   -0.9136226353
 H   -0.6970523074    1.9466837196    0.8406894922
 H   -0.9712546281   -0.3961516834    0.0764952094
 H    0.1422555360   -0.7174763988   -2.0418161842
 H    1.5672731971    0.1687814967   -1.4967143472
 H    0.8464848438   -2.7176924430   -0.8370508974
 H    2.4343166042   -2.0382813134   -1.1422987107
 H    2.5164691165   -2.0048171944    2.7465630762
 H    1.1874940972   -0.3311935998    3.2117839822
 H    0.2233867006    0.8939182409    2.5432680555