14

 O    0.4391671175    0.9548905035   -0.5771360971
 C   -0.0640666449   -0.1529116902    0.1228429939
 C    0.0290566343   -0.1614810430    1.6756101920
 C   -1.4607587104   -0.6440586538    1.7193774203
 C   -1.6011628330   -0.1638150598    0.2347588412
 C   -1.6065477758   -2.0814403383    1.8901457665
 N   -1.7144532880   -3.2257351365    2.0200139792
 H    1.3844966940    0.8345094059   -0.7107159223
 H    0.3068641053   -1.0985741916   -0.2945665225
 H    0.7769163847   -0.7952785544    2.1542380236
 H    0.1062266888    0.8599183719    2.0555476077
 H   -2.1016980628   -0.1374195336    2.4433594849
 H   -1.9849769329    0.8584338290    0.2043561806
 H   -2.1683150367   -0.7925768191   -0.4517287380