15

 O   -0.0065629461   -0.0395846115    0.0928988136
 C   -0.0168728910    1.1584372776    0.0068050657
 N   -1.1146992616    1.9788443249   -0.0721208004
 C   -0.8189373336    3.3962667977   -0.0167479943
 C    0.7087041809    3.3798768425   -0.0027144069
 C    1.4112119284    2.7809789328    1.1743764585
 C    0.7148844087    2.5030143615    2.3968724900
 C    0.1492692792    2.2910300078    3.4366104649
 N    1.1729596656    1.9907363434   -0.0757291101
 H   -2.0291739831    1.5952643082    0.1004186239
 H   -1.1877513974    3.9261134418   -0.9024325211
 H   -1.2414414880    3.8759747841    0.8755241359
 H    1.2372236135    4.1038922539   -0.6140103269
 H    2.4634259425    3.0236287615    1.2979019825
 H   -0.3412810481    2.0852208738    4.3561025347