19

 N    0.6693292206    0.1193198572   -0.6886023586
 C   -0.3351386026    0.4133815745    0.1923426632
 O   -0.4118177184    1.4749397010    0.7845937875
 C   -1.4072914080   -0.6321898951    0.3616657467
 C   -2.0156676431   -1.3505125320   -0.8347907322
 C   -1.2212430035   -2.1287457700    0.1644812848
 N    0.0629616963   -2.6425150837   -0.2355071379
 C    0.7719131718   -3.4690867911    0.7403102255
 C    0.1474072501   -4.0840178371   -0.4633321618
 H    1.4361518032    0.7735336487   -0.7034353388
 H    0.8521961954   -0.8571023093   -0.8916480247
 H   -2.0903209003   -0.3449888321    1.1517746782
 H   -3.0920194365   -1.4754589813   -0.8654885698
 H   -1.5462204465   -1.1643107782   -1.7939614163
 H   -1.7799179897   -2.7575554308    0.8622606034
 H    1.8464879204   -3.3229837180    0.7913197101
 H    0.2880343932   -3.6400716340    1.6994415781
 H   -0.7574662793   -4.6689442586   -0.3141361407
 H    0.7583401669   -4.3932604001   -1.3058625469