23

 C    0.0135683441   -2.8290897054    0.0309844302
 C   -0.1316419238   -1.7267667999    1.0870118548
 C   -1.2061417324   -0.7265833103    0.7091490092
 C   -2.6127373796   -0.8915028944    1.1704094563
 N   -1.7913207440    0.2135712383    1.6662725817
 C   -1.3572301079    0.1937390033    3.0608971193
 C   -2.0046302695    1.3203111348    3.8513876563
 C   -2.1885289360    2.6637925767    3.2581362828
 N   -3.3557078208    1.7974140573    3.5266865487
 H    0.8119352227   -3.5278159052    0.2976110923
 H   -0.9150510655   -3.3995234702   -0.0732131573
 H    0.2547452995   -2.4061784416   -0.9502668949
 H   -0.3575735884   -2.1756052154    2.0598843285
 H    0.8266342141   -1.2026189862    1.2004598959
 H   -1.0520455091   -0.2789382685   -0.2735265539
 H   -3.4507720239   -0.6201647644    0.5331979884
 H   -2.8147477611   -1.7135755086    1.8573287285
 H   -1.5807380489   -0.7650651295    3.5558328572
 H   -0.2677716840    0.3233816575    3.0974566919
 H   -1.8140311438    1.2545719997    4.9214820317
 H   -2.1200345963    3.5504841647    3.8821423755
 H   -1.8856299428    2.7921804295    2.2234280367
 H   -3.6338014027    1.3790392578    2.6408261602