18

 C    0.1021959333    1.6069738930   -0.1407456885
 C    0.0530909825    0.1216119559    0.0590966245
 C    0.5999426384   -0.8844794744   -0.9737729008
 N    1.3062631431   -1.6180691427    0.1124440545
 C    0.7557655133   -0.7238738105    1.1687718122
 C    1.7136671955   -0.2801262773    2.2423327317
 C   -0.6842826975   -1.0949469174    1.5480451452
 O   -1.2399934182   -1.7875940246    2.3412774397
 O   -1.2552340550   -0.3440395589    0.5444826716
 H    1.1126320665    1.9211102484   -0.4181936170
 H   -0.5809759070    1.9079278314   -0.9420452060
 H   -0.1913745596    2.1338389791    0.7716526002
 H   -0.1899915864   -1.4294450667   -1.4999418152
 H    1.3007474680   -0.4671153878   -1.7044949496
 H    1.0688719911   -2.5998527887    0.2128449277
 H    2.6484406228    0.0708677393    1.7974520619
 H    1.2828457915    0.5179616268    2.8552183098
 H    1.9450805978   -1.1205678350    2.9053794581