18

 C    0.0692165104    1.3359701720   -0.1118552146
 O   -0.0595114436   -0.0561204728   -0.2922102649
 C   -1.2654537458   -0.5708045198    0.2413755827
 C   -1.2426888265   -2.0548032087    0.1081086203
 C   -2.2479766753   -2.9992065393   -0.0151407663
 N   -3.6400640860   -2.7829348324   -0.0204315891
 C   -1.5654931315   -4.2385277058   -0.0367525166
 N   -0.2453530985   -4.0822506522    0.0565613255
 N   -0.0762649244   -2.7593355131    0.1621556084
 H    1.0302328736    1.6316628017   -0.5384808837
 H   -0.7332055814    1.8876070266   -0.6255547360
 H    0.0493783970    1.6124991426    0.9537523512
 H   -1.3641759356   -0.2626063375    1.2982354380
 H   -2.1404121565   -0.1529037837   -0.2870223215
 H   -3.8980012442   -1.9249249556   -0.4942439294
 H   -4.1342522236   -3.5481543071   -0.4624940684
 H   -1.9894886712   -5.2293202503   -0.1184182880
 H    0.8469480332   -2.3605845446    0.1520658224