17

 C    0.0072181461    1.5113368272   -0.0061186221
 C   -0.0461681416    0.0201076050    0.0072503441
 C   -1.1032333558   -0.7993754618    0.1246010170
 C   -0.7201977479   -2.2342795198    0.1093352814
 C   -1.4942983797   -3.2759115209    0.8062012809
 O   -1.5742844658   -3.1387285907   -0.6105541999
 C    0.7819487706   -2.2780651552   -0.1242166381
 C    1.1947340509   -0.7991766778   -0.1143223358
 O    2.3220648627   -0.3688804001   -0.1844206177
 H    0.6746404102    1.8762419523    0.7819845906
 H    0.4262061973    1.8717578169   -0.9520174697
 H   -0.9810256867    1.9559655957    0.1317922944
 H   -2.1405700622   -0.4954520924    0.2178453788
 H   -0.9779501934   -4.1654501457    1.1659152245
 H   -2.3958267340   -3.0082114759    1.3569930094
 H    1.3390664093   -2.8361537156    0.6326328093
 H    1.0093945701   -2.7214148812   -1.0985073570