20

 C    0.4793729606    1.4883130118    0.0343474356
 C    0.1593233851    0.0211052802   -0.0205792708
 C   -0.1124277024   -0.6417737045   -1.1601364322
 C   -0.1591294162   -0.0059363729   -2.5296799009
 C   -0.3277357974   -2.1257048941   -1.1431144976
 O   -0.4028607882   -2.7911218629   -2.1652889374
 N   -0.3984147499   -2.7166101402    0.0952932299
 C   -0.6663530520   -1.9501374365    1.2993126296
 C    0.2145205917   -0.7053850256    1.3047457175
 H    1.4370663376    1.6518591277    0.5459613776
 H    0.5372287154    1.9481977763   -0.9525691858
 H   -0.2766165224    2.0280156918    0.6198315337
 H    0.7999567650    0.4484533595   -2.8015607670
 H   -0.3899265183   -0.7730350182   -3.2691359415
 H   -0.9210969930    0.7784590108   -2.5882271645
 H   -0.6869869417   -3.6833955608    0.0609757735
 H   -1.7251950360   -1.6494522955    1.3562408328
 H   -0.4572294787   -2.5766101037    2.1715284998
 H    1.2570632374   -0.9830320217    1.5198756158
 H   -0.1001693365   -0.0380991418    2.1150752422