12

 C   -0.1599635861    1.5348569680    0.0888774598
 C   -0.0385930087    0.0578478231   -0.0753998699
 N    0.1672698180   -0.4425793961   -1.2291170070
 O    0.2725007696   -1.8485169597   -1.3168201585
 C    0.1638720649   -2.6626141548   -0.2330628099
 O    0.2594507853   -3.8443161743   -0.3505861761
 C   -0.0827558994   -1.9958561308    1.1194278478
 O   -0.1966309543   -2.5888028932    2.1403873354
 O   -0.1703115307   -0.6226829480    1.0993574629
 H    0.6089634725    1.8971340042    0.7779911568
 H   -0.0480539120    2.0224455509   -0.8784836197
 H   -1.1352964192    1.7826325906    0.5186220283