16

 C   -0.1533844159    1.4020262953    0.2238131847
 N    0.3822968015    0.0808667810   -0.1004833989
 C    0.7963139825   -0.7325166436    0.9398615516
 C    0.7414976336   -2.0815725501    1.1409345611
 C    1.4664732386   -2.3192258769    2.3635792057
 O    1.7037815601   -3.5116882288    2.9798666387
 C    1.8903615409   -1.1142651122    2.8177771098
 O    2.4956596597   -0.7113393538    3.9512492944
 O    1.4761781209   -0.1224868358    1.9374793169
 H    0.6010487546    1.9724163801    0.7683069946
 H   -0.3721513207    1.9278740073   -0.7084013228
 H   -1.0666960056    1.3679845546    0.8367785570
 H   -0.1962370546   -0.4310886446   -0.7513500874
 H    0.2597958550   -2.8136824529    0.5112069890
 H    1.2282599699   -4.1978698963    2.5040959120
 H    3.4295675394   -0.5339714835    3.7811843836