18

 O   -0.0855344071    1.4411359410   -0.0831657513
 C   -0.0038106851    0.0258107953    0.0021654423
 C    0.5931240150   -0.5496269355    1.3098676717
 N   -0.2290727306   -1.7311573884    1.6608492643
 C   -1.6476937088   -1.4665190181    1.9609868660
 C   -2.1343856856   -0.1367501568    1.3708606263
 C   -1.4217332747   -0.5439599125    0.0326346329
 O   -2.1328627859   -0.4187216000   -1.1597940065
 C   -1.2287330538   -1.9667912715    0.6181230760
 H    0.7917185214    1.7914896471   -0.2623868665
 H    0.5179743866   -0.3800330780   -0.8780757009
 H    1.6298469690   -0.8768637051    1.1880424752
 H    0.5637452675    0.1985764097    2.1081670698
 H   -2.0816039168   -2.0032338034    2.7973754425
 H   -3.2163015916   -0.1507740236    1.2213059558
 H   -1.8360242537    0.7984684347    1.8523955167
 H   -2.0546221311    0.5037037144   -1.4332408887
 H   -1.3246581948   -2.9237024090    0.1199504445