19

 C   -0.2080585208    1.3717162125    0.0349184300
 N    0.1311218912   -0.0363367689    0.0269857391
 C    0.8037846252   -0.5110151007   -1.1696795746
 C    1.1640982977   -1.9620129253   -0.8070114058
 O    2.3125451914   -2.4663809196   -1.4558722411
 C    1.4596632108   -1.8759440105    0.7242419399
 C    0.9720015938   -0.4597170575    1.1399703407
 C    0.8263790412   -2.9511721733    1.4798463826
 N    0.3199913314   -3.8001225935    2.0792115278
 H    0.6792933632    2.0299073837   -0.0319623096
 H   -0.8652442270    1.5998324396   -0.8097397524
 H   -0.7446090642    1.6182969811    0.9566074827
 H    0.1468679089   -0.4369586224   -2.0427242968
 H    1.7403858798    0.0374334116   -1.3939111154
 H    0.2974535099   -2.6114416747   -0.9748816909
 H    2.0722279951   -2.7147840049   -2.3536191468
 H    2.5421982789   -1.9640039705    0.8507440942
 H    1.8514792843    0.1982951606    1.2709876193
 H    0.4112742393   -0.4589587973    2.0783227072