19

 C   -0.1484835374   -0.3706212899    1.4796831752
 N   -0.0507756792    0.0690325663    0.0971799860
 C    0.1517266537    1.3974960203   -0.1575468532
 O    0.2630150251    2.2722467222    0.6752325305
 C   -0.1670224622   -0.8794107409   -0.9853923577
 C    0.7652129981   -2.1227205957   -1.0719164754
 C   -0.4288521674   -2.8982930001   -1.6927678414
 C   -1.3886532456   -1.8376220348   -1.0871742153
 H   -1.1355415565   -0.7930568864    1.6967388910
 H    0.6115333268   -1.1237556308    1.7120834622
 H    0.0098608188    0.5048615025    2.1092323442
 H    0.2060901429    1.5986635131   -1.2454272625
 H   -0.0836658241   -0.3079156349   -1.9149536097
 H    1.6858552955   -2.0231924099   -1.6513211379
 H    1.0153509792   -2.5113031694   -0.0810968065
 H   -0.4157530726   -2.8585496396   -2.7852910047
 H   -0.5685696384   -3.9353277479   -1.3838844864
 H   -1.7423901046   -2.1463138628   -0.0997777855
 H   -2.2448098021   -1.5039549911   -1.6778148129