12

 O   -0.0307251334    0.0676672894    0.0553058290
 C   -0.0868645946    1.2552492408    0.0619355565
 C   -1.1657342197    2.3196576115   -0.0855135687
 C   -0.9526368461    3.1442838285    1.2197317498
 C    0.4357715936    3.4622877986    0.6523189547
 C    0.0228053394    3.1460847028   -0.7189609913
 N    1.0087575580    2.2252907295   -0.0037960416
 H   -2.1504398404    2.1069470676   -0.4906732974
 H   -1.5754570150    4.0415042741    1.2423482630
 H   -1.0282366291    2.6075728351    2.1705169312
 H    1.1723962111    4.1690343791    1.0105975651
 H    0.2286480562    3.5353728030   -1.7043091702