17

 C   -0.0998728550    1.5354020229   -0.0128708373
 C   -0.0347686413    0.0437435965   -0.0511595015
 C   -0.0473225744   -0.7567551147   -1.1226770937
 C    0.0866143221   -2.2090848390   -0.7348507761
 C   -0.0708663661   -2.1596287411    0.8048044044
 N    0.0526751395   -0.7262230416    1.1378954623
 C    0.2017080032   -0.2843975631    2.4181144889
 O    0.2905344688    0.8708184419    2.7820943333
 H    0.7875657724    1.9614923537    0.4607647870
 H   -0.1853532692    1.9181523296   -1.0328332567
 H   -0.9550100778    1.8823852146    0.5736641588
 H   -0.0995859601   -0.4051206619   -2.1433258374
 H   -0.6731829695   -2.8513641711   -1.1914116078
 H    1.0616984518   -2.6180428151   -1.0321095368
 H   -1.0579260915   -2.5262479948    1.1095637045
 H    0.6857622960   -2.7431323292    1.3344421272
 H    0.2382316311   -1.1364542076    3.1268517906