14

 O    0.1225243944    1.3754678601   -0.0583638335
 C   -0.0229108691    0.0044773026    0.0122422492
 C   -0.4545831005   -0.7663152052    1.2518463473
 C   -1.1761240410    0.0460898640    2.2705502978
 C   -2.3362084168    0.5401988283    1.8065664174
 C   -2.5802340640    0.0494459557    0.4171112094
 O   -3.5637814621    0.2383740380   -0.2599346028
 C   -1.3530920267   -0.7439285248    0.0222498725
 H   -0.5114742512    1.7901636590    0.5404901894
 H    0.7545457964   -0.4659750152   -0.5815173265
 H    0.1126922548   -1.6378994571    1.5575098401
 H   -0.7543453592    0.2449919651    3.2496531483
 H   -3.0263857008    1.1938815966    2.3238110066
 H   -1.4769311841   -1.5842361273   -0.6489800351