22

 C    0.0972921172    1.4587183554   -0.1141905379
 C    0.1474328061   -0.0578322095    0.0610526098
 O    0.7932323947   -0.4406071822    1.2776704158
 C   -1.2491503656   -0.6681212663    0.0319327579
 N   -2.0766197488   -0.6156849507   -1.2729614330
 C   -1.2421262543   -1.8334393353   -1.7141671956
 C   -1.5266892745   -2.1747165934   -0.2292512325
 C   -1.0955809277   -3.3676241980    0.5853096881
 C   -2.9521692714   -1.6717153530   -0.5739125486
 H    1.1044502274    1.8822096314   -0.0724181132
 H   -0.3640694159    1.7188063269   -1.0713355623
 H   -0.5036136414    1.9206196666    0.6796995243
 H    0.7837735230   -0.4837248526   -0.7193654156
 H    0.3259756567   -0.0109199497    2.0032023799
 H   -1.8202499864   -0.2373845590    0.8685814002
 H   -1.7421507548   -2.4396789043   -2.4753146592
 H   -0.2241753547   -1.5978438429   -2.0273553983
 H   -0.0064731265   -3.3935756604    0.6879836968
 H   -1.5227958344   -3.3252646080    1.5932717791
 H   -1.4217874796   -4.3045588142    0.1207106687
 H   -3.5667724024   -1.2645536895    0.2350378329
 H   -3.5522866867   -2.2631560412   -1.2713957574