18

 C    0.1957273121    1.4978758109    0.0577349577
 C    1.3675154960    0.5624586595   -0.1104643289
 O    2.2392415924    0.3290569152    0.9759514034
 C    1.8850882196   -0.6211747944    1.8848716146
 N    0.7979027236   -1.2508448470    2.0261151211
 C   -0.2872504900   -0.9560518418    1.1188219813
 C   -0.6351646003   -2.0363190808    0.0427714527
 C   -0.7099234183   -0.9113680443   -1.0337034969
 C   -0.0155127493    0.0142374631   -0.0345364228
 H    0.0600662192    1.9719238801    1.0254748599
 H   -0.0624595388    2.1192030053   -0.7943246579
 H    1.9204470802    0.5707580021   -1.0442171527
 H    2.7201778998   -0.7927029240    2.5609311071
 H   -1.1707288075   -0.6882316704    1.7100690791
 H    0.2089682706   -2.7109144197   -0.1141221686
 H   -1.5374377997   -2.6254522192    0.2135895724
 H   -0.2039004356   -1.0935694654   -1.9854000665
 H   -1.7380782241   -0.5988378791   -1.2396880850