16

 N   -0.2004674568    1.3451219916   -0.3373210476
 C   -0.1180479509   -0.0206010431   -0.0956138081
 C   -1.0970424698   -1.0057710278    0.0025892950
 C   -2.5849971491   -0.7830728887   -0.0252312289
 C   -2.9559032774   -0.2029955258   -1.3770485839
 O   -2.9659828213    0.9829117866   -1.6123330665
 C   -0.3648191280   -2.2053303567    0.1673974382
 N    0.9446390483   -2.0051120830    0.1935929866
 N    1.0699846423   -0.6630781646    0.0217567671
 H    0.2501195110    1.9278001214    0.3565349489
 H   -1.1497496830    1.6501575405   -0.5191845524
 H   -3.1066697288   -1.7317402350    0.1340610377
 H   -2.9024323116   -0.0732865023    0.7481897265
 H   -3.1644833398   -0.9421923030   -2.1800388218
 H   -0.7570064565   -3.2057247129    0.2888986274
 H    1.9876352815   -0.2593109171   -0.0600825981