21

 C   -0.2374250237    1.4874736941    0.0340890234
 C   -0.0290260746   -0.0255764510    0.0333323927
 C    1.1761125562   -0.4976862052   -0.8440418420
 C    2.0273050686   -0.7130068402    0.4426160125
 C    0.7279334617   -0.5920606933    1.2486512089
 C    0.6450976081   -0.3241147859    2.7322266043
 C   -0.8181170451   -0.2842446826    3.1675024864
 O   -1.1000794495   -1.5470123371    2.5044676706
 C    0.2808966625   -1.6834451850    2.1600487612
 H    0.6943182260    2.0181783062    0.2604680030
 H   -0.5852320406    1.8295254858   -0.9469588514
 H   -0.9818935212    1.7934325720    0.7758675765
 H   -0.9761069238   -0.5337980849   -0.1691382664
 H    0.9726437017   -1.4331836240   -1.3700998260
 H    1.5586208876    0.2312848553   -1.5630890574
 H    2.5755077915   -1.6560102524    0.5251567507
 H    2.7273744521    0.1073475516    0.6299439782
 H    1.4935364656   -0.0096685392    3.3265329310
 H   -0.9518284468   -0.3863659555    4.2506003594
 H   -1.4472877950    0.5314304944    2.7943391449
 H    0.7307187288   -2.6681397526    2.2382218494