23

 C    0.0299580190    1.4946694706   -0.0336910806
 C    0.0346717099   -0.0013304311   -0.0482927561
 C   -0.3459570725   -0.8055760901   -1.0433730823
 C   -0.1689604713   -2.2822892237   -0.7352175201
 C   -1.4016769634   -3.1170570448   -1.1113377044
 C    1.0709207047   -2.8349184970   -1.4779004601
 O    0.9823191708   -2.7225869144   -2.8901796038
 C    0.1026411574   -2.2546453677    0.7982669167
 C    0.5289325863   -0.8058420273    1.1376345241
 H    1.0398225452    1.8922818018    0.1316098209
 H   -0.3487677854    1.9092494423   -0.9719295781
 H   -0.5905642358    1.8801751315    0.7854643526
 H   -0.7373011433   -0.4575770778   -1.9955426824
 H   -1.5218618642   -3.1546165667   -2.1978110486
 H   -1.2983803670   -4.1475533038   -0.7515586072
 H   -2.3118951868   -2.6954590364   -0.6733533662
 H    1.9764012380   -2.3354109213   -1.0991427276
 H    1.1744494509   -3.9068707180   -1.2724947406
 H    1.0031715246   -1.7840831361   -3.1038134548
 H   -0.8227262460   -2.4998699238    1.3289745004
 H    0.8479834300   -2.9979448598    1.1002295814
 H    1.6185117170   -0.7040628601    1.2433110396
 H    0.1031428420   -0.4539061163    2.0853431772