19

 C   -0.4126657159   -0.5208285452    0.9569367433
 N    0.2144690534    0.0934242904   -0.2037905270
 C    0.7796955534   -0.6468701702   -1.2126040401
 O    0.5003940098   -1.9595825933   -1.0722959325
 C    0.9512668763   -2.8145838375   -2.1215544703
 N    1.4623945102   -0.2280032799   -2.2098549603
 C    1.6457017571    1.2082320798   -2.3630434403
 C    2.4288010958    1.8566649957   -1.3007571625
 C    3.0452907939    2.3693483430   -0.4029404392
 H   -1.2049354877   -1.2006806270    0.6391808183
 H    0.2915076373   -1.0870347794    1.5807047048
 H   -0.8594510238    0.2703533271    1.5638685821
 H    0.6891958198    0.9675097909   -0.0307234524
 H    0.5283327076   -2.5089207890   -3.0819692803
 H    2.0410060314   -2.7908357435   -2.2011254968
 H    0.6075750472   -3.8140331620   -1.8500705275
 H    2.1550847935    1.3798058610   -3.3179885240
 H    0.6754905295    1.7285917814   -2.4353330181
 H    3.6153246312    2.8249335876    0.3686921328