20

 C    0.0177330429    1.4396503042   -0.2953788543
 N   -0.0684809105    0.0557879164    0.2646734692
 H    0.5676763197   -0.5707937518   -0.2370136940
 H    0.2526095358    0.0564923055    1.2359019186
 C   -1.4352936083   -0.5536328778    0.2218955817
 C   -1.8791811352   -1.1567659295   -1.0738883508
 C   -1.5517530015   -2.0435710213    0.1124214404
 C   -0.3338290405   -2.9368002704    0.0772884089
 C   -2.8114942863   -2.5874492625    0.9115166572
 O   -2.7364126621   -3.7820232171    1.2183678893
 O   -3.6812667980   -1.7121145499    1.0971199996
 H    1.0436854994    1.8051168441   -0.2227051222
 H   -0.3076594538    1.4002057330   -1.3340234795
 H   -0.6560591018    2.0780304247    0.2757832521
 H   -2.1478196904   -0.0459275460    0.8635533275
 H   -2.9249685335   -1.0192103577   -1.3223307737
 H   -1.1854696426   -1.1392882030   -1.9138091036
 H    0.4308953889   -2.6391618772   -0.6606833739
 H    0.1378321522   -3.0124967905    1.0638495640
 H   -0.6719816743   -3.9442428731   -0.1737753067