16

 O    0.0479924942    1.3512825773    0.0623926328
 C    0.1387980887   -0.0528087405   -0.0594688192
 C   -0.0791510093   -0.6687166225   -1.4965318070
 C   -0.5420258595   -1.9529288033   -0.7969692915
 C   -1.2006482330   -0.7647699808   -0.0456149941
 C   -1.3190870869   -0.7498024501    1.4836425493
 C    0.2731675481   -0.6445955598    1.4201741298
 O    1.1468894604   -0.9231434238    2.1754948214
 N   -1.5573709810   -0.1979508769   -1.4375269550
 H    0.9425001128    1.6970914958    0.1452406954
 H    0.4955321148   -0.5490769360   -2.4176624491
 H   -1.2400917428   -2.5671928935   -1.3645957357
 H    0.2117942210   -2.5380581770   -0.2667018789
 H   -1.7224844406    0.1817758272    1.8900227489
 H   -1.7461303781   -1.6075958783    2.0059995357
 H   -1.5519503487    0.8243731522   -1.3689588929