18

 O    0.0155200580    1.3969736463   -0.1346537413
 C    0.0359368198   -0.0110031393    0.0346168814
 C   -1.3998634047   -0.5104777144   -0.0472136673
 C   -1.5011955253   -2.0270569558    0.1074713292
 C   -2.9390593511   -2.5356915900    0.1403051087
 O   -3.8852253636   -1.8158551649    0.3341960263
 C   -3.0906290787   -4.0382447356   -0.0872853944
 O   -4.4193416899   -4.4249613119    0.1387728998
 H    0.9192064532    1.7208927132   -0.0813555841
 H    0.6483992537   -0.4972033493   -0.7437920993
 H    0.4723096059   -0.2905403701    1.0086344841
 H   -1.9991073461   -0.0226492874    0.7265201816
 H   -1.8288008228   -0.2021746568   -1.0066835041
 H   -0.9513881234   -2.5511655801   -0.6863765245
 H   -1.0281826373   -2.3507038803    1.0474102594
 H   -2.7580103303   -4.2397944023   -1.1216595088
 H   -2.3737008813   -4.5575031239    0.5729179891
 H   -4.4924560163   -5.3654616274   -0.0471470157