18

 O    0.1054459003    1.3858009660   -0.1644234905
 C    0.0552256593   -0.0109905928    0.0771149125
 C   -1.3494962392   -0.5395659514    0.1156512963
 C   -2.3988892012   -0.2049450695    1.1873914046
 C   -2.9338833693   -1.6729073434    1.0954792010
 C   -1.8847471305   -1.9636162643    0.0168599870
 C   -2.0445693740   -1.0132983729   -1.1572339012
 C   -3.3239235677   -0.5115994017   -1.5819471839
 N   -4.3548340195   -0.0986671464   -1.9076779318
 H   -0.3385155724    1.5578091457   -1.0017890385
 H    0.6475642813   -0.5769334014   -0.6609384081
 H    0.5321221754   -0.1546890327    1.0531904653
 H   -1.9386974824    0.0134856135    2.1530432498
 H   -3.1006574047    0.5948618416    0.9408381770
 H   -2.7554953421   -2.2384501578    2.0115124226
 H   -3.9765353776   -1.8026843597    0.7947692121
 H   -1.3447756555   -2.8925101183   -0.1262780930
 H   -1.3628003702   -1.2181636446   -1.9780984810