13

 N    0.0228756871    1.3910692390    0.1531947127
 C   -0.0474762316    0.0281009888    0.0510668330
 C   -1.2217371828   -0.6981141681    0.0288189708
 C   -1.0916433212   -2.0985455143   -0.0199058928
 N    0.0272863391   -2.7852018012   -0.0512725992
 C    1.2169061873   -2.0964819092   -0.0286369417
 O    2.3282120715   -2.5785545924   -0.0450304555
 N    1.1132960821   -0.6665112897    0.0189349382
 H    0.8567378642    1.8490930950   -0.1811597258
 H   -0.8279746635    1.8959379872   -0.0373826265
 H   -2.1863660237   -0.2110903970    0.0464953054
 H   -2.0065179059   -2.6921977619   -0.0392800417
 H    2.0060300074   -0.1945246761    0.0664774731