14

 C    0.0235451116    1.3941162171    0.0678842851
 N    0.0107867455   -0.0521776026   -0.0151493000
 C   -0.1567899454   -0.7994756005   -1.1365594826
 C   -0.0921964334   -2.1191169547   -0.7028576944
 N   -0.1447344161   -3.4484301765   -1.0532334779
 N    0.0159069721   -4.1419231105    0.0230852283
 N    0.1775722229   -3.3009633514    1.1047146026
 C    0.1149033637   -2.0127466537    0.6837191521
 N    0.1831510318   -0.7653633165    1.1395609666
 H    0.9821750528    1.7364905146    0.4654933218
 H   -0.1260406879    1.8072031599   -0.9303484870
 H   -0.7762147925    1.7367814621    0.7291196538
 H   -0.3006572104   -0.3403917001   -2.1002551294
 H    0.3136871553   -3.7017023370    2.0164771809