17

 O   -0.0871879342    1.4467331149    0.3783664474
 C    0.0941697185    0.0753374863    0.1189423129
 C   -0.6684582488   -0.8537019840    1.0388424202
 O   -1.3972635835   -0.2582617729    2.0689133198
 C   -1.1252810930   -0.6347589168   -0.4093712251
 N   -2.2897362374    0.1366100108   -0.7320371827
 C   -3.5349344288   -0.4641070645   -0.2497960718
 C   -4.6869873046    0.3615074962   -0.6210803507
 N   -5.5949894925    1.0223229812   -0.8912866364
 H    0.6733497514    1.7640077397    0.8768604722
 H    1.0716217581   -0.1935939683   -0.2727962844
 H   -0.2395796552   -1.8097028669    1.3247181099
 H   -1.2209901745    0.6914592531    2.0143343086
 H   -0.9281454332   -1.4515439428   -1.1020945978
 H   -2.1960974815    1.0893745890   -0.4019478094
 H   -3.6546770903   -1.4480059728   -0.7202238588
 H   -3.5512552805   -0.6214408323    0.8386338562