21

 C   -0.0692843320    1.5471730088    0.0428888639
 C    0.0166536786    0.0194984735   -0.0665143573
 C    0.6623781901   -0.4535937198   -1.3401127439
 C    0.2571075190   -0.2407647326   -2.8200394837
 C    1.5369749463   -1.0949558762   -2.9361285001
 C    2.1867424239   -0.4164284604   -1.6983080802
 O    2.5027794214   -1.6629543215   -1.0136806224
 C    1.1987219187   -1.9052930621   -1.6410725469
 C    0.5468435355   -3.2388404967   -1.4651941666
 H    0.9262215262    2.0018115092    0.0046679216
 H   -0.6604403733    1.9717162700   -0.7752785443
 H   -0.5378988116    1.8483624651    0.9845703671
 H    0.5954356983   -0.3843618838    0.7739030402
 H   -0.9901666714   -0.4120847347    0.0113041356
 H   -0.6774382896   -0.7090329190   -3.1445780520
 H    0.3187310590    0.7815874352   -3.2043469026
 H    2.0540346173   -1.4679617966   -3.8204939247
 H    2.9021384586    0.4044118647   -1.6463850004
 H    0.3624334119   -3.4416789783   -0.4055182938
 H   -0.4105425125   -3.2674800193   -1.9953205138
 H    1.1856072855   -4.0340955854   -1.8617688657