18

 C    0.2519384854    1.5353314744   -0.0718410198
 N    1.2474097015    0.4656829141   -0.2175054846
 C   -0.1582293409    0.1115004511    0.0546239360
 C   -0.4413979830   -0.5247786452    1.3569818948
 O   -0.8036383752   -1.9206449632    1.3706868795
 C   -1.6769518960   -0.9678199603    1.9993045453
 C   -1.1188979606   -0.5993848167    3.4099434568
 C    0.1748071880   -1.3179997489    3.6874550774
 C    0.1756806737   -0.1462640132    2.7442315097
 H    0.3706327721    2.1516631843    0.8148660281
 H   -0.0825261970    2.0760222930   -0.9535057599
 H    1.4646105320    0.3090704022   -1.1976835665
 H   -0.7475259354   -0.3049290488   -0.7594764289
 H   -2.7107976562   -0.9463284345    1.6746048135
 H   -1.6997734798   -0.0935285815    4.1692160464
 H    0.6063862627   -1.1100986029    4.6614032358
 H    0.3336182353   -2.3212674836    3.3138416348
 H    0.7473820933    0.7546067797    2.9182802016