20

 O    0.1344695651    1.2766606737   -0.5681180891
 C   -0.0412351610    0.0231151312    0.0609650745
 C   -1.5080723650   -0.3746920153    0.1073776580
 O   -1.9589797603   -0.4314151460   -1.2379318404
 C   -3.3283770118   -0.7223556945   -1.3697424062
 C   -4.3881828190    0.3911464970   -1.1170030499
 N   -4.9505053542    0.2290297768   -2.5059730612
 C   -3.8428122256    0.5785576338   -3.4072542229
 C   -3.8300334174   -0.7668166804   -2.7996646461
 H   -0.3359616367    1.2142745904   -1.4074476801
 H    0.5279146926   -0.7689591283   -0.4512306773
 H    0.3493392494    0.1134989418    1.0797965858
 H   -1.6336558309   -1.3516687235    0.6020729215
 H   -2.0819353778    0.3752709339    0.6728518871
 H   -3.5726751500   -1.6388915369   -0.8154551283
 H   -5.1397588105    0.1349783251   -0.3682712120
 H   -3.9943541720    1.3930061967   -0.9167713544
 H   -4.1461022026    0.6434192514   -4.4475029175
 H   -3.1173233718    1.3253705737   -3.0937352889
 H   -4.0024054604   -1.6696061104   -3.3755041326