13

 O    0.0126940956    0.1200776698   -0.6786828076
 C   -0.0411417659    1.2251277496   -0.1955065460
 C    1.1866428056    1.8995589024    0.2535365750
 N    2.1720988647    2.3981218641    0.5948942369
 C   -1.3265925061    1.9707775160   -0.0228225793
 C   -2.3975808232    1.6833270702   -1.0974730811
 C   -2.5639947988    1.0866404745    0.2434297617
 C   -1.2894628318    3.2812223915    0.5647759582
 N   -1.2780482708    4.3370531406    1.0358865303
 H   -3.0110851688    2.5294844226   -1.3806069363
 H   -2.0562596808    1.0426705923   -1.9018508305
 H   -2.3375871478    0.0340184848    0.3646745228
 H   -3.2970406321    1.5047553615    0.9219259360