20

 C    0.0854962015    1.4405236257   -0.0803784247
 C    0.1512631266   -0.0929246063    0.0117474320
 C    0.7493660605   -0.4477460055    1.3676653038
 O    1.9063743638   -0.7157007061    1.5577977301
 N   -1.1850197629   -0.6624650983   -0.0607414003
 C   -2.0065930806   -0.4967996505   -1.2987603876
 C   -2.2343685346   -2.0097892345   -1.3441363869
 C   -0.9035409456   -2.7112946571   -1.4450956934
 C   -1.3341112569   -2.1189500137   -0.1278204180
 H    1.0891664084    1.8690037083   -0.0187314982
 H   -0.3599342092    1.7481271004   -1.0308886232
 H   -0.5277267610    1.8493581658    0.7288769878
 H    0.8417125598   -0.4727440513   -0.7602138391
 H    0.0082335288   -0.4046160141    2.1991749311
 H   -2.9036715763    0.1015818733   -1.1121389952
 H   -1.4742436936   -0.0806910213   -2.1647400930
 H   -3.1794018541   -2.4980668521   -1.5376099145
 H   -0.9537461188   -3.7944260853   -1.4961371840
 H   -0.0923905626   -2.2731940388   -2.0209954668
 H   -1.4423122230   -2.7068485985    0.7772264800