20

 C   -0.0404335324    1.5622412169    0.2150669142
 C    0.0614697705    0.0369041012    0.1181958099
 C    0.6217648590   -0.4819242645   -1.2102187975
 C    0.8813717185   -2.0008228248   -1.3456266168
 C   -0.3987057462   -2.7722261635   -1.3235943658
 C   -0.0050263257   -2.0714910168   -2.6089874256
 C   -0.2366268855   -0.6095297856   -2.4862060247
 N   -0.7711067784    0.1669502624   -3.3339452500
 O   -0.6925392333    1.5183550834   -2.9303760519
 H    0.9423192658    2.0296221821    0.0857150650
 H   -0.6988497697    1.9629385967   -0.5578687698
 H   -0.4245710151    1.8620272200    1.1952675490
 H    0.7195151795   -0.3353149943    0.9150898721
 H   -0.9214450690   -0.4100471941    0.3057854916
 H    1.5234459581    0.0858379209   -1.4730306187
 H    1.8435871047   -2.4730890580   -1.1938640762
 H   -0.2917932195   -3.8519219658   -1.3588094987
 H   -1.2557378132   -2.4321060524   -0.7507179881
 H    0.1433542918   -2.6110856891   -3.5350530139
 H   -1.1249234198    1.9696069955   -3.6627566240