17

 O   -0.1711385417   -0.0781416567    0.3982157229
 C   -0.1131881752    1.1030792164    0.1379355784
 N    1.0266213425    1.7942995890   -0.1521905348
 C    2.3314129939    1.1909937755   -0.1861835338
 C    3.2881602828    1.5355390532   -1.3378742474
 C    3.7089997867    2.9165800770   -0.7371977146
 C    5.1670992715    2.4862350987   -0.8278843452
 N    4.5086221168    1.1589712894   -0.4548734591
 C    3.5155565442    1.9274704790    0.4584438363
 H   -1.0045856630    1.7610983728    0.1081864486
 H    0.9401388068    2.7786389685   -0.3530507927
 H    2.2334531559    0.1332568284    0.0568076452
 H    3.2547988996    1.2456804706   -2.3896022242
 H    3.2500863109    3.8999242361   -0.8937042853
 H    5.6437068871    2.4733205610   -1.8132805448
 H    5.8646305656    2.8540878607   -0.0686290675
 H    3.7486220157    2.0968295704    1.5111920880