12

 N   -0.1540052313    1.2683781044   -0.0896318632
 C   -0.0347103483    0.0056088661    0.0308928829
 N    1.1950438035   -0.6681652845    0.1306083002
 C    1.1425913359   -1.9328461886    0.2460538406
 O    0.0468096067   -2.7208435252    0.2856995726
 N   -1.2161153687   -2.1274538429    0.1924359906
 C   -1.2382203876   -0.8472388048    0.0732692355
 C   -2.6180588637   -0.2196468499   -0.0266864482
 O   -3.6357978483   -0.8571298242    0.0008949233
 H    0.7733978578    1.6989655643   -0.1013293647
 H    2.0368722075   -2.5461322621    0.3299621357
 H   -2.5879394534    0.8780889373   -0.1268222954