15

 N    0.1256692645    1.3775591707    0.1456996665
 C   -0.0200016680   -0.0024384975    0.0274843819
 C   -1.1704305816   -0.7030911960    0.0202393780
 C   -1.1579516742   -2.1622900996   -0.0114967310
 N   -2.2545562332   -2.8261220427   -0.0214110208
 N    0.1115785650   -2.7909618994   -0.0425868664
 C    1.1583631878   -2.0594246583   -0.0340025915
 O    2.3945002470   -2.5894609960   -0.0235666366
 N    1.1903969096   -0.6901495385   -0.0397930673
 H    0.7598326243    1.7807246435   -0.5349523196
 H   -0.7622761289    1.8604183233    0.1242333087
 H   -2.1290633001   -0.2019041206    0.0229605845
 H   -2.0312245632   -3.8224605584   -0.0557101865
 H    2.2642377561   -3.5480414835   -0.0073655971
 H    2.0479783949   -0.2258932369    0.2163662972