18

 C   -0.0622610326    1.3846125469    0.1083322253
 N   -0.0189011931   -0.0495058612   -0.0660697933
 C   -1.2126865403   -0.8821118774    0.0339204469
 C   -0.6912839131   -2.2757488286   -0.4229809149
 C    0.7999936556   -2.2440878150   -0.0687107538
 C    1.1600615049   -0.7586715133   -0.0678130030
 O    2.2702074224   -0.2716936282   -0.0581167373
 C   -1.7772488112   -0.8893199669    1.3897389968
 C   -2.2343426174   -0.8891326397    2.5015496903
 H    0.9654385013    1.7485202745    0.0642231747
 H   -0.6516202565    1.8586260674   -0.6853335845
 H   -0.5020743199    1.6517638919    1.0767750231
 H   -1.9808929096   -0.5123456132   -0.6573222970
 H   -1.2454384590   -3.0850680820    0.0526615925
 H   -0.8244044853   -2.3580221665   -1.5050738371
 H    0.9936881523   -2.6369233877    0.9355480414
 H    1.4379303540   -2.7914262639   -0.7642217945
 H   -2.6380951225   -0.8901668071    3.4841425846