20

 C    0.3409555709    1.3470110265   -0.0794921715
 O    0.2021540956   -0.0426311604    0.1554243665
 C   -1.1231305309   -0.5135682973    0.1148394938
 C   -1.8538939123   -0.5008896796   -1.2568147903
 N   -1.5043788556   -1.9205907037   -1.4480854325
 C   -2.5109199845   -2.8077326465   -1.9858497076
 C   -1.1275541284   -2.0654578123   -0.0329389877
 C   -1.9085776124   -0.0116580801    1.3137610415
 O   -3.1075668444    0.0920755580    1.3583903896
 H    1.4015734268    1.5805485485    0.0337010308
 H    0.0228934495    1.6258611939   -1.0928946872
 H   -0.2315103508    1.9506068504    0.6405766520
 H   -2.9281550049   -0.3145898897   -1.1131240494
 H   -1.4629109734    0.1726159644   -2.0261893603
 H   -2.7357445383   -2.5250206341   -3.0196861930
 H   -2.1319700026   -3.8352395761   -1.9962644151
 H   -3.4579905846   -2.7954374702   -1.4133851281
 H   -0.1537242511   -2.5321075659    0.1452738087
 H   -1.8944379651   -2.5489848259    0.5913108760
 H   -1.2630198236    0.2221670100    2.1911964136