19

 O   -0.0644199797    1.4029894444   -0.0183818507
 C    0.0127635496    0.0150713311    0.0156034573
 C    0.3579360323   -0.7947944226    1.3054187645
 C   -0.4056943319   -1.9170548627    0.5739564639
 C   -1.3115627726   -0.8254036692   -0.0433963753
 O   -1.7784301348   -1.2332128331   -1.3136465846
 C   -0.9082384689   -2.3012079884   -1.7279282655
 C    0.3018064446   -2.1521293816   -0.7999459590
 C    0.8684252989   -0.7188135119   -1.0384254274
 H    0.8260885214    1.7602964487   -0.1039358291
 H    1.4129064483   -0.9482009269    1.5482050475
 H   -0.1840006445   -0.4291144152    2.1807876205
 H   -0.8099146472   -2.7887625871    1.0855188080
 H   -2.1284430347   -0.4257893682    0.5573935224
 H   -1.4152533004   -3.2698122772   -1.6030402105
 H   -0.6608542699   -2.1695889666   -2.7866377088
 H    1.0237792119   -2.9675810872   -0.8539298842
 H    0.6807389600   -0.3572839689   -2.0531194431
 H    1.9387936274   -0.6324067475   -0.8238844159