19

 C    0.1217874758    1.4039155560   -0.0798256018
 C    1.6355159009    1.4623694365    0.2076570868
 C    1.4330268285    0.0419419311    0.7747381692
 O    0.0393646524    0.0442000508    0.4022669310
 C    2.2074822948   -1.0754777367    0.0882378646
 O    3.5916897846   -0.8374848771    0.2916451772
 C    4.1818300839   -2.0612796294    0.7124404771
 C    3.0176495985   -2.7651618378    1.4036684006
 O    1.9050872509   -2.3519328602    0.6204318258
 H   -0.4972204415    2.0842651872    0.5182197340
 H   -0.1789037781    1.4840909862   -1.1309962165
 H    2.2755807118    1.5049165748   -0.6755139501
 H    1.9634082437    2.2165236222    0.9231064575
 H    1.5630082219   -0.0535666069    1.8608986348
 H    1.9588595468   -1.0986888049   -0.9844316437
 H    4.5436228957   -2.6400754775   -0.1495589654
 H    5.0224507072   -1.8330217718    1.3723045648
 H    3.0737782417   -3.8560762344    1.3758015751
 H    2.9168499707   -2.4369566980    2.4483327390