17

 C    0.2964134415    1.4809597477   -0.1025049013
 N    1.3076521053    0.4293425990    0.1208058443
 C   -0.1029544528    0.0636413446    0.0108185186
 C   -0.8540276503   -0.7339487246    1.0873499412
 C   -1.2102833029   -1.8074621795    0.0038338078
 C   -0.6278760195   -0.8706284637   -1.0628374567
 C   -1.0720415805   -0.5897142424   -2.4289734620
 O    0.1604000794   -1.2827823433   -2.1675867689
 H    0.1467002201    2.1544226657    0.7375517728
 H    0.2376396284    1.9566835521   -1.0791696500
 H    1.7661331880    0.1982998619   -0.7601209538
 H   -0.2289870292   -1.0798947838    1.9121053666
 H   -1.7274100012   -0.2145797126    1.4893870171
 H   -0.6283923625   -2.7271983569    0.1000784035
 H   -2.2664516763   -2.0634805211   -0.1031875695
 H   -1.8587325380   -1.1963364619   -2.8763155467
 H   -0.9656939694    0.4115260588   -2.8444658430