21

 C    0.0881001309    1.5784768949   -0.0013578630
 C    0.0422997053    0.0330633258    0.0381719818
 C    0.8593730526   -0.4849331344    1.2448218435
 C   -1.4236053178   -0.4899448854    0.0794264848
 C   -2.2513414035   -0.0569480066    1.3091085870
 C   -3.6073981199   -0.5911506545    1.2636798680
 C   -4.7191663673   -1.0437977281    1.2016640991
 C    0.6495080015   -0.4844446065   -1.1945809778
 C    1.1420980064   -0.9106812295   -2.2052710230
 H    1.1173933458    1.9250298858   -0.1272504353
 H   -0.5032107886    1.9661625119   -0.8358602371
 H   -0.2987134139    2.0077511771    0.9278338769
 H    0.4788648971   -0.0724842833    2.1841807310
 H    0.8209552345   -1.5764479566    1.3037016038
 H    1.9074777280   -0.1887222478    1.1492953090
 H   -1.9385671127   -0.1541436710   -0.8261782555
 H   -1.4043173916   -1.5835067867    0.0367869418
 H   -1.7652609392   -0.3936499229    2.2325115704
 H   -2.2998333307    1.0368413998    1.3689884433
 H   -5.7039413266   -1.4377469695    1.1577372857
 H    1.5787418597   -1.2863847526   -3.0972799445