19

 C    0.0612674017    1.5501542120   -0.3002705745
 C   -0.0306203487    0.0317234667   -0.4581452374
 C   -1.2345643409   -0.5698595863    0.2700065522
 O   -2.4882476564   -0.0826790604   -0.2233571474
 C   -1.2257506048   -2.0758150187    0.2387463419
 N   -0.1798248917   -2.8748522936    0.2312672830
 C   -0.6930091766   -4.1521681541    0.2526279880
 C   -2.0626281434   -4.1218353035    0.2706383484
 N   -2.3900278305   -2.7850535242    0.2626679691
 H    0.8979027452    1.9550202704   -0.8768378028
 H   -0.8571668679    2.0370923697   -0.6410544123
 H    0.2129395014    1.8281836415    0.7485502475
 H   -0.0974946080   -0.2423752769   -1.5205489530
 H    0.8696310079   -0.4629698436   -0.0813608337
 H   -1.2175026262   -0.2339589567    1.3161643517
 H   -2.4833690818   -0.2057702925   -1.1802100755
 H   -0.0476555773   -5.0174930480    0.2487929767
 H   -2.8116489271   -4.8959103969    0.2779354367
 H   -3.3053293150   -2.3663601348    0.2640020614