18

 C   -0.4932951265   -0.5020683634    1.0907136279
 N    0.1316229214    0.1295866437   -0.0605213197
 C    0.5283794497    1.4389729921    0.0153216354
 O    0.3797580514    2.1510003408    0.9877574854
 C    0.2469820941   -0.6572848860   -1.2937235485
 C   -1.0398197789   -0.5328241374   -2.1534174456
 O   -1.2901227298    0.7885964290   -2.5655621441
 C    1.4415067355   -0.3308582474   -2.0724977889
 C    2.4113340430   -0.1187382097   -2.7485084505
 H   -1.5194825472   -0.8200658859    0.8714670727
 H    0.0807782114   -1.3804713384    1.4082787616
 H   -0.5123361108    0.2317943611    1.8961623295
 H    1.0080533153    1.7797223199   -0.9161268309
 H    0.3285491187   -1.7090271783   -0.9855289665
 H   -0.9167943039   -1.1310108486   -3.0606815527
 H   -1.8816819495   -0.9520603779   -1.5820922038
 H   -1.5493521832    1.3007586306   -1.7923225462
 H    3.2716468895    0.0837182058   -3.3379729951