17

 O   -0.1295968261    0.0838177750   -0.3720099097
 C   -0.0829787840    1.2532264620   -0.0960065680
 C   -1.2577749425    2.1654473501    0.2643010172
 O   -0.6818275756    3.3922354363    0.6677979659
 C    0.5666550545    3.5294274022   -0.0151401801
 C    1.1662342044    2.1281363409   -0.0506949922
 C    2.1996752614    1.7373027241    1.0466365174
 O    3.2273773280    1.5215028008    0.0672470282
 C    2.3144197509    1.7804923221   -1.0163148500
 H   -1.9032673336    2.2789645784   -0.6233960652
 H   -1.8635857484    1.7559766511    1.0774621595
 H    0.4112206295    3.9068003766   -1.0401190350
 H    1.1660327113    4.2587205227    0.5345796224
 H    2.4492594128    2.5401069443    1.7513768332
 H    1.9612054951    0.8211874003    1.6004070334
 H    2.1288198686    0.8850486342   -1.6213580286
 H    2.6545506536    2.6025015089   -1.6585783283