22

 C   -0.0018290982    1.4105165009   -0.1582241486
 O   -0.0114743483    0.0397325029    0.1614969950
 C   -1.2789222438   -0.5913532586    0.0638468550
 C   -1.7082263013   -0.7896863106   -1.3949117817
 C   -1.2089441290   -1.9081425424    0.8070228071
 C   -0.0418985738   -2.3673098044    1.5815293372
 N   -0.3749568690   -3.0983754796    0.3404915774
 C   -1.5291984637   -3.9901034973    0.7118446127
 C   -2.4256718553   -2.7867175433    1.1060267988
 H    0.9962090703    1.7868317481    0.0802477839
 H   -0.1983574380    1.6027742795   -1.2226022809
 H   -0.7421428153    1.9703636250    0.4354944108
 H   -2.0313840225    0.0320229102    0.5824762447
 H   -0.9746197880   -1.4186381788   -1.9052660128
 H   -2.6852158998   -1.2795559732   -1.4480190690
 H   -1.7934861986    0.1643537465   -1.9218009756
 H    0.8625873417   -1.7785414574    1.4916313253
 H   -0.1830761352   -2.8670333835    2.5393805798
 H   -1.8823105173   -4.5350018116   -0.1658543293
 H   -1.2864338717   -4.7087895899    1.5021463386
 H   -2.8159029803   -2.7411634386    2.1274983912
 H   -3.2550590430   -2.6385787337    0.4114469904