20

 C    0.2461414929    1.6466286989    0.0041761685
 C    0.0887604979    0.1267512626   -0.0228230715
 C    0.7273121673   -0.5948026354   -1.1929061777
 N    2.2034273129   -0.5758427121   -1.1180125782
 C    1.4683177161   -1.7928078389   -0.7136668954
 C    1.3497745716   -1.9119732040    0.7927296509
 C    2.6392654912   -2.2224176011    1.5519147845
 C    0.7338807460   -0.5572218854    1.2007663144
 O    0.7527114694   -0.1002470946    2.3139985618
 H    1.2952748658    1.9155578685   -0.1459547843
 H   -0.3504976606    2.1219282085   -0.7801710300
 H   -0.0734238312    2.0369444865    0.9737567592
 H   -0.9806182409   -0.1337733446    0.0112854287
 H    0.2499782811   -0.5795053039   -2.1674457205
 H    2.6007345826   -0.7009101092   -2.0449857713
 H    1.5526484665   -2.6855704126   -1.3249543219
 H    0.5909631380   -2.6746027679    1.0276952939
 H    3.4318332104   -1.5386895591    1.2358524594
 H    2.4801772285   -2.0915525681    2.6252833969
 H    2.9713439646   -3.2486069980    1.3682093824