16

 O   -0.0440070565    1.4607374002   -0.2093757705
 C   -0.0355785528    0.0780780360   -0.1987457041
 C   -0.0699935397   -0.6483074280    1.1813105108
 O   -1.4587579244   -0.1268156347    1.3406939729
 C   -1.4013494064   -0.6635539414   -0.0472079974
 C   -0.6848316451   -1.9102773261    0.5276166394
 C    0.1168237412   -2.8763382875   -0.3531914920
 C    0.9962329333   -3.7290140434    0.4462340863
 N    1.6862621974   -4.3900490499    1.0956841392
 H   -0.6763821525    1.7175478708    0.4781452622
 H    0.6707376518   -0.2630599310   -0.9561974816
 H    0.5960603247   -0.5655753576    2.0397452681
 H   -2.3111734176   -0.5966614781   -0.6445846008
 H   -1.3209906948   -2.4477947903    1.2322520591
 H   -0.5758548368   -3.5185967953   -0.9095433121
 H    0.7255578580   -2.3558929737   -1.0978588895