19

 C   -0.0684273250    1.5347590053   -0.0510013432
 C   -0.0067410138    0.0196533151    0.0001903870
 C   -1.2280927017   -0.7704134216    0.5121821997
 O   -0.4072211102   -1.5352904651    1.4197461013
 C    0.7230301127   -0.6724594040    1.1926122462
 C    2.0149449318   -1.4059397615    0.8794729417
 O    2.0416875172   -1.9092523627   -0.4460539623
 C    1.7228957556   -0.8977659264   -1.3569231328
 O    0.3779411901   -0.5029864638   -1.2721054864
 H    0.9182075339    1.9580325019   -0.2673475152
 H   -0.7512587449    1.8536020533   -0.8443765995
 H   -0.4173033295    1.9501012950    0.8992541966
 H   -1.9734208338   -0.1656176337    1.0455123891
 H   -1.7150597487   -1.3963859234   -0.2407331628
 H    0.8789144929    0.0041318095    2.0457639997
 H    2.8641228952   -0.7191733023    1.0375787015
 H    2.1274098434   -2.2600187850    1.5531225655
 H    2.3947674360   -0.0307262692   -1.2053064562
 H    1.8602695988   -1.3041066914   -2.3605827097