19

 C   -0.0949508084    1.5019986637   -0.0618031835
 C   -0.2137968920    0.0152442030    0.2721442598
 C    0.7448746331   -0.4381116912    1.3526479975
 O    1.3636017431    0.3375608429    2.0513302671
 C    0.9611354309   -1.9424373368    1.5765280453
 O    1.9288829087   -2.1379749639    2.5703747855
 C   -0.3565295866   -2.6547530375    1.9655955021
 C   -0.1313479768   -4.1358372666    2.2050588262
 O   -0.7569429672   -5.0049094783    1.6533534371
 H    0.9011994505    1.7391131965   -0.4450002745
 H   -0.8309604814    1.7836349962   -0.8191356187
 H   -0.2579212614    2.1137705659    0.8281065101
 H   -1.2294729342   -0.2216638900    0.6187050311
 H   -0.0618240886   -0.6136343766   -0.6142861014
 H    1.3131220571   -2.3640933569    0.6195357458
 H    2.1724823326   -1.2433505217    2.8642144302
 H   -0.7169497481   -2.2080680274    2.9022140533
 H   -1.1239012216   -2.5464908704    1.1948809630
 H    0.6681375902   -4.3670458009    2.9377360742