16

 O    0.0777323950    0.0259773846    0.1723121706
 C    0.0265940755    1.2147768273    0.0804252969
 C   -1.0878350640    2.2693725563   -0.0278699153
 C   -1.3157361035    2.8000699898    1.3935869681
 O   -0.0484491884    3.0316049179    2.0146312568
 C    0.9280817833    3.4077936234    1.0602230046
 C    0.3204486592    4.3493917041    0.0034361910
 N   -0.1041964282    3.1516110661   -0.8032921238
 C    1.0141567559    2.3478332370   -0.1131051517
 H   -2.0148310012    2.0377016880   -0.5550932397
 H   -1.9108964183    3.7229994228    1.3651269771
 H   -1.8488024498    2.0691554541    2.0081761314
 H    1.8347806362    3.6672662912    1.6093009577
 H   -0.4626381892    5.0439537624    0.3187197791
 H    1.0729119425    4.8972477844   -0.5697321389
 H    1.9719469649    2.2220267607   -0.6204966540