19

 O   -0.0950441260    1.5094960989    0.1404055555
 C   -0.0592268243    0.1181187998    0.3704344307
 C   -1.3698137061   -0.5261108995   -0.1085814268
 O   -1.6158759559   -0.1426250542   -1.4582745308
 C   -1.3952763652   -2.0381141064    0.0704921017
 C   -1.6286020591   -2.6171447748    1.4612535385
 C   -2.7107036508   -2.7294870449    0.4477845011
 C   -0.5488445488   -2.8376818427   -0.8408201621
 O    0.0546383077   -2.3943627865   -1.7950957314
 H   -0.4775364896    1.6071033920   -0.7422087271
 H    0.7904717152   -0.3581285297   -0.1447778918
 H    0.0721815343   -0.0351143286    1.4472632968
 H   -2.1884974372   -0.0846912889    0.4727381211
 H   -0.9796424473   -0.6426891540   -1.9925348968
 H   -1.0783066098   -3.5109303530    1.7364058316
 H   -1.7383986283   -1.8949045853    2.2625020376
 H   -3.5740767274   -2.0783657913    0.5189306116
 H   -2.9143708515   -3.7019898267    0.0126817406
 H   -0.5128213500   -3.9260180842   -0.6085060297