21

 C   -0.6775184951    1.2405271011    0.2337514739
 C   -0.0990365445   -0.1588031986    0.0487686731
 C    0.6465381851   -0.5599632575   -1.2652881704
 C    1.1674270813    0.5753574161   -2.1312659639
 O    1.9618067844   -0.0114021299   -3.1521062741
 C    1.7369673365   -1.2559266105   -0.4055480765
 C    1.1569308333   -0.6117562471    0.8928440846
 C    1.9884003301    0.5100348624    1.4535940069
 O    2.1286489365    0.7385631470    2.6288089274
 H    0.0511902783    2.0306357204    0.0293999817
 H   -1.5336065249    1.3988229376   -0.4307919076
 H   -1.0273486648    1.3769770986    1.2624524632
 H   -0.8931483702   -0.8874807660    0.2371717026
 H    0.0802843088   -1.2334254247   -1.9148064314
 H    0.3228758826    1.1411945746   -2.5560165349
 H    1.7626051408    1.2824953362   -1.5305088996
 H    2.3329527147    0.6942256419   -3.6897357126
 H    1.6632592008   -2.3447140103   -0.3958000672
 H    2.7664631572   -0.9866228179   -0.6571938551
 H    0.9230701351   -1.2899064406    1.7158746006
 H    2.4961828640    1.1484005273    0.6912108195