21

 O   -0.2746809581    1.7321143372    0.8053400758
 C   -0.1058971927    0.3310761062    0.7963904890
 C   -1.2806262879   -0.4643094947    0.2111467862
 C   -2.6510334146    0.1868086056    0.2589841343
 C   -1.9209244968    0.0371998452   -1.0520816172
 O   -1.3326006331    1.1582993541   -1.6787328787
 C   -1.1375108770   -1.9389648345    0.4668100819
 C   -1.7260982995   -3.0178344157   -0.4068434248
 C   -0.2345314207   -2.8014311693   -0.3856852684
 H   -0.4232294083    1.9798158937   -0.1174474224
 H    0.8117157495    0.0386492006    0.2606965366
 H    0.0269012413    0.0297196435    1.8425803241
 H   -3.5226714991   -0.4358501941    0.4299573190
 H   -2.6824755577    1.1805588998    0.6923854162
 H   -2.3078342504   -0.6891178370   -1.7640236838
 H   -2.0434805714    1.7066305044   -2.0285190226
 H   -1.1291724563   -2.1752506844    1.5291908745
 H   -2.1264971964   -3.8964919385    0.0868304357
 H   -2.2651416044   -2.7393034310   -1.3054392475
 H    0.2116806605   -2.3389720625   -1.2599308922
 H    0.3944108230   -3.5394946288    0.0993924842