13

 N   -0.2617349083    1.2392815021   -0.3477724266
 C   -0.0699460501    0.0295089122   -0.0669525300
 O    1.2133233788   -0.5219375576    0.0235678998
 C    1.6646606329   -1.4781606872   -0.8496572964
 O    2.8388205649   -1.7188952294   -0.8939487971
 C    0.6835223231   -2.2036452798   -1.6946962528
 C   -0.6103623755   -2.4310206743   -1.4209435866
 C   -1.3408558732   -1.8961300293   -0.2695600179
 N   -1.1092140653   -0.8047953288    0.3476963743
 H    0.6155484907    1.6903109299   -0.6063478238
 H    1.1547679786   -2.6972440115   -2.5377140710
 H   -1.1635925366   -3.1142741807   -2.0603713142
 H   -2.1848656700   -2.4908278856    0.0850773922