17

 O   -0.1473722281    1.2920129834    1.1190634432
 C   -0.0572499094    0.1996242049    0.2095031067
 C    0.8324794399   -0.8963772428    0.7679145647
 C    0.1070219345   -1.8900825837    1.2791996201
 C   -1.3766399842   -1.6123630998    1.1335732747
 O   -1.9048075466   -0.9892464291    2.3191097695
 C   -1.4031107999   -0.5541979923    0.0052854948
 C   -2.6496167380    0.3096072087    0.0002944278
 O   -3.5577664611    0.1475703889   -0.7766321654
 H   -0.4638992965    0.9239553190    1.9550224903
 H    0.3120453669    0.6314125514   -0.7244229527
 H    1.9112809186   -0.8003054670    0.8090064859
 H    0.4896640695   -2.7597447483    1.8030547811
 H   -1.9742751622   -2.4961590312    0.8801236844
 H   -1.8014824304   -1.5999685716    3.0563829924
 H   -1.3750955562   -1.0892332354   -0.9479691619
 H   -2.6760862666    1.1124666250    0.7604342843