16

 O    0.0353770242    1.4542953987    0.1172614232
 C    0.0189576066    0.0833354367   -0.2228936671
 C   -1.3777969869   -0.5194348795   -0.0815208281
 C   -1.4597079635   -2.0984262754   -0.1392121347
 N   -1.9226679478   -2.0073618221    1.2635870027
 N   -2.3592127892   -2.6182363860    2.3751761743
 N   -2.6121425079   -1.6313551223    3.2054981532
 C   -2.3521269925   -0.4132607884    2.6295655576
 C   -1.8984800135   -0.6699265426    1.3537583276
 H   -0.1132726377    1.5239559674    1.0665288897
 H    0.3420797801    0.0230679064   -1.2676732288
 H    0.7337080864   -0.4969591333    0.3810776755
 H   -2.0747521196   -0.0180768208   -0.7569346196
 H   -2.2078389726   -2.5132135643   -0.8164815742
 H   -0.5076580490   -2.6219821802   -0.2511439755
 H   -2.5182809070    0.5029987859    3.1702426544