18

 C   -0.4962290137    1.3016125468    0.0224156467
 N    0.9454543426    0.9901282546   -0.0193333106
 C   -0.0229504220   -0.0994456737    0.0383991981
 C   -0.0867311769   -1.1580704367    1.1482412318
 C   -0.4854201597   -2.2150586377    0.0746536319
 O   -1.8591523206   -2.5545177780   -0.0038165611
 C   -2.4909660704   -1.5499496889   -0.7698977769
 O   -1.5462578190   -1.0875802813   -1.7140038028
 C   -0.2978484513   -1.1519664917   -1.0543787349
 H   -0.8339445312    1.7676804281    0.9444457925
 H   -0.9862453619    1.6574795269   -0.8802527999
 H    1.2967222486    1.0961912830   -0.9692406753
 H    0.8830125573   -1.3564173942    1.6123125555
 H   -0.8335374795   -1.0007508663    1.9301737305
 H    0.0963195623   -3.1367729597    0.0502523851
 H   -3.3428549578   -1.9840185817   -1.2996453592
 H   -2.8249922682   -0.7207817829   -0.1233687912
 H    0.4849613914   -1.2942844166   -1.8029616901