17

 C   -0.3892864645    1.5475110682    0.0141504812
 C    0.0808217956    0.1090966329   -0.0818737536
 O    1.1416365887    0.0010251737   -1.0625794528
 C    2.1373821519   -0.7224967651   -0.4934530556
 C    3.2944948934   -1.0190077999   -1.3826978388
 N    2.0196716214   -1.0846608730    0.7229159558
 C    0.7369629188   -0.5324359928    1.1937404710
 C    0.9594110818    0.4156278739    2.2957392697
 N    1.1138681954    1.1679346877    3.1588360695
 H    0.4183547820    2.2025252764    0.3497565161
 H   -0.7414476492    1.8906505124   -0.9619357137
 H   -1.2143719920    1.6291828122    0.7275819918
 H   -0.7341196012   -0.5364684982   -0.4261885800
 H    3.7351046946   -0.0850058699   -1.7447138037
 H    4.0422234075   -1.5902818474   -0.8344848719
 H    2.9626777883   -1.5845954093   -2.2586465741
 H    0.1091949374   -1.3394386721    1.5859622191