17

 C   -0.1115849370    1.5084983648    0.1495923284
 C   -0.0580502889    0.0251878141   -0.0030029070
 C   -0.0036342223   -0.7131865351   -1.1309417020
 C    0.0472683441   -0.2858054655   -2.5615548633
 C    0.0377039600   -2.1671987054   -0.7842957291
 O   -0.0004758632   -3.0944706110   -1.5581023607
 C    0.0887872909   -2.2543888901    0.7376826922
 O    1.2514149231   -1.6058000015    1.2880941281
 C    0.0110027147   -0.8738220069    1.2078308041
 H    0.7833215690    1.8719147164    0.6709206046
 H   -0.1808068241    2.0243687357   -0.8099723033
 H   -0.9710220860    1.8069271145    0.7626781257
 H    1.0345410937   -0.4920733596   -2.9916960840
 H   -0.6729655848   -0.8598719959   -3.1529735281
 H   -0.1626107961    0.7786681653   -2.6867708376
 H   -0.2822022786   -3.1269408950    1.2650120444
 H   -0.4273433845   -0.5845099851    2.1583083976