16

 C   -0.0142116067    1.4486030124    0.1836364136
 C    1.3553306929    0.8227903608    0.0074750083
 C    1.9937421962    0.5096511762    1.3293714477
 C    1.3423761644   -0.5018852904    1.9034609223
 C    0.5784413178   -0.8353451239    3.1620834873
 O   -0.6322985212   -0.8660018019    2.3454195182
 C    0.1693073515   -0.9873119981    1.1047450008
 C    0.0726699043   -0.0331234048   -0.0633199495
 H   -0.2976858287    1.7888894905    1.1736346754
 H   -0.4008342084    2.0475058516   -0.6341650470
 H    1.9311789717    1.0583219267   -0.8807539880
 H    2.7065371744    1.1755009625    1.8027071655
 H    0.7797052712   -1.8199901024    3.6049305363
 H    0.5359306348   -0.0756697568    3.9489999838
 H    0.1590554443   -2.0366983191    0.7841566370
 H   -0.2736944685   -0.4075210431   -1.0186398017