15

 O   -0.1158231717    0.0013044410    0.0791734978
 C    0.0059351157    1.1809239112   -0.1381002415
 C    1.2759274315    1.9136825266    0.0507465837
 C    1.3294666514    3.3709119857    0.3360106074
 N    1.7526414667    2.9465860324   -0.9964126363
 C    3.1512072410    2.3833796108   -0.8088874375
 C    2.6496725985    1.2687762255    0.1605026750
 C    3.7170628466    1.9109586682   -2.0645030405
 N    4.1863633532    1.5213939227   -3.0455785462
 H   -0.8357372609    1.8082567933   -0.5052591540
 H    0.3931382570    3.9204895057    0.3208398023
 H    2.0648558475    3.7392959225    1.0489939602
 H    3.8319235525    3.1186612852   -0.3678221174
 H    3.1073171056    1.2340237070    1.1507819781
 H    2.6755729554    0.2766216522   -0.2885613712