18

 C   -0.1431086417    1.5528840783    0.0025355205
 C    0.0006488451    0.0261265661    0.0137674369
 O   -1.2953161913   -0.5866888247   -0.0147622883
 C    0.7160198247   -0.4415822517   -1.2536146760
 O    1.1132707947   -1.8141497002   -1.2204536682
 C    1.7533426981   -2.2728896947   -0.1096631270
 N    2.4089253244   -3.3631179849   -0.1132811178
 C    1.6062688854   -1.4984304034    1.1288408686
 C    0.7897300618   -0.4473964065    1.2130113871
 H    0.8310667287    2.0519846810    0.0081462158
 H   -0.7019645252    1.8734784785   -0.8813638369
 H   -0.6960946610    1.8816707928    0.8889007080
 H   -1.6683114241   -0.5454268632    0.8722320113
 H    0.0414775418   -0.3547007072   -2.1080429195
 H    1.5978530209    0.1877076106   -1.4286220297
 H    2.3883172618   -3.7755238530   -1.0487840753
 H    2.1709055974   -1.8757102506    1.9729469404
 H    0.6568671186    0.0855534028    2.1520279500