16

 C    0.0543957896    1.5566261874   -0.3057016528
 C    0.0070975525    0.0781831746   -0.0130776589
 N    1.2642407629   -0.6673595358   -0.0596941530
 C    0.5639809560   -0.5554535034    1.2323086559
 C    1.2245169313    0.1751053891    2.3228515670
 C    1.1007795394    0.0621536561    3.6780145525
 N    1.9318182261    0.9986627804    4.2378939607
 N    2.5336194783    1.6516697508    3.3516970069
 O    2.1005029226    1.1438556532    2.0696646935
 H    0.9637662162    2.0077544265    0.0927020253
 H    0.0337494939    1.7227317723   -1.3878140751
 H   -0.8128926324    2.0632699698    0.1301832132
 H   -0.8791700697   -0.4300611000   -0.3940562382
 H    1.1360286170   -1.5986204705   -0.4457282676
 H    0.0233842583   -1.4252246088    1.5984603474
 H    0.4987312280   -0.6018534516    4.2739037032