16

 C    0.0339779434    1.5005964178   -0.0595681207
 C    0.0063536835    0.0459085505   -0.0077101987
 C   -0.0175659551   -1.1563527383    0.0308074397
 C   -0.0492631277   -2.6170684517    0.0816597722
 C   -1.4411142280   -3.1831774535    0.0266247918
 N   -1.9874243382   -3.8023652681    1.0621637166
 N   -3.2084198118   -4.1405638400    0.5804449076
 C   -3.3384411601   -3.7220183219   -0.6936704605
 N   -2.2378405740   -3.1116014907   -1.0814804236
 H    1.0578505659    1.8825510259    0.0209578804
 H   -0.3845629950    1.8729229471   -1.0011843106
 H   -0.5476054484    1.9404226786    0.7582913470
 H    0.5275961665   -3.0267033705   -0.7571362928
 H    0.4232979747   -2.9757758082    1.0022303315
 H   -3.8597828240   -4.6367208941    1.1658359257
 H   -4.2287101717   -3.8834037128   -1.2830175355