17

 N    0.1625033060    1.3805951139    0.3168129690
 C    0.0168880811   -0.0311474377   -0.0625779744
 C   -1.4220469405   -0.4270369613   -0.1267787837
 C   -2.2862507879   -0.6445980895   -1.1602997739
 C   -2.0579493398   -0.5555454314   -2.6319655101
 O   -2.4308648795   -1.7970304655   -3.2198304399
 C   -3.4987225448   -0.9927679533   -0.4979271087
 N   -3.3771639234   -0.9811129349    0.8036925080
 O   -2.0561258425   -0.6157097348    1.0448012798
 H    1.1483799256    1.6037673945    0.4143652694
 H   -0.1978363702    1.9749371140   -0.4238667859
 H    0.4829245025   -0.2992641597   -1.0245202343
 H    0.5054049395   -0.6358710723    0.7093803709
 H   -2.6584261661    0.2662933416   -3.0541742235
 H   -1.0019825492   -0.3149790497   -2.8316863067
 H   -2.4141772340   -1.6887134204   -4.1760316735
 H   -4.4476106768   -1.2618150336   -0.9399096926