19

 C    0.0959922801    1.3115187689    0.3493057782
 N    0.0917701311   -0.1071805516    0.0258381539
 C    0.6222890943   -0.4674844884   -1.2850322213
 C    2.1432104274   -0.3102307047   -1.4375840964
 C    0.1453254399   -1.8953132600   -1.5562922547
 C    0.9455045238   -2.9294653074   -2.2427848584
 O    0.8138596740   -2.9317448181   -0.8228414385
 C   -1.3035899917   -2.0391833116   -1.6073393718
 N   -2.4496002761   -2.1518984761   -1.7010315256
 H    1.0892102102    1.7916782745    0.3458844878
 H   -0.5367723857    1.8482222905   -0.3661633933
 H   -0.3392358817    1.4509890482    1.3426865470
 H    0.5636290133   -0.6458445758    0.7445991506
 H    0.1206194068    0.1789682523   -2.0172451009
 H    2.4653955794   -0.4206739931   -2.4775905192
 H    2.4477931830    0.6859080509   -1.1073741243
 H    2.6689766174   -1.0501718921   -0.8262400494
 H    0.4282681905   -3.7345127278   -2.7602419348
 H    1.9313888539   -2.6759770583   -2.6230352288