14

 O   -0.7568344130    1.0963077919    0.6679088694
 C    0.1992114528    0.8365532045   -0.0189909207
 C    1.3947606828    1.7320522714   -0.1407097585
 C    1.7384257186    2.7222117392    0.9856016675
 O    1.9013237719    3.8145494253    0.0409080508
 C    1.5233574648    2.9885659201   -1.0599468951
 C    2.6912061299    2.2182680671   -1.6975927181
 O    2.5286177697    1.1156110352   -0.7642988352
 H    0.2628979868   -0.0868072050   -0.6339639228
 H    0.9005114410    2.9060382664    1.6655146441
 H    2.6554435437    2.4961079287    1.5375218962
 H    0.7488448867    3.4276465382   -1.6907707375
 H    2.5237103928    1.8874478459   -2.7296114955
 H    3.6654861316    2.7085630509   -1.6087265445