13

 O   -0.1426406425   -0.0850166296    0.0054170661
 C   -0.0693324312    1.1086832539    0.0112440852
 N   -1.0810618907    2.0618935821    0.0296363182
 C   -0.5011291661    3.3039771059    0.0275862733
 C   -1.3020093343    4.5726766163    0.0450201633
 C   -0.4987548363    5.7864340678    0.0408584582
 C    0.1330471309    6.8057065119    0.0378062352
 N    0.7869133995    3.2338167865    0.0086336374
 O    1.0843315036    1.8466786372   -0.0027749383
 H   -2.0591992906    1.8300299172    0.0423698800
 H   -1.9772372512    4.5654846480   -0.8224272759
 H   -1.9539652729    4.5561019053    0.9299577065
 H    0.7077996720    7.6990080076    0.0344550609