18

 O   -0.0234277806    1.3986608308   -0.1415857354
 C    0.0164571018   -0.0036795446   -0.0014538187
 C    0.3673431604   -0.8304121638   -1.2702707612
 C   -0.9255720302   -1.6686275701   -1.0660616239
 C   -1.3793307597   -0.7004346178    0.0658327694
 C   -1.4300229898   -1.3009423756    1.4656727102
 O   -0.0664421628   -1.5739353342    1.7891337383
 C    0.6836058680   -0.4648388778    1.3144352727
 H    0.8766630382    1.7144630335   -0.2780865729
 H    0.3269981752   -0.2020613551   -2.1634005304
 H    1.3160602542   -1.3743142379   -1.2561954499
 H   -1.5899043215   -1.7289855724   -1.9299364111
 H   -0.7327724183   -2.6797040889   -0.6998074086
 H   -2.2229823404   -0.0557694829   -0.1815341081
 H   -1.8638698445   -0.5863064645    2.1841466061
 H   -1.9802769626   -2.2439205912    1.5321246186
 H    1.7236233783   -0.7883601190    1.2062622197
 H    0.6392044543    0.3782164014    2.0231102651