14

 O    0.1333179012    1.4225803029    0.1918686456
 C    0.0994042744    0.0521625084    0.0430752294
 C    1.3109912780   -0.7011997355    0.6793897074
 O    1.0355791668   -2.0962142102    0.6331339044
 C    1.5444381643   -1.4805098350   -0.5511695709
 C    0.3511786717   -0.7776185841   -1.2595605990
 O   -0.9337391565   -1.4453700090   -1.0784029118
 C   -1.2293413040   -0.6925433450    0.0445505292
 N   -2.2792317126   -0.5806243827    0.7174790330
 H   -0.7725509336    1.7510390041    0.1557035751
 H    1.9807019025   -0.3203247407    1.4415548926
 H    2.4474424823   -1.8918603251   -0.9855458551
 H    0.4876509850   -0.3592502112   -2.2544291975
 H   -3.0222370695   -1.1933820569    0.3773281976