13

 N   -0.0664312500    1.0423339199    1.0302195396
 C    0.0215347938    0.0701916296    0.1960033507
 C   -1.2316683584   -0.4666996586   -0.3240201939
 C   -1.4041645073   -1.4659243548   -1.1930371965
 C   -0.4318278663   -2.3252845626   -1.8895834352
 O   -0.7935715813   -3.1828920558   -2.6451921648
 O    0.9544269542   -2.2311648633   -1.7457546810
 N    1.7523875119   -1.3961309028   -0.9894549574
 C    1.3344259304   -0.4729816220   -0.2125353251
 H    0.8600502871    1.3501436370    1.3379018000
 H   -2.1063380725    0.0394100138    0.0723906557
 H   -2.4131334433   -1.7436622672   -1.4782847192
 H    2.1778435315    0.0323006767    0.2615480572