17

 O   -0.0653877086    1.4496141816   -0.0031256392
 C   -0.0107240381    0.0335867060    0.0264416630
 C   -1.4378671057   -0.4926214888   -0.0302309237
 C   -1.4184301053   -2.0156329059   -0.0366369093
 O   -0.6024382278   -2.5730870644   -1.0793038778
 C    0.6348958262   -2.0362225744   -1.3083265398
 N    1.6011036746   -2.7434135878   -1.7184548841
 C    0.7649137193   -0.5360340557   -1.1666488248
 H    0.8366239154    1.7864402607    0.0070665890
 H    0.4581564324   -0.3126263198    0.9635412276
 H   -2.0140172722   -0.1376766911    0.8300606536
 H   -1.9219845940   -0.1109970388   -0.9363990376
 H   -1.0541325853   -2.3952531885    0.9286729666
 H   -2.4162534689   -2.4272142126   -0.2029686218
 H    1.3084951443   -3.7212222401   -1.7849451685
 H    0.3532461635   -0.0727536943   -2.0732075228
 H    1.8292116100   -0.2930924361   -1.1241830906