21

 C   -0.0702222366    1.6990406545    0.1218298658
 C    0.1929874761    0.2029260474   -0.0767265819
 C    0.7152340979   -0.4792023793    1.1891691362
 C   -0.3762619044   -0.7146550461    2.2921505595
 C   -0.3278956864   -2.2007576262    1.9288510140
 O   -1.0752924457   -3.1314487564    2.0796288827
 C    0.9448636754   -2.0343843174    1.0996004199
 C    0.9562437069   -2.8232961236   -0.2121539257
 O    0.9059602721   -4.2111861879    0.0565868068
 H    0.8464411144    2.2251208688    0.4102596235
 H   -0.4444755359    2.1594599207   -0.7973441774
 H   -0.8130007702    1.8753786974    0.9072281029
 H   -0.7305172778   -0.2892133055   -0.4092382448
 H    0.9196591954    0.0667655885   -0.8872171443
 H    1.5943852689    0.0580518631    1.5544011298
 H   -0.0221131801   -0.5319751477    3.3116162419
 H   -1.3449768398   -0.2224301560    2.1676291744
 H    1.8140418338   -2.3365352655    1.6960002773
 H    0.1180775141   -2.5074219129   -0.8519357726
 H    1.8796333703   -2.6407907881   -0.7720250659
 H    0.1234822916   -4.3582000878    0.6050582878