18

 C   -0.1614202448    1.5349347150   -0.0235082969
 C    0.1158907589    0.0353117620   -0.0276553792
 C    0.9660392784   -0.4763569022   -1.2004255369
 C    1.5282531684   -1.8200081990   -0.7315513266
 O    2.0199458941   -2.6709874917   -1.4219793309
 C    1.3405782134   -1.9171404117    0.7921298213
 C    0.8729255682   -0.5098875524    1.2310314920
 C    2.0128626424    0.3379329395    1.5890081016
 N    2.9157668631    1.0075323183    1.8595379239
 H    0.7699432136    2.1088361743    0.0048761679
 H   -0.7117255013    1.8256736926   -0.9233874634
 H   -0.7629285119    1.8255183552    0.8441395743
 H   -0.8414836129   -0.5018749989   -0.0406157330
 H    0.4274400771   -0.5806512967   -2.1445998639
 H    1.8164217614    0.1959324067   -1.3816852893
 H    0.5513176012   -2.6522273147    0.9873876638
 H    2.2483067076   -2.2713557715    1.2831373154
 H    0.2060206933   -0.5480934147    2.0972903401