17

 C    0.0486608536    1.5975434675   -0.3363970676
 C   -0.0854888440    0.1019771326   -0.1447834330
 C   -1.4365023736   -0.4188262155    0.3172690094
 C   -1.7047286768   -0.0694395163    1.7980746092
 C   -2.9714666022   -0.6168679828    2.2749383155
 N   -3.9786625780   -1.0557449272    2.6332758724
 C    0.8140487964   -0.8056218576   -0.8735102330
 O    1.0267429533   -0.5274201961    0.5133377160
 H    1.0678304861    1.8525609836   -0.6352614386
 H   -0.6419617899    1.9526662887   -1.1086159263
 H   -0.1733760071    2.1415208947    0.5876652781
 H   -2.2328112418   -0.0059146289   -0.3112088283
 H   -1.4662366605   -1.5060368224    0.2061650690
 H   -0.8895770389   -0.4665912273    2.4122900964
 H   -1.7213399950    1.0151894970    1.9489893339
 H    0.4919412000   -1.8203216484   -1.1036234028
 H    1.5610536384   -0.3935877415   -1.5508508203