20

 C   -0.0779419053    1.5167410754    0.0080510961
 C    0.0241483888    0.0172077161    0.0156014894
 C   -0.8181954624   -0.8518129275    0.9154969339
 C    0.6786325954   -0.9275284833    1.0332416720
 C    1.2416700063   -1.7994314682   -0.0953610179
 C    0.6180383945   -0.8139258880   -1.1382015351
 C   -0.3106565428   -1.3574541959   -2.2081676744
 O    0.4747949703   -2.1359866657   -3.1029992337
 H    0.8605216489    1.9783913263   -0.3208724909
 H   -0.8703914064    1.8638694675   -0.6667502259
 H   -0.3078137682    1.9025663498    1.0069383063
 H   -1.3220607545   -0.3150859415    1.7139902853
 H   -1.3833413904   -1.7003700581    0.5361844543
 H    1.1912067924   -0.6768020839    1.9548975281
 H    2.3319455323   -1.8220113620   -0.1410095095
 H    0.8727461681   -2.8303719167   -0.1277517232
 H    1.4138073474   -0.2507428824   -1.6371396709
 H   -1.1061510447   -1.9664289376   -1.7514147005
 H   -0.8011735707   -0.5205138341   -2.7331138310
 H   -0.1129816592   -2.5314726502   -3.7530842625