21

 C   -0.7043462162   -0.6256212619   -1.4538314448
 C   -0.3028276861    0.2649725011   -0.7514817540
 C    0.1915073914    1.3153013069    0.1132609251
 C   -0.1305607945    1.2546506005    1.6420117539
 C    1.2998923880    1.7600614982    1.9327365328
 C    1.5561348164    3.2505409039    2.2977672720
 C    2.7514134842    2.7909251787    3.1757704096
 C    2.1651574358    1.3528628187    3.1479734103
 C    1.7065854339    1.3295882071    0.4972423811
 H   -1.0612804067   -1.4072047470   -2.0772697909
 H   -0.0981685114    2.2929308533   -0.2861159501
 H   -0.9677439129    1.8598117450    2.0002099097
 H   -0.2720298980    0.2202379026    1.9684835832
 H    1.7608769816    3.9448116230    1.4774631659
 H    0.7413893084    3.6599999829    2.9040192414
 H    3.7020127031    2.8551596872    2.6393428407
 H    2.8723868867    3.2692146081    4.1501987200
 H    1.5483173921    1.1471034952    4.0292863515
 H    2.8581780421    0.5180129013    3.0084318290
 H    2.1201351904    0.3172969318    0.4782901922
 H    2.3592843315    1.9932298735   -0.0760177088