14

 O   -0.0608966571   -0.0268375747   -0.1072944711
 C   -0.0189532400    1.1690470471    0.0372809888
 N   -1.0859403236    2.0557898800    0.1732557612
 C   -0.4807878370    3.3729927902    0.1002904012
 C    0.7702310387    3.3552259988   -0.8413998444
 N    1.4280116895    4.3544106234    0.0715397404
 C    0.7891547198    3.3421152309    0.9893200147
 C    1.1694045902    2.1284637378    0.0674583708
 H   -1.9798924314    1.8408385658   -0.2413122209
 H   -1.1524029101    4.2269428562    0.1242795651
 H    0.8178338058    3.4282276715   -1.9296279044
 H    2.4401026766    4.2030295938    0.0602769985
 H    0.8508690680    3.4005347185    2.0771692833
 H    2.1777184708    1.7197566606    0.0522546268