21

 C   -0.0431494683    1.4672183498    0.1532575595
 C    0.0616199689   -0.0268061493   -0.0249099275
 C    0.0055481275   -0.6051093317   -1.2307850205
 C    0.1328361142   -2.0849678724   -1.5157145680
 C   -0.9452420265   -3.0014560546   -0.8729917931
 C   -1.6036850413   -2.4954973190    0.4257638264
 C   -0.6521593252   -1.9909466383    1.4982520456
 O    0.7533058457   -2.1032451612    1.2669359014
 C    0.1753952241   -0.7886741396    1.2538928347
 H    0.8592828320    1.8746149118    0.6272669950
 H   -0.1819023810    1.9733005490   -0.8050065570
 H   -0.8847229365    1.7379796875    0.8042713541
 H   -0.1094255753    0.0499504714   -2.0918995407
 H    0.1146021992   -2.2388788895   -2.5993382799
 H    1.1148629244   -2.4175615871   -1.1718620175
 H   -1.7554960355   -3.1718049577   -1.5913557266
 H   -0.4918120734   -3.9807037029   -0.6873851013
 H   -2.2962396815   -1.6789592234    0.1840294214
 H   -2.2169650923   -3.3029074631    0.8406779356
 H   -0.9421795714   -2.1967168623    2.5294025274
 H    0.4617576121   -0.1893050473    2.1190623410