23

 C    0.1592462382    1.2161459899   -0.3409349493
 O    0.3653391852   -0.1770852718   -0.2455828363
 C    0.7388704877   -0.6508256379    1.0551849723
 C   -0.4708823157   -0.7136463332    1.9902655736
 C    1.4148884742   -2.0112049836    0.8882017402
 C    0.6508961123   -3.0548528874    0.0128575750
 C    1.6859472919   -2.8394334451   -1.1336818967
 O    1.2153279695   -2.0925380764   -2.2268967208
 C    2.5895047513   -2.0535936866   -0.1340384273
 H    1.0446279932    1.7768901602   -0.0062317242
 H   -0.0257886013    1.4438645007   -1.3934474076
 H   -0.7069234810    1.5515247216    0.2452689911
 H    1.4820009009    0.0504911271    1.4712000919
 H   -0.1603395181   -1.0382483195    2.9882675696
 H   -0.9529030464    0.2622505713    2.0961215917
 H   -1.2128771340   -1.4227659145    1.6115456893
 H    1.6754336840   -2.3674392184    1.8890540877
 H    0.6748823459   -4.0618154214    0.4377661407
 H   -0.3789971908   -2.8134286677   -0.2618570336
 H    2.1240853838   -3.7491819379   -1.5523354947
 H    0.8192394808   -1.2932949553   -1.8498618329
 H    2.9468558420   -1.0910187780   -0.5095777975
 H    3.4444470465   -2.6324655258    0.2259551879