15

 O    0.1219871126    1.3701534149   -0.2405739571
 C    0.0624727335    0.0278595765   -0.0827523550
 C   -0.3361154670   -0.8566652794   -1.2138025816
 C   -1.1985175680   -1.0711917710   -0.0018509369
 C   -0.4024234458   -1.8829173978    1.0294469709
 C    0.5730359575   -0.6859054074    1.1087503430
 O    1.2357487527   -0.2453076358    2.0154982170
 C   -2.5770109597   -0.7770178589    0.0674467878
 C   -3.7512714921   -0.5183510193    0.1458183432
 H    0.2762914721    1.7549635769    0.6340884613
 H   -0.8097115257   -0.3007045400   -2.0177585873
 H    0.3163596028   -1.6597027254   -1.5530535742
 H   -0.9113901417   -2.0313247612    1.9832748232
 H   -0.0018714315   -2.8345322342    0.6682589911
 H   -4.7878306197   -0.2967413580    0.2069076145