21

 C   -0.0639527551    1.5682228712   -0.1715076689
 C    0.1625815825    0.0640910638   -0.0459514023
 C    0.8137102794   -0.5614410771   -1.2707156732
 O    1.2457213026    0.0943058394   -2.1892723299
 C    0.8634779935   -2.0960966706   -1.2942282927
 C   -0.4298540174   -2.6596872337   -1.9696445323
 C    0.1275219220   -3.5621194736   -3.0885654907
 C    1.5070733794   -2.9480116747   -3.3400037059
 O    1.9652882867   -2.5665857683   -2.0466049881
 H    0.8771085670    2.0832265090   -0.3780576044
 H   -0.7444804642    1.7942756806   -0.9970392387
 H   -0.4911684011    1.9756689511    0.7488991703
 H    0.8094333095   -0.1676829018    0.8128920777
 H   -0.7753328218   -0.4718731396    0.1577578088
 H    0.9768817392   -2.4717384185   -0.2700773848
 H   -1.0579036368   -3.2010919493   -1.2596737705
 H   -1.0300681304   -1.8488449993   -2.3936244680
 H    0.2366862054   -4.5908366586   -2.7322816534
 H   -0.5074453322   -3.5727169152   -3.9777325647
 H    2.2350928954   -3.6494002908   -3.7561795293
 H    1.4418080365   -2.0707790140   -3.9978040590