19

 C    0.0057515009    1.4284370966   -0.3516306575
 C    0.0399021956   -0.0154088047    0.0885762308
 N    1.3482466617   -0.6983017337    0.0895732633
 C    0.6272549693   -0.5104817350    1.3684596789
 C    1.2927137178    0.4255531307    2.3590110474
 C   -0.0223134294   -1.7313751578    2.0112533863
 C    0.9882158450   -2.6517852302    2.6703364924
 O    0.8773432648   -3.1145093437    3.7758587233
 H    0.8864972743    1.9753814683   -0.0104891358
 H   -0.0176262583    1.4890821800   -1.4449996407
 H   -0.8883537982    1.9322057112    0.0316022300
 H   -0.8077639606   -0.5987097059   -0.2726515015
 H    1.2517543686   -1.6533252846   -0.2472605861
 H    1.8154391380    1.2358545947    1.8500442709
 H    0.5534608643    0.8576721322    3.0425486429
 H    2.0300100302   -0.1115238478    2.9664133305
 H   -0.7668962068   -1.4475350615    2.7622100414
 H   -0.5362118809   -2.3196989202    1.2369177689
 H    1.8737171237   -2.8909580986    2.0363185745