19

 C   -0.6712294872    1.5218651458   -0.5936550170
 C   -0.2690809367    0.0773222380   -0.3408151387
 N    1.0127948750   -0.4476541467   -0.9171057568
 C    1.8400374843    0.3545446506   -1.7999743822
 C    1.5228412783   -0.7968119086    0.3952425103
 C    1.5682101440    0.3480036625    1.3633398224
 C    0.2312391387   -0.3118471834    1.0685706849
 C   -0.5619105471   -0.9414366295    2.0684333845
 N   -1.2280817044   -1.4406316634    2.8734721282
 H    0.0848012306    2.2358297578   -0.2575368322
 H   -0.8507786964    1.6934047219   -1.6597971555
 H   -1.6029351591    1.7386254039   -0.0617221893
 H   -1.0884407364   -0.5845475003   -0.6433513131
 H    2.1890430343    1.3092607247   -1.3720615982
 H    2.7239554204   -0.2300815724   -2.0757142636
 H    1.2899263073    0.5735350517   -2.7199825032
 H    2.0619702942   -1.7237014611    0.5598313822
 H    1.9715637420    0.1127707719    2.3426596215
 H    1.7515359485    1.3642555165    1.0300480559