22

 C   -0.1578590354    1.5741026938    0.0211470670
 C   -0.0223100983    0.0711364549   -0.0915729329
 C    0.6603536204   -0.6543284562   -1.2000337851
 C    1.6656436862    0.0751784746   -2.0867288183
 C    2.7856723530    0.5901304201   -1.1419433240
 O    2.7822190044    2.0038132903   -0.9544329683
 C    2.5203884311   -0.1443730140    0.2073623453
 C    2.7972629730    0.6660128675    1.4706586993
 N    1.1750123661   -0.7558992265    0.1782683017
 H    0.6932585750    2.1206007360   -0.3831639508
 H   -1.0613596890    1.8888703380   -0.5150993738
 H   -0.2873950436    1.8667745737    1.0690075079
 H   -0.9002529344   -0.4393686174    0.3056785113
 H    0.2006496867   -1.5486625707   -1.6162128841
 H    2.0752552704   -0.6254030053   -2.8214066996
 H    1.2240676812    0.9068604284   -2.6467167520
 H    3.7729825642    0.2981557635   -1.5246799410
 H    2.9960421180    2.4131317301   -1.7982018432
 H    3.1960282079   -1.0097890092    0.2150136650
 H    2.1965966341    1.5751313443    1.5139516634
 H    2.5749911988    0.0558497300    2.3503304872
 H    3.8496197202    0.9616940340    1.5111257652