23

 C   -0.3166440807    1.8215594628   -0.1503720777
 C   -0.1612006389    0.3076300504    0.0326264479
 C   -1.4642014767   -0.4529134430   -0.2060969279
 C   -2.0910891507   -0.5946598353   -1.6387946568
 C   -2.2637696427   -2.1013245501   -1.4014534449
 C   -0.9291970851   -2.7812385360   -1.1765446626
 C    0.3489318868   -2.5265307934   -1.9507090615
 C   -1.5411561900   -1.9789891960   -0.0567261212
 O   -1.8947873808   -2.5774215806    1.1468853388
 H    0.6258082626    2.3464144010    0.0348164009
 H   -0.6393173726    2.0671654212   -1.1681290095
 H   -1.0657582613    2.2272027214    0.5388920873
 H    0.6267186845   -0.0616544182   -0.6326675953
 H    0.1813723477    0.0984826768    1.0553741250
 H   -2.2340029025   -0.0374982896    0.4554855385
 H   -3.0363605401   -0.0595119181   -1.7470486523
 H   -1.4436453546   -0.3155768528   -2.4764616282
 H   -3.1526771578   -2.6703511553   -1.6456519326
 H   -1.0871548317   -3.8391182426   -0.9656436054
 H    0.4367421363   -1.4947676805   -2.2970122149
 H    1.2348820803   -2.7480104874   -1.3446309813
 H    0.3875277224   -3.1698299458   -2.8371437260
 H   -1.0997557445   -2.9403969386    1.5504591195