22

 C    0.4276952596   -0.0696272960    1.6040117707
 C   -0.0009503430   -0.1325575230    0.1349495028
 C   -1.4022588440   -0.6977417600   -0.0783055392
 C   -1.6945172691   -1.3884340338   -1.3908025562
 C   -1.5697426011   -2.1990131788   -0.1252344714
 N   -2.4781373419    0.0750079016    0.4952213166
 C   -2.8896730950    1.3002126375   -0.1746001441
 C   -3.0044527512   -0.2215570381    1.7225351348
 O   -3.8503539318    0.4284250603    2.3022047780
 H    1.4420832566    0.3299921117    1.6950734208
 H   -0.2356477685    0.5762210393    2.1872792051
 H    0.4160368160   -1.0634868175    2.0637990817
 H    0.0534591445    0.8694651503   -0.3094274321
 H    0.7057855357   -0.7506748261   -0.4306217421
 H   -2.6884509590   -1.2745825119   -1.8082416318
 H   -0.8979851953   -1.4381744333   -2.1247166644
 H   -0.6819921803   -2.8050186894    0.0200071176
 H   -2.4765379451   -2.6311194714    0.2797765702
 H   -3.1703735511    1.0931007066   -1.2119707014
 H   -3.7446923289    1.7029947739    0.3679260686
 H   -2.0876740370    2.0482493762   -0.1767682104
 H   -2.5733121002   -1.1501369081    2.1374355359