26

 C   -0.0102163604    1.5753831210    0.1922830748
 C    0.0124192921    0.0425286972    0.0387768639
 C    0.5359103449   -0.5977045509    1.3385009837
 C   -1.4256020527   -0.4500067847   -0.2118188917
 C    0.8748920487   -0.3820332015   -1.1756797408
 C    2.3669534661   -0.0438783816   -1.1167699179
 N    3.0413373579   -0.5393087200   -2.3153441181
 C    3.0946317639    0.3761779433   -3.4501625963
 C    4.3142732820    0.0887827148   -2.6458793292
 H    0.9814015687    1.9805442782    0.4164628836
 H   -0.3714605860    2.0590110935   -0.7223559445
 H   -0.6768701800    1.8714199740    1.0098561413
 H   -0.1359558398   -0.3765884738    2.1750800086
 H    0.6021947605   -1.6874037408    1.2440920336
 H    1.5281238210   -0.2236103944    1.6097986775
 H   -1.8368607032   -0.0212139646   -1.1324337281
 H   -1.4591834916   -1.5407979175   -0.3078417936
 H   -2.0875656715   -0.1660777768    0.6138492311
 H    0.7861506405   -1.4663329317   -1.3157106731
 H    0.4533172521    0.0765506889   -2.0803675063
 H    2.5161075895    1.0439739838   -0.9927451038
 H    2.8369763262   -0.5313839806   -0.2553886527
 H    2.9589270891   -0.0705989561   -4.4310220455
 H    2.6455978525    1.3619553946   -3.3323797074
 H    4.6766886995    0.8834680002   -1.9948560077
 H    5.0863758598   -0.5742217043   -3.0262208316