19

 C   -0.3839628138    1.5295697229    0.0933332029
 C    0.0640712638    0.0765066810   -0.0006930054
 C    0.6985360634   -0.5356916386   -1.2650825487
 C    2.1129578829   -0.1211784359   -1.5056971293
 C    2.7787344769    1.2136627817   -1.2248254005
 O    4.1915566600    1.0882441474   -1.2310949305
 C    1.8440188607   -1.1705546914   -0.4281510792
 C    1.2719148919   -0.4972311209    0.7919142844
 O    1.5531916893   -0.5065595435    1.9573864924
 H    0.3806744511    2.2300145114   -0.2496455531
 H   -1.2824240384    1.6981078046   -0.5093606276
 H   -0.6263259968    1.7773097924    1.1317029277
 H   -0.7735997091   -0.5695708285    0.2998709673
 H    0.1294077753   -1.0371111471   -2.0382048926
 H    2.5334219191   -0.5823651061   -2.3982240459
 H    2.5407464108    1.9249422855   -2.0234744867
 H    2.4271095166    1.6466466491   -0.2797178774
 H    4.4328464836    0.5052767886   -0.5029814575
 H    2.2856886126   -2.1584170827   -0.4715362504