16

 C   -0.0790957673    1.4552871169   -0.0019132785
 N   -0.0461533116    0.0092133455   -0.0989727283
 C    0.7856240618   -0.6406056230   -0.9712637803
 O    1.5822498556   -0.0594356254   -1.6905555955
 C    0.6692594818   -2.1202205729   -0.9807231869
 C    0.1257998692   -2.9669376181   -0.0579314811
 O    0.2640774859   -4.2543283144   -0.4497374453
 C    0.9136938876   -4.2358778530   -1.6505740138
 C    1.1919382098   -2.9634770776   -2.0200626077
 H    0.8063451682    1.8364609164   -0.5111937282
 H   -0.9687890433    1.8792891771   -0.4837566134
 H   -0.0621278517    1.7745728893    1.0451527325
 H   -0.7938916496   -0.5153060675    0.3231965557
 H   -0.3419470168   -2.8221986179    0.9025598519
 H    1.0951313511   -5.2006274052   -2.0938105048
 H    1.7013424293   -2.6245546502   -2.9069144360