17

 O   -0.0272460986    1.4450722782   -0.3467069093
 C   -0.0645029784    0.0633546299   -0.2791798701
 C    0.0342932392   -0.6067737163    1.1266096833
 O   -1.3075843907   -0.0257502254    1.4206187553
 C   -1.4263610949   -0.6184597961    0.0583559089
 C   -0.6892506141   -1.8710192178    0.5937427385
 C   -0.0212788187   -2.9022395608   -0.3155109654
 C    0.7957393759   -3.8914800511    0.4919159206
 O    1.9581653353   -4.1360086350    0.3033659390
 H   -0.5691944686    1.7496917599    0.3962172614
 H    0.5357716013   -0.3373193450   -1.0957103043
 H    0.7977544797   -0.5090437142    1.8989458045
 H   -2.3956561732   -0.5399083536   -0.4357310274
 H   -1.2698769696   -2.3466262258    1.3887209323
 H   -0.8110682235   -3.4725888191   -0.8261290363
 H    0.6262077564   -2.4651494138   -1.0775765531
 H    0.2272925326   -4.3958057339    1.3083949519