19

 C    0.0356138767    1.5191888283   -0.1508082669
 C    0.0461871904    0.0082984971   -0.0283987477
 O    0.5074636032   -0.5207030633   -1.2875821097
 C    0.5879063734   -1.8568929074   -1.3769225617
 N    0.2864647066   -2.6504328161   -0.4414334754
 C    0.4070633127   -4.0907575762   -0.5959966412
 C    1.3704656003   -4.6596607306    0.4487327187
 C    1.0672578518   -2.2452323784   -2.6970783161
 N    1.4451943912   -2.6076782244   -3.7274573940
 H    1.0377986925    1.9012447842   -0.3631355572
 H   -0.6339706740    1.8413914955   -0.9528333822
 H   -0.3113108876    1.9609682881    0.7878053593
 H    0.7144384839   -0.3399274999    0.7659572869
 H   -0.9485447595   -0.3984799160    0.1812570662
 H   -0.5906871982   -4.5171440493   -0.4347931147
 H    0.7278531120   -4.3848381051   -1.6052947062
 H    1.4027523294   -5.7508895272    0.3782439654
 H    2.3834070459   -4.2762092813    0.2932959962
 H    1.0523359693   -4.3833459579    1.4577056502