17

 N    0.3381811130    0.9959067851   -0.8130962014
 C    0.0845216132    0.2045884066    0.2734929585
 O    0.8900840127    0.0576987678    1.1716938879
 C   -1.2909822139   -0.4147206699    0.2666549292
 N   -1.4218600578   -1.7365497689    0.9048309663
 C   -2.0952063087   -0.6010032601    1.5186811079
 C   -1.6110324479   -0.1688929018    2.8950376686
 C   -2.3117588515   -0.8837044700    3.9560646514
 C   -2.9101950214   -1.4757285518    4.8141012645
 H    1.2622220640    1.3877277104   -0.8972397834
 H   -0.2584577144    1.0060732594   -1.6214801870
 H   -1.8727815190   -0.2330844257   -0.6360285999
 H   -2.0719558973   -2.3150642687    0.3801872420
 H   -3.1731190208   -0.5211859780    1.3830775866
 H   -0.5327041150   -0.3379720974    2.9498002472
 H   -1.7722091393    0.9109784994    3.0109777521
 H   -3.4205629858   -2.0005555664    5.5828102694