18

 O    0.2292571344    1.1666715819    0.6391487611
 C    0.0630102617   -0.1369389311    0.1182483043
 C   -1.4129315272   -0.4937224983   -0.0709125381
 N   -2.0244310683    0.4678608001   -1.0072830987
 C   -1.6761387241   -0.8896953428   -1.4793339004
 C   -0.3591096607   -0.9350387677   -2.2435465283
 O   -0.1532569587    0.1319103254   -3.1894457237
 C    0.7823948829    0.7903530479   -2.3034647736
 C    0.7089401530   -0.3648544412   -1.2805399288
 H   -0.4061589360    1.7159754055    0.1607777989
 H    0.5217285760   -0.8110840082    0.8483795267
 H   -1.9947302267   -0.8694657795    0.7645630035
 H   -3.0270238511    0.5242510428   -0.8522065027
 H   -2.4844999102   -1.5650405323   -1.7404132632
 H   -0.1933482743   -1.9189343593   -2.6967372001
 H    1.7580219024    0.9289857463   -2.7825312898
 H    0.4089941969    1.7585871938   -1.9560088399
 H    1.6346236200   -0.9355103734   -1.2051364871