19

 C   -0.0228216882    1.6217934362    0.2363129053
 C    0.0900954974    0.1049928911    0.1185034877
 O    0.9249913141   -0.3610758879    1.1687975024
 C   -1.2594492120   -0.6097756964    0.2211053571
 C   -2.4637834802   -0.0410629793    0.8303655361
 O   -2.3268280754   -0.1185076062   -0.5942477533
 C    0.7027888837   -0.2826365055   -1.2287267936
 C    2.1525909093   -0.3305541840   -1.4268117167
 O    1.3984289948   -1.5383650105   -1.2188479639
 H    0.9345905295    2.0906499713   -0.0029166940
 H   -0.7872708552    2.0019188901   -0.4460803492
 H   -0.2877160686    1.8979762443    1.2598657114
 H    1.2463739667   -1.2293739141    0.8838954708
 H   -1.1618062191   -1.6975829719    0.2147466434
 H   -3.2081235051   -0.7088466220    1.2611366389
 H   -2.4485495178    0.9637487636    1.2449039979
 H    0.0547138896   -0.1324600053   -2.0911835914
 H    2.5640644323   -0.2145028369   -2.4271790810
 H    2.8094010942   -0.0551519965   -0.6054554980