19

 C   -0.0881186925    1.4430628580    0.1367526216
 N    0.0046061957    0.0065262710   -0.0055062339
 C    0.0509840262   -0.7166614192   -1.1524068282
 C    0.0424179401   -2.0540921419   -0.8001594439
 C    0.1220690115   -3.2500134115   -1.7003462517
 C    1.5365299319   -3.8275603792   -1.7912070610
 O    1.4893622252   -4.9528335219   -2.6541707162
 C   -0.0160744383   -2.0194691297    0.6124319903
 N   -0.0427774028   -0.7771982565    1.0888059318
 H    0.3240642643    1.9216003581   -0.7539357308
 H   -1.1272375573    1.7636745157    0.2676991506
 H    0.4872669591    1.7482320285    1.0121410356
 H    0.0826993067   -0.2368243592   -2.1187404119
 H   -0.5458014956   -4.0433684350   -1.3460543682
 H   -0.2085298060   -2.9928186937   -2.7123217388
 H    2.2233360928   -3.0544677353   -2.1710870591
 H    1.8847837174   -4.1050735295   -0.7837968877
 H    2.3723298040   -5.3296381755   -2.7067398339
 H   -0.0388166620   -2.8548174432    1.2984620854