19

 O   -0.0659139316    0.3236795622    0.9982577909
 C   -0.0297243008    1.3006721866    0.2796206738
 C   -1.3132461079    1.8526106763   -0.3419768762
 C   -1.2220182160    3.2774861345   -0.8151280929
 C   -0.0680397482    3.8392975273   -1.1663617829
 C    1.2355537858    3.0859460772   -1.1040337071
 C    1.2459257774    2.0358215758   -0.0008065287
 C    2.0707450872    2.3037729542    1.2628694968
 C    2.5253370136    1.2747881265    0.2835428775
 H   -1.5673713083    1.1874327318   -1.1828992488
 H   -2.1157840045    1.7062590801    0.3879805578
 H   -2.1514318157    3.8359342986   -0.8856233668
 H   -0.0446521227    4.8604905570   -1.5358778348
 H    1.4234249386    2.6068101852   -2.0778334725
 H    2.0719619869    3.7782552563   -0.9566505345
 H    2.5909030403    3.2545198015    1.3096122491
 H    1.6485970201    1.9552509376    2.1981796193
 H    2.4059849373    0.2341443665    0.5613999554
 H    3.3758330187    1.5015748851   -0.3506213053