19

 O   -0.1898374005    1.4690067758   -0.0279880479
 C    0.0194841520    0.0806622182   -0.0085400669
 C    1.0525677094   -0.5225836273   -1.0002398370
 O    1.6740530389   -1.2688448315    0.0639009353
 C    0.9763128235   -0.5051282500    1.0666184527
 C   -1.3354393378   -0.6006131147   -0.0527728350
 C   -2.4206902215   -0.1239475712    0.9416177010
 O   -3.3310383328    0.1821880312   -0.1330003401
 C   -2.3441825832   -0.1414587022   -1.1323125676
 H    0.6640085433    1.9130558329   -0.0002581293
 H    0.6829239328   -1.1685486478   -1.8042715214
 H    1.7289118286    0.2343034055   -1.4265916819
 H    1.6198748485    0.2592620265    1.5288196117
 H    0.5480274587   -1.1376707449    1.8520074941
 H   -1.1804340363   -1.6816734884   -0.0379267993
 H   -2.8260797689   -0.8856973029    1.6181242019
 H   -2.1499193365    0.7694456749    1.5161100527
 H   -2.0312662489    0.7422880622   -1.7002780275
 H   -2.6991027793   -0.9147602763   -1.8239054656