16

 C   -0.0230649481   -1.1741651136   -0.0440082002
 C   -0.0205511557    0.0285862542   -0.0190212256
 C   -0.0071151076    1.4725852215    0.0152913412
 C   -0.1151904740    2.0797614351    1.4571772814
 C    1.4163800045    1.9159816226    1.5771042964
 C    1.4285838814    2.1347126909    0.0365686307
 N    1.2762026644    3.5641543951   -0.2414667012
 C    0.3553839157    4.1092931390    0.4386417863
 O   -0.4436434305    3.4757931005    1.3351261493
 H   -0.0315506118   -2.2355613555   -0.0763773542
 H   -0.6960273498    1.8978983400   -0.7196102201
 H   -0.8019032988    1.6539920550    2.1860098056
 H    1.9590815874    2.6352949226    2.1922011544
 H    1.6746339840    0.8924781701    1.8493336244
 H    2.2148326386    1.6973122591   -0.5755359389
 H    0.1135995504    5.1656598734    0.3630903006