15

 C    0.2081886131    1.4487603137    0.0995978022
 N    0.2251389298   -0.0054853874    0.0783012409
 C    0.4466637261   -0.6190312776   -0.9943236193
 C    0.4884442873   -2.1202128753   -1.1493124269
 C    0.7343245360   -2.3417562559   -2.6321787769
 O    0.8178767700   -3.3825188571   -3.2246136845
 C    0.8611705856   -0.9524456728   -3.2612734348
 O    0.6910696114   -0.0093683863   -2.2111713617
 H    1.0866106766    1.8099783094    0.6475342734
 H    0.2004714542    1.9164081344   -0.8907255239
 H   -0.6722499432    1.7819662799    0.6586290946
 H    1.2922543473   -2.5664760960   -0.5554272778
 H   -0.4439195057   -2.5931654436   -0.8287536921
 H    1.8460516937   -0.8270483004   -3.7261229029
 H    0.0949122279   -0.8069821251   -4.0319503206