15

 C   -0.1645829376    1.5364701748    0.0431594998
 C    1.3735686732    1.5710023756   -0.1720341135
 N    1.4248633620    0.1640758112    0.2575169077
 C   -0.0411207196    0.0009845444    0.2526690337
 C    2.3320930889   -0.7518181562   -0.1422294802
 N    3.5280233575   -0.4996669206   -0.6190879090
 O    4.0533155594   -1.7527735633   -0.8247469328
 N    3.1283498287   -2.6995310544   -0.4676494433
 N    2.0898876670   -2.1177714073   -0.0549779237
 H   -0.4937029367    2.0736603166    0.9331149879
 H   -0.7677482508    1.8485017315   -0.8086693060
 H    1.6870765287    1.7083477110   -1.2138480245
 H    1.9500758261    2.2492345710    0.4628321793
 H   -0.4437739723   -0.4064382050    1.1835162806
 H   -0.4053852546   -0.6021163193   -0.5865124858