18

 C    0.0815184924    1.5637669600    0.0152646621
 C    0.0038564526    0.0301996797    0.0300945775
 C    0.7419777442   -0.5362502343    1.2507555509
 C   -1.4444651140   -0.4890682657    0.0042266578
 C   -2.2095936401   -0.1293584827   -1.2864640030
 C   -3.5515170180   -0.7068841438   -1.3163846270
 N   -4.6095267197   -1.1718389577   -1.3230868371
 H    1.1227382546    1.8986932286    0.0555049142
 H   -0.3636742477    1.9973900285   -0.8855885108
 H   -0.4368194239    1.9889284472    0.8831382639
 H    0.5084742105   -0.3450378786   -0.8725063079
 H    0.2749247765   -0.1970232669    2.1828857344
 H    0.7322208413   -1.6309992736    1.2523160352
 H    1.7863737877   -0.2089365694    1.2654156122
 H   -1.4402822696   -1.5793046332    0.1108250082
 H   -1.9945032021   -0.0947812213    0.8674791544
 H   -2.3030488473    0.9560001906   -1.3967875241
 H   -1.6591744274   -0.4885460874   -2.1645299508