18

 C    0.2464095653    1.4963425090    0.0909536484
 O    1.1465126037    0.4297136064   -0.2085033773
 C   -0.2189318292    0.1026242548    0.0808755345
 C   -0.4677631285   -0.6645242221    1.3321175040
 C   -1.8324369916   -0.8547191469    2.0681193319
 C   -0.7872650576   -1.6480602643    2.9038922187
 C   -0.2263675609   -2.1916569180    1.5601419570
 C    0.1710631343   -0.4338909626    2.7353594110
 H    0.4171392710    1.9972467913    1.0425453273
 H    0.0011947628    2.1525203679   -0.7433225184
 H   -0.7844738294   -0.2344006928   -0.7905721522
 H   -2.2632960399    0.0365885468    2.5334249417
 H   -2.5935212086   -1.4420662786    1.5462134142
 H   -0.9715269098   -2.2147282907    3.8164506808
 H   -0.8688783118   -2.8769560361    0.9996341550
 H    0.8153347895   -2.5226601691    1.5556757702
 H    1.2420390464   -0.6330344013    2.8184330609
 H   -0.1101962256    0.4857453163    3.2569998924