17

 O   -0.0534083721    1.3433410399    0.1091373465
 C    0.0644475949   -0.0346667203    0.0589715194
 C   -0.3450406165   -0.9048856470   -1.1120870546
 O    0.4947784383   -2.0291531468   -1.1923604556
 C    0.7738565847   -2.2091897979    0.1730488776
 C   -0.5395888931   -2.0806018759    1.0327273939
 C    0.3261910357   -1.3491463986    2.0969609691
 C    1.1101501019   -0.8394149125    0.8587028366
 C   -1.1417178171   -0.9501378580    0.1880139191
 H    0.6344735501    1.7247926063   -0.4478405172
 H   -0.7276791529   -0.5372200428   -2.0548999631
 H    1.4329420285   -3.0579774516    0.3385127429
 H   -1.1718883360   -2.9350537295    1.2695360646
 H   -0.1634901834   -0.6025237306    2.7263976807
 H    0.9086608664   -2.0395537798    2.7141393392
 H    2.1203985943   -0.4334102886    0.9139707920
 H   -2.1585088137   -0.5926169365    0.2687303587