17

 N    1.6843867028   -0.3527753193    0.1552839171
 C    0.8876372846    0.4828648237    0.1282334251
 C   -0.1209267579    1.5556070035    0.1057684578
 O    0.2555516843    2.6462238245   -0.7126287552
 C    1.2305813370    3.4567200013   -0.2107713889
 N    1.6326312725    4.4275702032   -0.8932803161
 C    2.6447801558    5.2921662231   -0.3600620829
 C    3.7088606140    4.8735886990    0.6312994023
 C    4.0687977498    5.1452951089   -0.8154728287
 H   -1.0504966553    1.1651216028   -0.3151336861
 H   -0.3234898068    1.8721146125    1.1375003557
 H    1.5823589746    3.1785406121    0.7908768354
 H    2.2862291904    6.3148544720   -0.2793227476
 H    4.0114770308    5.5889071294    1.3882596545
 H    3.7493092307    3.8414843341    0.9607435218
 H    4.2961160147    4.2840911395   -1.4341603534
 H    4.6290647379    6.0402067898   -1.0615880708