21

 C    0.1080839698    0.5294252270   -0.6157810704
 O   -0.4540335940   -0.1911219837    0.4645431900
 C    0.4791623705   -0.5269883038    1.4542223975
 C   -0.1455735406   -1.3777788964    2.5835455162
 C    0.8582469509   -2.5334417944    2.2943394498
 C    0.2878456178   -3.7754856117    1.5965454970
 C    0.1279347831   -3.3058674039    0.1408708634
 O    1.2094269877   -2.3992293799   -0.0844301396
 C    1.4688862869   -1.7069105630    1.1177092943
 H    0.8569519240   -0.0664207399   -1.1507042815
 H   -0.7099899442    0.7738821680   -1.2978935008
 H    0.5730448717    1.4667245094   -0.2710996989
 H    1.0078971687    0.3719947627    1.8095839512
 H   -0.0773372472   -0.9402884659    3.5816798255
 H   -1.1911249123   -1.6258493528    2.3816875206
 H    1.5274517224   -2.7788810547    3.1195861117
 H    1.0053619886   -4.6004817437    1.6493169876
 H   -0.6558243599   -4.1155274516    2.0328248334
 H    0.2142168915   -4.1121741104   -0.5924357159
 H   -0.8316288056   -2.7938378885   -0.0083025520
 H    2.5321406404   -1.4551111526    1.1415871109