19

 C    0.0999517049    1.4986659691    0.2337611257
 C   -0.0094041980   -0.0037354617   -0.0440390943
 C    0.7104888633   -0.4304350315   -1.3166292304
 O    2.0706209407   -0.1203910866   -1.2401574254
 C    2.7486015462   -1.0871186354   -2.0371949179
 C    1.9091474815   -2.3522936445   -1.8112637877
 O    0.6077231686   -1.8522840256   -1.4961386810
 C    0.0502727965    0.1504268634   -2.5855285080
 O    0.6314207632    0.7600205864   -3.4423114447
 H    1.1463218805    1.7973486153    0.3331545547
 H   -0.3411873258    2.0941697700   -0.5728018336
 H   -0.4224647000    1.7562339414    1.1590438107
 H    0.4236367577   -0.5860038580    0.7754165482
 H   -1.0582894279   -0.3088273504   -0.1329207393
 H    2.7548904784   -0.7829698332   -3.0893613769
 H    3.7745104577   -1.1715431502   -1.6734764603
 H    1.8531220454   -2.9930764033   -2.6964601182
 H    2.2818528991   -2.9432721317   -0.9657920865
 H   -1.0330661021   -0.0953614932   -2.6656938251