15

 C   -0.0091287109    1.4431204141   -0.0279032557
 C    0.0008449225   -0.0475151369    0.0214066506
 N   -0.0513999094   -0.7971134427   -1.0710904438
 N   -0.0181972411   -2.0532948439   -0.5587946920
 C    0.0494905553   -2.0097860052    0.7830717469
 C    0.1018263496   -3.2387231085    1.6322689058
 O    0.0280655886   -4.3576266891    0.7623130529
 N    0.0638849966   -0.7556954965    1.1919956914
 H    0.8951998126    1.8523666188    0.4334143215
 H   -0.0648292924    1.7841753741   -1.0629641258
 H   -0.8645376955    1.8435323250    0.5252907726
 H   -0.0475420081   -2.8671937515   -1.1498377939
 H    1.0334428810   -3.2332797637    2.2173576238
 H   -0.7325467586   -3.2171212474    2.3486888147
 H    0.0861770900   -5.1592379265    1.2885498709