17

 O    0.0323047697   -0.0023005441   -0.4156612909
 C    0.0080778179    1.1705291187   -0.1146195633
 C   -1.2678732899    1.9509011656    0.1422234873
 C   -1.3011261891    3.1825656843   -0.7884447136
 C   -0.1451412576    4.1612296777   -0.5127801108
 C    1.1872222278    3.4718137480   -0.2369975272
 N    1.3480310389    2.9185790921    1.1064847393
 C    1.2643997311    1.9836670795   -0.0441261334
 H   -2.1178700619    1.2878656411   -0.0323061772
 H   -1.2803749788    2.2776885441    1.1885129821
 H   -1.2445319970    2.8345549055   -1.8274338933
 H   -2.2599146834    3.7010054391   -0.6874779855
 H   -0.0315484155    4.8375884274   -1.3665258590
 H   -0.3832828156    4.7844269504    0.3566690007
 H    2.0632584468    3.9297383857   -0.6912798152
 H    2.3156774966    2.9810415235    1.4117321869
 H    2.1602257300    1.4531429415   -0.3532191768