14

 N   -0.0792168275    1.4757761194    0.0744760504
 C   -0.0389001774    0.0661798300   -0.0426627947
 C    0.5835528516   -0.8228650091   -1.1312121409
 O   -0.5109325018   -1.7769593387   -1.0063518843
 C   -1.1496829151   -0.9542215963   -0.0478175136
 C   -0.2939617949   -0.7955543520    1.1977077512
 C    0.6186331583   -1.8100134550    1.6441584609
 N    1.3689560496   -2.6173580847    1.9955470689
 H    0.7946166959    1.8479458244    0.4336007046
 H   -0.2681599725    1.9201728371   -0.8183264250
 H    0.5672729577   -0.3532905124   -2.1212266850
 H    1.5599261886   -1.2772558794   -0.9364443376
 H   -2.2315369708   -0.8962616790   -0.0398367042
 H   -0.7786631514   -0.2255562841    1.9844296792