21

 C    0.1486425654    1.5134242322   -0.0138889873
 N    1.2808580837    0.5723938848    0.0844514547
 C   -0.1020944830    0.0516361728    0.0066838038
 C   -0.5506931034   -0.6640291610    1.2665816735
 C   -0.1832583305   -2.1464067073    1.1359825026
 C   -0.9211728456   -2.8014712532   -0.0384700264
 N   -0.8812695278   -2.0407001491   -1.3058973328
 C   -1.9215471229   -1.0386992811   -1.5202690466
 C   -0.5155367563   -0.6167450433   -1.2747397476
 H   -0.0322860691    2.1077930512    0.8783762500
 H   -0.0073245824    2.0470255787   -0.9488355240
 H    1.7365812535    0.4904787133   -0.8222884927
 H   -0.0485191073   -0.2087129829    2.1241891505
 H   -1.6317460503   -0.5471648026    1.4181952384
 H    0.9002197346   -2.2199920590    0.9846705260
 H   -0.4152084402   -2.6964974337    2.0541635064
 H   -0.4894438211   -3.7888690183   -0.2376059565
 H   -1.9708406755   -2.9687965997    0.2351726914
 H   -2.3417593310   -0.9967535291   -2.5226984158
 H   -2.6453579272   -0.8704675843   -0.7240978489
 H    0.0751612963   -0.3016798884   -2.1371981288