20

 C   -0.0624151582    1.5135427971   -0.0723982403
 C   -0.0262336664   -0.0168763692    0.0210586984
 C    0.8654218177   -0.4781638105    1.1816286938
 C   -1.4557310444   -0.5810009562    0.1568473467
 O   -2.2739707642   -0.1190327732   -0.9278506813
 C   -2.8583049877   -1.2137845585   -1.6244605726
 C   -2.3496809476   -2.4399360043   -0.9222454701
 C   -1.5672241575   -2.0827095239    0.0889024722
 H    0.9414407354    1.9172033848   -0.2401115171
 H   -0.7099964716    1.8368986648   -0.8899204075
 H   -0.4462769241    1.9516637972    0.8572531931
 H    0.3819868159   -0.4144004969   -0.9179400555
 H    0.4468959687   -0.1677089274    2.1469346111
 H    0.9886091095   -1.5652731178    1.2033751169
 H    1.8629773236   -0.0350266354    1.1006378808
 H   -1.8799926237   -0.1965606593    1.1025180890
 H   -3.9573671443   -1.1384170546   -1.5887398062
 H   -2.5691888104   -1.1828858309   -2.6870303907
 H   -2.6118869340   -3.4470331383   -1.2208572079
 H   -1.0709397365   -2.7447838175    0.7857836672