16

 C    0.0782848841    1.4117290806    0.2599536991
 N   -0.0709612877    0.0601193633   -0.2470578093
 C   -1.2520455271   -0.5857306991   -0.2632294328
 N   -2.3280210379   -0.0266954139    0.1794711252
 C   -3.5044535242   -0.7176505403    0.1448482986
 C   -4.7577517442   -0.3428840882    0.5504801602
 C   -5.5558836194   -1.4741142832    0.2630076424
 N   -4.8728249699   -2.4595396660   -0.2692473948
 O   -3.5572325733   -1.9812140062   -0.3476971579
 H    1.1237046909    1.7098986200    0.1669456743
 H   -0.5490322068    2.1097847790   -0.3033788278
 H   -0.2222496775    1.4676478706    1.3109499411
 H    0.7352310814   -0.4198677156   -0.6049634077
 H   -1.2118781869   -1.5970773984   -0.6744349711
 H   -5.0437232894    0.5993057971    0.9843216116
 H   -6.6164699421   -1.6103251797    0.4256212589