20

 C   -0.2558145050    1.5828277541   -0.1020534046
 C    0.0227385022    0.0866880383   -0.0123592202
 C    1.0603528818   -0.5660584634   -0.9497648517
 C    2.4722481746   -0.2351904468   -0.5984947024
 O    2.8295129639    1.0498640258   -0.1663816479
 C    1.7616169947   -1.2300286635    0.2705561436
 C    0.7931899635   -0.5112992662    1.1867987408
 C    1.0130985886    0.0597905144    2.5324227424
 N    0.1895090633   -1.1569431900    2.3456773157
 H    0.6651801033    2.1574643029    0.0022292447
 H   -0.7106355394    1.8323896399   -1.0671708921
 H   -0.9595609774    1.8966786237    0.6782974986
 H   -0.9174553457   -0.4710950567   -0.1114887617
 H    0.8132779467   -1.0050660982   -1.9093808613
 H    3.1984223140   -0.6873099171   -1.2764696591
 H    3.4710156804    0.9541190950    0.5451980112
 H    2.1012874977   -2.2494604155    0.4104670632
 H    1.9508606474   -0.1034585660    3.0581467916
 H    0.5158965459    0.9955161173    2.7760761109
 H   -0.7986427204   -0.9190751881    2.4032610283