19

 C    0.4401643236    1.6371555049   -0.1079130551
 O    1.6190057251    1.3163006268    0.6782899047
 C    1.2543199776   -0.0719224183    0.7304648578
 C   -0.0193733627    0.1612763796   -0.1186704827
 C    0.5480064306   -0.7733359458   -1.2320235703
 C    1.0187667484   -0.1688661848   -2.5526207485
 O    2.2459941733    0.4865339583   -2.2573358508
 C    2.9409919574   -0.2962922666   -1.2852569642
 C    1.8688867251   -0.9487994795   -0.4040329395
 H   -0.2287151625    2.3046789848    0.4487731321
 H    0.7023019894    2.0937080531   -1.0658507061
 H    1.2763768604   -0.4748987423    1.7468735178
 H   -1.0318685275   -0.0409892106    0.2285151176
 H   -0.0519741056   -1.6745619811   -1.3692904453
 H    1.1681802041   -0.9646257512   -3.3014780446
 H    0.3384211318    0.5765288479   -2.9765321982
 H    3.5487000582   -1.0693222158   -1.7807133409
 H    3.5975446782    0.3812741230   -0.7354909987
 H    2.1297994250   -1.9634052927   -0.0977387853