23

 C   -0.7319463140    1.2394981581   -0.0358448648
 C    0.0381656516   -0.0730023724   -0.0671693481
 C    1.3036913333   -0.1454713065   -1.0090796449
 C    2.1601871056   -0.6077720064    0.1988568760
 C    2.9613033248    0.4385476380    1.0225051623
 C    1.7138337899    0.6223192419    1.9664194306
 C    0.9544545672   -0.4546672345    1.1419218241
 C    1.0657447752   -1.9487819238    1.5561498049
 C    2.2679327568   -2.1170414971    0.5523963822
 H   -0.0707693240    2.0933695554    0.1482363562
 H   -1.2337024450    1.4177550034   -0.9937051853
 H   -1.4974296800    1.2352719347    0.7483330306
 H   -0.6624485842   -0.8884655538   -0.2799800005
 H    1.2321741345   -0.8473612015   -1.8455891565
 H    1.6017687730    0.8286844614   -1.4122638795
 H    3.8528123560    0.0428750468    1.5185896898
 H    3.2567115432    1.3344396803    0.4679538064
 H    1.8845523378    0.3546881638    3.0134277335
 H    1.2722115149    1.6222499276    1.9487595488
 H    1.3276668422   -2.1095277025    2.6063382574
 H    0.1859033228   -2.5600220582    1.3328421947
 H    2.0691959362   -2.7934481320   -0.2844066085
 H    3.2146807321   -2.4199368327    1.0095867808