19

 C    0.2778516414    1.5764925392    0.0223587332
 C    0.0726628633    0.0821030265    0.0069534874
 O    0.7280219118   -0.5038599258   -1.1335628255
 C    1.1114520290   -1.7834113243   -0.7248743826
 C    2.3894649786   -1.9232669535    0.0631812000
 C    1.0669260296   -1.7927781085    0.7757595188
 C    0.2082606658   -3.0714805145    0.7788624875
 C    0.2549515899   -3.0616573553   -0.7948236633
 O    0.6594715088   -0.5182781096    1.1769158951
 H    1.3463465773    1.8018995412    0.0555339784
 H   -0.1558712150    2.0210836396   -0.8768069299
 H   -0.2087163499    2.0100395062    0.8996047782
 H   -0.9984467905   -0.1802221290   -0.0264652500
 H    2.9276837573   -2.8679867516    0.0732537571
 H    3.0044816184   -1.0327048453    0.0869935428
 H    0.6355243443   -3.9372645381    1.2931539918
 H   -0.7958776764   -2.8910116686    1.1671427587
 H   -0.7244677228   -2.8759824801   -1.2396686820
 H    0.7122696992   -3.9211192684   -1.2936396756