21

 C   -0.2198119562    1.5482882292    0.0080174047
 C    0.0337527411    0.0392084955   -0.0027296764
 C    0.8429758171   -0.4344679296   -1.2456237440
 C    1.9451555070   -1.3849787153   -0.7633010465
 O    2.8901117821   -0.6851135700    0.0213214271
 C    2.2748770381   -0.0610422251    1.1568691383
 C    0.8023553627   -0.4836199114    1.2326617662
 C    0.7837129771   -2.0165446345    1.1821645533
 O    1.3813700116   -2.4636301422   -0.0415127550
 H    0.7154334320    2.1182347720    0.0090233061
 H   -0.7826399138    1.8496075765   -0.8817316678
 H   -0.7988868341    1.8497816820    0.8878159610
 H   -0.9422745819   -0.4608906887   -0.0066430485
 H    0.2056745711   -0.9479486091   -1.9708803845
 H    1.3140669422    0.4115367052   -1.7577747920
 H    2.5066534168   -1.8313637295   -1.5860467275
 H    2.8155336396   -0.3849080257    2.0556934003
 H    2.3850900689    1.0286106432    1.0771507932
 H    0.3513180968   -0.1293178876    2.1652048862
 H    1.3445068909   -2.4409591379    2.0267567565
 H   -0.2434034991   -2.4020749068    1.2285002893