21

 C   -0.0056821356    1.5348200877    0.0577832121
 C   -0.0869572407    0.0069840832   -0.0492994431
 C   -1.4993038365   -0.5154906188   -0.0589609329
 C   -2.6264568840   -0.2077965034   -1.0783595555
 C   -3.2600628736   -1.1684219451   -0.0568004730
 O   -4.5653459635   -1.6149013602    0.0323276413
 C   -1.9412054827   -2.0153721888    0.1048731175
 C   -1.9984839950   -1.9141387856    1.6428758165
 C   -2.5097295218   -0.5432312108    1.1543633826
 H    1.0344593738    1.8747034425    0.0575669748
 H   -0.5156128274    2.0184231021   -0.7818339665
 H   -0.4750659282    1.8907484843    0.9808390736
 H    0.4212160977   -0.3239854822   -0.9649154377
 H    0.4606283115   -0.4505340570    0.7848371483
 H   -3.0150685970    0.8159265382   -1.0970853541
 H   -2.4790752624   -0.5866910673   -2.0969308121
 H   -4.7677523177   -2.1232921228   -0.7605131997
 H   -1.6198076361   -2.8451406892   -0.5290100327
 H   -2.7288954716   -2.5524909939    2.1469507442
 H   -1.0435792588   -1.9265706701    2.1772093400
 H   -2.8445878306    0.3221592172    1.7290342763