15

 O    0.0014917055   -0.0266270416   -0.0137165848
 C   -0.0185496513    1.1756873187   -0.0135999711
 C   -1.2435977948    2.1077543671    0.0174962271
 N   -0.7079124632    3.4672329749   -0.1351799974
 C    0.6830120587    3.3706189295   -0.0454281506
 C    1.8003500284    4.1529446330   -0.0125742233
 C    2.9191104941    3.2369397275    0.0085289049
 C    2.4577970456    1.9518867419   -0.0178413910
 N    1.0682086906    2.0391665485   -0.0435292179
 H   -1.9282784668    1.8408138316   -0.7934829283
 H   -1.7719955141    1.9598982080    0.9667367619
 H   -1.1322141206    4.1708846418    0.4519811102
 H    1.8447964183    5.2297050575   -0.0088584729
 H    3.9600176487    3.5244118073    0.0330978403
 H    2.9511083109    0.9959068143   -0.0266459571