17

 C   -0.0396611574    1.4774769065   -0.0055412072
 C   -0.0324318791   -0.0310723069   -0.0701768726
 C    0.7307867001   -0.6972077385   -1.1449504920
 N    1.2873392695   -0.6287565970    0.2522004329
 C    1.2093909863   -2.1339317899    0.3091160468
 C   -0.0960204325   -2.8029913308    0.0308849006
 C    0.7010396134   -2.2442592484   -1.1327711485
 C    1.1766781039   -3.0446378609   -2.2067472614
 N    1.5638847945   -3.6835922167   -3.0919050472
 H    0.8941130705    1.8875665976   -0.3987606758
 H   -0.8730782377    1.8818382681   -0.5887103764
 H   -0.1474618527    1.8140701046    1.0299570524
 H   -0.9281114974   -0.4970480821    0.3258226587
 H    1.2113335325   -0.1599068558   -1.9559224224
 H    2.0434538068   -2.6483664895    0.7678703136
 H   -0.0389616139   -3.8846982981    0.0987416478
 H   -1.0652296366   -2.4020964222    0.3001238806