19

 O   -0.0699058656    1.4758239365    0.0432016536
 C   -0.0215588599    0.0533457737   -0.0156874394
 C    0.6396639546   -0.6065165131    1.2389938396
 C   -0.2571324068   -1.8158928226    1.6453043673
 C   -1.5252719301   -1.5185636850    0.8995861013
 C   -1.4020055696   -0.5238882644    0.0275887823
 C   -2.6795319713   -0.3210687971   -0.7199545715
 O   -3.5740810938   -1.2916442393   -0.1533350273
 C   -2.9046782494   -2.0928719990    0.8279499728
 H    0.8211348994    1.8089304780   -0.1022021076
 H    0.4957431999   -0.2524039254   -0.9412144324
 H    1.6812052253   -0.8927202009    1.0677624075
 H    0.6259015915    0.1489958147    2.0302954792
 H    0.1802940129   -2.7704396958    1.3230101226
 H   -0.3930561038   -1.8928221391    2.7303883350
 H   -3.1017977913    0.6854904237   -0.5908957313
 H   -2.5764484541   -0.4955971228   -1.8032868295
 H   -2.9121421292   -3.1509541446    0.5181761185
 H   -3.4483553888   -2.0335163974    1.7837147793