18

 N   -0.0605055252    1.2598214462   -0.1014423371
 C   -0.0189462034    0.0049275031   -0.0127858429
 C   -1.2549990914   -0.9258338761   -0.0783000062
 C   -0.5462811858   -2.2229786177   -0.3711220462
 C   -0.4237905950   -3.7557002223   -0.1222978109
 C    0.9977207928   -3.2814301647   -0.6389340066
 C    0.2469939256   -2.4563477142   -1.7057960050
 C    0.7945753985   -2.0899488790    0.3430763983
 O    1.1574305181   -0.7240530950    0.1407255881
 H    0.8765298031    1.6588888085   -0.0214898559
 H   -1.7620786898   -0.9254371481    0.8932355885
 H   -1.9535304543   -0.5629767907   -0.8330067682
 H   -0.4885661830   -4.0953647500    0.9149480511
 H   -0.9686773354   -4.4177066793   -0.7980262676
 H    1.8778513947   -3.9109753664   -0.7718181473
 H   -0.2801543240   -3.0211549304   -2.4781558030
 H    0.7731245549   -1.5980056077   -2.1240284617
 H    0.8511232598   -2.3271204264    1.4102503825