21

 C    0.2982604452    0.5082738650   -0.8519521852
 O   -0.1371973821   -0.4904481210    0.0425103067
 C   -1.5264991172   -0.4448737237    0.3002218319
 C   -2.3999649550   -1.1180198514   -0.8001111750
 C   -2.4089035836   -2.4249612546    0.0655930661
 O   -3.6611658435   -3.0300192736    0.2741582888
 C   -1.4076505172   -3.4790553052   -0.4041507333
 O   -1.9352551393   -4.2062806237   -1.5145308229
 C   -1.9094989154   -1.5866826718    1.2665558432
 H    1.3788314728    0.3933646051   -0.9663323945
 H   -0.1734257065    0.4176639470   -1.8420846778
 H    0.0859595339    1.5166959871   -0.4639109132
 H   -1.8182150817    0.5723318932    0.5945795092
 H   -3.4038336774   -0.6902672043   -0.8510848607
 H   -1.9741310763   -1.1607533409   -1.8083913503
 H   -3.7327568739   -3.7212642993   -0.3991816807
 H   -0.4389588399   -3.0198894438   -0.6326621173
 H   -1.2659018810   -4.2189420345    0.3906318247
 H   -1.9202308858   -3.6237764249   -2.2816181769
 H   -1.0918065532   -1.9926765802    1.8677006646
 H   -2.7462204829   -1.3173958144    1.9143696025