25

 C    0.0076851225    1.5750197676    0.1174963317
 C    0.0113953582    0.0463551889    0.0307096126
 C    0.6974349918   -0.4817822067   -1.2333633250
 C    0.7037713963   -2.0103730602   -1.3299634748
 C    1.4455286835   -2.5444704406   -2.5614709789
 O    2.8006691542   -2.0871738405   -2.5964928647
 C    1.3699961830   -4.0707732017   -2.6672902991
 C    2.0396511027   -4.6189798888   -3.9208419159
 O    1.9248341423   -6.0352764670   -3.8899989687
 H    1.0284732699    1.9731614322    0.1177558909
 H   -0.5175469482    2.0184408543   -0.7358414707
 H   -0.4862828118    1.9237896167    1.0299099950
 H    0.5123296020   -0.3692210105    0.9155183132
 H   -1.0214628671   -0.3254591533    0.0678422199
 H    0.1958910020   -0.0668576760   -2.1190456578
 H    1.7311378671   -0.1195149256   -1.2760834496
 H    1.1684843440   -2.4380810181   -0.4280197317
 H   -0.3267176570   -2.3890605820   -1.3463304018
 H    0.9960150930   -2.1021301715   -3.4612099226
 H    3.2445342301   -2.4437951376   -1.8181089329
 H    1.8442688279   -4.5252405654   -1.7861432175
 H    0.3213195923   -4.3905241844   -2.6550431425
 H    1.5489202856   -4.1988575795   -4.8146489164
 H    3.0899004074   -4.2972036156   -3.9454210575
 H    2.3881001382   -6.3885301045   -4.6548620252