19

 O   -0.6820205478    0.8117890793    0.6347333194
 C    0.1196470847    1.0268549413   -0.2397052867
 C    1.2904040771    1.9752899190   -0.1529181727
 C    1.2189958937    3.1487875380   -1.1427098202
 C    0.5808334251    4.3107221140   -0.4050123037
 C    0.2585670451    3.8259120187    1.0056470736
 C    1.4319329115    2.8224914302    1.1340377723
 C    2.6437897055    3.7133718576    0.7653569130
 C    2.0892345751    4.2456154644   -0.5541840769
 H    0.0448333927    0.4951293182   -1.2184159509
 H    2.1911463800    1.3726869664   -0.3477938500
 H    1.1127113894    3.0061180289   -2.2100401152
 H   -0.0132091207    5.0514428524   -0.9235806000
 H    0.3244829532    4.6261496184    1.7503870545
 H   -0.7168709173    3.3441819807    1.0904345642
 H    1.4917704551    2.2661185913    2.0671962796
 H    2.8223713446    4.5026412914    1.5030415747
 H    3.5691034605    3.1405987462    0.6401365014
 H    2.6351513025    4.9328558835   -1.1872192863