14

 C   -0.0119419439    1.4689759215    0.0711449727
 N    0.0906062727    0.0195641441    0.0044786867
 C    0.6456186334   -0.7229372744    0.9743031617
 C    0.7269631712   -2.1001136138    1.1498682733
 C    1.4740713973   -2.2191183072    2.3553320279
 N    1.8125644253   -1.0706602838    2.8692052120
 O    1.2691971976   -0.0996083244    1.9714717203
 C    0.1822537267   -3.0827479798    0.3050855906
 N   -0.2855680176   -3.8605604265   -0.4179377507
 H    0.9536911448    1.8969358173    0.3487388580
 H   -0.2884175553    1.8420990742   -0.9159089285
 H   -0.7613196353    1.7999644642    0.8002898412
 H   -0.4694426765   -0.4780166661   -0.6686873924
 H    1.7715929297   -3.1286813853    2.8580409371