17

 C   -0.1565010278    1.5461551423    0.1593382637
 C   -0.1267255438    0.0410048033    0.1946341198
 O    1.0720110493   -0.5941632529   -0.2892002656
 C    0.7515064127   -0.7275017314    1.0835003438
 C    1.6159228144   -0.2386153762    2.2505514390
 C    1.0052083941   -1.3945004100    3.1002158453
 C    0.4731476524   -2.0556019354    1.7926061907
 H    0.7793508249    1.9645816583    0.5381371846
 H   -0.3001872358    1.9041829994   -0.8655437256
 H   -0.9840081261    1.9291181808    0.7670371946
 H   -1.0422537048   -0.4500875717   -0.1434828441
 H    2.6801933734   -0.3882196542    2.0458098525
 H    1.4666367482    0.7853093638    2.6023282073
 H    1.7026717744   -1.9834954473    3.6977148698
 H    0.1962514362   -1.0478061903    3.7472797702
 H   -0.5540554776   -2.4286129383    1.7876474933
 H    1.1369145659   -2.8446125602    1.4262588805