18

 C   -0.0673800421    1.5590044479    0.0114582788
 C    0.0380872164    0.0345121031   -0.0028720391
 C    0.7427631054   -0.4971817103   -1.2573217754
 O   -0.0585133781   -0.1274154688   -2.3663276943
 N    0.7307437422   -0.4642979724    1.1842418180
 N    1.9875520380   -0.1350657990    1.4611577328
 C    2.2435049469   -0.7928631755    2.5946880187
 C    1.0985430358   -1.5098365755    2.9610540702
 N    0.1485346556   -1.2880576280    2.0488304143
 H    0.9277262013    2.0095212748    0.0572672202
 H   -0.5641553796    1.8900659874   -0.9023762700
 H   -0.6441366309    1.8998618956    0.8752867130
 H   -0.9558042976   -0.4149406865    0.0482497232
 H    1.7520672448   -0.0658513031   -1.3150844031
 H    0.8435741209   -1.5897190614   -1.1744092403
 H    0.4071992990   -0.3715750923   -3.1708483478
 H    3.2062851223   -0.7189994978    3.0745779654
 H    0.9157888997   -2.1517747184    3.8077295655