15

 C    0.0254503102    1.5540511325    0.0541728892
 C   -0.0172810436    0.0158583210   -0.0061481638
 C   -1.3756774260   -0.5146391305   -0.0308221838
 C   -2.5035952740   -0.9382643326   -0.0534538008
 C   -3.8564133994   -1.4244165230   -0.0531981615
 C   -4.3985921291   -2.2330420645   -1.1633624621
 O   -4.0578616189   -2.8437062617    0.0739115289
 H    1.0615895284    1.9041220584    0.0727206524
 H   -0.4710375835    1.9914656921   -0.8161575992
 H   -0.4793170302    1.9221766482    0.9513370739
 H    0.5255994223   -0.3325136901   -0.8940135493
 H    0.5172977903   -0.4002496505    0.8574072066
 H   -4.5651117362   -0.8331933993    0.5264177524
 H   -5.4632467135   -2.1797939863   -1.3887854992
 H   -3.7489606668   -2.4751419337   -2.0023613639