15

 O   -0.0899859515    1.5032558960   -0.0637654807
 C   -0.0442949025    0.1075716948   -0.0720434175
 C   -1.3626177100   -0.6202398482   -0.1578849467
 C   -1.7448703609   -0.7504318257   -1.5925048697
 C   -0.6894029262   -0.0774561107   -2.4514493600
 C    0.2885297824   -0.6462796829   -1.4015344493
 C    1.6412337288   -1.0096151377   -1.7262745367
 N    2.7407928053   -1.2713237986   -1.9720846601
 N   -0.7692707713   -1.7321559023   -0.9971223434
 H    0.7777964091    1.8449590898    0.1757357520
 H    0.5664076361   -0.3024958440    0.7403961918
 H   -2.0463066187   -0.8392150261    0.6525642109
 H   -2.7359728546   -1.0706924449   -1.8890520877
 H   -0.5746127919   -0.5854122126   -3.4104585456
 H   -0.7065295842    1.0068366830   -2.5773902272