25

 C    0.7316203364    0.7900947304   -0.9298882569
 C   -0.0485008559    0.5893548710    0.3784351736
 C   -1.3949448452   -0.0946301085    0.1183279738
 O   -2.1772504098    0.7733202282   -0.6930546669
 C    0.7651504656   -0.1440412743    1.4473511361
 C    1.1596274580   -1.5777105255    1.1214012244
 C    1.7746791776    0.6688360522    2.2301477428
 C    0.5313698329    0.1551860330    2.9197107072
 C   -0.5205158551    1.1032578515    3.4559608434
 H    0.9842729033   -0.1666915465   -1.3997742484
 H    0.1296746973    1.3599375403   -1.6411766917
 H    1.6652923377    1.3313127558   -0.7487546105
 H   -0.2941987690    1.5857713831    0.7628477582
 H   -1.2373441732   -1.0620826045   -0.3839208083
 H   -1.8977420971   -0.2977868443    1.0767161635
 H   -2.9883847884    0.3147243177   -0.9290659216
 H    1.7406811666   -1.6406188202    0.1951300326
 H    1.7767562311   -1.9980312617    1.9216891100
 H    0.2851121750   -2.2287519912    1.0101097491
 H    2.7348655206    0.2219905872    2.4681896176
 H    1.8237576034    1.7352660327    2.0287576588
 H    0.6925536060   -0.7041176787    3.5676686479
 H   -0.6400726040    1.9911779286    2.8295350973
 H   -1.5001620169    0.6181941181    3.5361097834
 H   -0.2431689969    1.4502840255    4.4578886947