19

 C   -0.2531988851    1.2458727087    0.0683978017
 O    0.2968396340   -0.0547051403   -0.0449558339
 C    0.8672200537   -0.5343642090    1.1207773622
 C    2.1602268343    0.0330062859    1.6937947581
 C    2.3168979386   -0.9137245970    2.8629011702
 C    0.9607312027   -1.3471962004    3.4026600096
 C    1.7624715547   -2.2883125970    2.5239305497
 C    0.7876346804   -2.0260596796    1.3526341873
 C   -0.0189794220   -1.0856486129    2.2362775654
 H    0.5208113891    2.0039073521    0.2517220997
 H   -0.7428379181    1.4665103455   -0.8828506159
 H   -0.9940514889    1.3007564553    0.8778504690
 H    2.9838008308   -0.0384614850    0.9748184353
 H    2.0597122803    1.0767163982    2.0122352837
 H    3.1522223701   -0.8381498956    3.5484507999
 H    0.7183019898   -1.4199439337    4.4542215657
 H    2.2467783771   -3.2233602426    2.7699910543
 H    0.4453257523   -2.7200527175    0.5979617305
 H   -1.0897830839   -0.9445378550    2.2846499475