13

 O   -0.1952654134    1.3373858479    0.0077602808
 N    0.0240067799   -0.0490798052    0.0023277170
 C   -1.0815451733   -0.6730786439    0.0082750826
 C   -2.4686710476   -0.0736528231    0.0197725607
 O   -3.3720499449   -1.1830580733    0.0238251676
 C   -2.7275187632   -2.3852020090    0.0159570676
 O   -3.3164609014   -3.4234016171    0.0178695618
 C   -1.2156986260   -2.1647738080    0.0050530130
 H    0.7007640628    1.6912052654    0.0026281953
 H   -2.6414842435    0.5424281485    0.9086206089
 H   -2.6544312677    0.5464842537   -0.8636391217
 H   -0.7825137006   -2.6404604545   -0.8798097866
 H   -0.7689157711   -2.6455865713    0.8803123729