21

 C   -0.0012702106    1.4447521593    0.0661765466
 C    0.0092618195   -0.0725986790    0.0130488695
 C    1.1053965512   -0.6642319601   -0.8059892106
 C    0.9843839705   -1.8173719026   -1.4657903191
 C   -0.2602779605   -2.6663991204   -1.3771979302
 C   -1.1141712201   -2.2629341252   -0.1736077712
 C   -0.3701773278   -2.2723246901    1.2096162933
 C   -0.5156135736   -0.7532848609    1.2803109678
 C   -1.3365508270   -0.7431101533   -0.0051206208
 H    0.9284207700    1.8306507231    0.5006338705
 H   -0.1029416500    1.8740843253   -0.9367545635
 H   -0.8324163050    1.8151529631    0.6746306037
 H    2.0293964925   -0.0933361007   -0.8712539505
 H    1.8049270694   -2.1845891029   -2.0767785334
 H   -0.8415614435   -2.5935794178   -2.3090915879
 H    0.0217908418   -3.7244681065   -1.2885942528
 H   -2.0444253135   -2.8345896624   -0.1432614898
 H   -0.9538194230   -2.7788987671    1.9821504402
 H    0.6484775729   -2.6730065954    1.2135067368
 H   -0.6640860680   -0.1722935139    2.1839880088
 H   -2.2458080654   -0.2022056623   -0.2419991175