19

 O    0.0840626577    1.5340076043   -0.0135396800
 C    0.0502676629    0.1485763288    0.0704538232
 C   -1.3619738753   -0.4656538418   -0.0298532951
 C   -1.0487357397   -1.3935667207    1.1888412251
 C    0.3588325618   -0.7666576915    1.3111007912
 O    1.3585009741   -1.4908750269    0.5539343543
 C    1.1602025149   -0.6627831821   -0.5936965452
 C    1.3262792284   -1.1600039878   -1.9864159529
 C    2.3072446119   -0.1463391043   -1.4062839464
 H    1.0038165719    1.8153906010    0.0566067199
 H   -2.1274870607    0.2815143280    0.1893253264
 H   -1.6015946383   -0.9526351675   -0.9778971361
 H   -1.6909629120   -1.2076741293    2.0529642093
 H   -1.0249301607   -2.4654215248    0.9846738217
 H    0.7279804062   -0.4405313815    2.2857881840
 H    1.6787486349   -2.1786286985   -2.1073759614
 H    0.6263538637   -0.8250232475   -2.7454919292
 H    2.2644834870    0.8733165350   -1.7782608657
 H    3.2985991714   -0.4993013527   -1.1435133630