19

 C   -0.0881906632    1.5524412292   -0.0958382495
 C    0.0434580925    0.0682468324   -0.0093608829
 C    0.5915115960   -1.0110522008   -0.8818310345
 C    1.3328715618   -1.6825987342    0.2749421899
 C    0.3519075066   -0.9226317676    1.2151436450
 C    0.6828908900   -0.5677451866    2.6372029694
 C   -1.0206024855   -1.5300167951    0.8543050887
 O   -1.9162375004   -1.9659891564    1.5262897446
 C   -0.9102228754   -1.0342349890   -0.5472399301
 H    0.8492255734    2.0516636731    0.1739911761
 H   -0.3487156414    1.8603404419   -1.1137266829
 H   -0.8702797436    1.9240922433    0.5752325492
 H    0.8927335877   -0.9365338844   -1.9200287346
 H    1.3355971322   -2.7771861112    0.3357164967
 H    2.3552619551   -1.3034857148    0.3661896337
 H    1.6067444500    0.0162793751    2.7041678925
 H   -0.1251018620    0.0073818124    3.1003435504
 H    0.8167079655   -1.4778682029    3.2318099513
 H   -1.6744700694   -0.9309593644   -1.3056304526