15

 C    0.0523119503    1.4541921148   -0.0512286566
 N    0.0169701274    0.0012303099    0.0135731004
 N   -0.0741852678   -0.6386768159   -1.1847834723
 C   -0.0619371087   -1.9254012123   -1.1532504961
 C    0.0488105208   -2.7378090916    0.0810935893
 O    0.0828373722   -3.9523833364    0.0399000513
 N    0.0949525583   -2.0065989009    1.2600889520
 C    0.0824200470   -0.7074566788    1.1850893215
 N    0.1940716501    0.0258408867    2.3418693370
 H    0.9179533695    1.8420995794    0.4935687198
 H    0.1307224860    1.7231445775   -1.1032010373
 H   -0.8629195282    1.8997677474    0.3581174350
 H   -0.1317399297   -2.4366316314   -2.1081398222
 H    0.0904871444   -0.5499680565    3.1649953553
 H   -0.2587636116    0.9244019880    2.3933843031