17

 C   -0.2094525397    1.3455236212   -0.2043224876
 O   -0.2477115235   -0.0699493135   -0.3467925564
 C    0.8067771595   -0.6051144857   -1.0587446362
 C    0.7300827923   -2.1232093700   -0.9733873295
 C    1.2686660734   -2.7058445292   -2.2651470081
 O    0.4783134154   -2.2219304633   -3.3599000475
 C    0.2880791287   -0.8891367119   -3.4562012888
 O   -0.2277387960   -0.3949367041   -4.4106848842
 O    0.7738060202   -0.1398877426   -2.4329653926
 H    0.7225022900    1.6667469995    0.2823421786
 H   -0.2984687368    1.8440118955   -1.1743774619
 H   -1.0564495629    1.6172323665    0.4274642895
 H    1.7674639127   -0.2140397849   -0.6936688502
 H    1.2894330199   -2.4800218514   -0.1047650325
 H   -0.3176266648   -2.4117799143   -0.8487590025
 H    2.3201800675   -2.4354994020   -2.4258205457
 H    1.1805466943   -3.7926282899   -2.2994215943