16

 N   -0.3431905940    1.2410973500    0.3325535394
 C   -0.1836197743   -0.1028817420    0.2256991939
 O    0.8228511501   -0.7045224643    0.5455558306
 C   -1.4259289811   -0.8696247660   -0.2793488393
 C   -2.1166303449   -0.2550565362   -1.4945326252
 O   -2.2746159402    0.9298483810   -1.6707763338
 C   -1.0892927685   -2.3265619539   -0.5225577791
 C   -1.4816345503   -3.3812468216    0.4116311826
 O   -2.2153838578   -3.1672189645   -0.7992832557
 H    0.4814097898    1.7763437937    0.5573563986
 H   -1.0861374884    1.6804060666   -0.1955410613
 H   -2.1816024881   -0.8112241877    0.5186750342
 H   -2.5083745995   -0.9945504146   -2.2200758502
 H   -0.2226927786   -2.5013841403   -1.1573457215
 H   -0.9077207505   -4.3045460142    0.4523470065
 H   -2.0053794737   -3.1172773961    1.3293708400