18

 C    0.4033971801    1.4280026607   -0.0549428158
 O    0.4822505541    0.0232631044   -0.1135448172
 C    0.1994492568   -0.5932972949    1.1212533172
 C    0.3828931792   -2.0854929536    1.0002427428
 C   -0.2592301892   -2.9546149951    1.8844927806
 N   -0.1201419447   -4.2810636382    1.8721195749
 C    0.6828102546   -4.8006566191    0.9392336218
 C    1.3625045120   -4.0311492067   -0.0002457009
 C    1.2115817640   -2.6494417432    0.0322600739
 H    1.1182860270    1.8467129053    0.6709036257
 H    0.6436082696    1.8093711182   -1.0499699510
 H   -0.6063622064    1.7684561032    0.2227971350
 H    0.8695098335   -0.1932835918    1.9042549611
 H   -0.8298166671   -0.3642450731    1.4463736185
 H   -0.9271484995   -2.5535376479    2.6461989559
 H    0.7825823131   -5.8835537160    0.9417215068
 H    1.9955825968   -4.5064578056   -0.7416595746
 H    1.7142442764   -2.0079418067   -0.6814297148