16

 C   -0.0001640419    1.5216797029    0.0195572731
 C    0.1280472128    0.0117069905   -0.0225006618
 C    0.8348510157   -0.5676346056   -1.2603721805
 C    1.4519300894   -1.8458374758   -0.6983408907
 O    2.6064970033   -2.2869142404   -1.3570417529
 C    1.7498876933   -1.4356783730    0.7436831114
 O    2.5934191804   -1.9191829031    1.4475941887
 O    0.9450516534   -0.4192880184    1.1074966966
 H    0.9831291230    1.9933392053   -0.0652654201
 H   -0.6234389881    1.8637975149   -0.8125534505
 H   -0.4633265334    1.8475766348    0.9544082651
 H   -0.8574554809   -0.4535272032    0.1065544889
 H    0.1493352988   -0.7290305136   -2.0940166402
 H    1.6396097687    0.0982442196   -1.5898108386
 H    0.6874334724   -2.6427363683   -0.6567020633
 H    3.1919630933   -2.6283062064   -0.6656534753