18

 C    0.3465480816    1.4834377196   -0.2952798379
 C   -0.0020820184    0.0123383104   -0.0482337170
 O   -1.3817103960   -0.1209664779    0.2889642233
 C    0.4047042059   -0.8656130922   -1.2179974280
 C    1.4499067599   -1.6410007978   -0.9482434727
 C    1.9552453402   -1.4529450203    0.4607463485
 C    0.7951089216   -0.6579278803    1.1248515144
 C    1.2258875398    0.2564179556    2.1744869335
 N    1.5795370060    0.9841505164    3.0003491452
 H    1.4182080508    1.6163756591   -0.4676251707
 H   -0.1781476414    1.8471910733   -1.1866894177
 H    0.0537546334    2.0963673898    0.5615479559
 H   -1.8870201702    0.4976443906   -0.2483633900
 H   -0.1153742991   -0.8023907115   -2.1677404912
 H    1.9275644914   -2.3203082531   -1.6452823257
 H    2.1529099148   -2.3941650929    0.9831107995
 H    2.8918594692   -0.8820635951    0.4787732028
 H    0.0915516606   -1.3700699838    1.5670604477