22

 C    0.0045097949    1.5996515715    0.0928257298
 C    0.0825162254    0.0823650535    0.0309146438
 C    1.1314592671   -0.5874782022   -0.9011737782
 C    1.3662927310   -1.6675358418    0.1909290972
 C    2.7814227863   -2.1762219587    0.4275301119
 C    2.8808316598   -3.1463000564    1.5981753122
 O    4.2382356709   -3.5445134037    1.7269292153
 C    0.7180198262   -0.6940415547    1.2184828913
 H    0.9881019964    2.0349255043    0.3041508889
 H   -0.3484878790    2.0203871176   -0.8556774467
 H   -0.6823605400    1.9324237746    0.8794688852
 H   -0.9104352953   -0.3304302422   -0.1830775675
 H    0.8072472282   -0.9178364161   -1.8917300053
 H    2.0158386716    0.0496371345   -1.0197577338
 H    0.6925115016   -2.5159401399    0.0162763700
 H    3.1568172002   -2.6791118372   -0.4729112538
 H    3.4556743642   -1.3313356114    0.6176375106
 H    2.5210699189   -2.6576303469    2.5183352452
 H    2.2265962654   -4.0153306770    1.4160619270
 H    4.3054426980   -4.1452516774    2.4746394138
 H    1.4822882456   -0.0882583301    1.7203652892
 H    0.0500500026   -1.1078596704    1.9788589438