21

 O   -0.6114731944    1.2417670483    0.8287763679
 C   -0.0852154561    0.1004609397    0.1464137042
 C    0.8299043612   -0.7867572248    1.0411042871
 C    0.0113110361   -2.0203951178    1.4657619945
 C   -0.8320007051   -2.0365122108    2.7568540394
 C   -1.8019553264   -0.8899718885    2.8344183050
 C   -2.1239648366   -2.0471506165    1.9319128319
 C   -1.3076977630   -2.0233410011    0.6224848035
 C   -1.2778768217   -0.7860319672   -0.2948651409
 H    0.1325159897    1.7534704817    1.1622428283
 H    0.4742544058    0.4551052561   -0.7307457811
 H    1.7028596404   -1.1039533232    0.4596513263
 H    1.2075981633   -0.2099788395    1.8928444488
 H    0.5891073629   -2.9418271516    1.3668587773
 H   -0.5864151738   -2.6279772506    3.6312133057
 H   -2.3859176054   -0.8678613376    3.7501332061
 H   -1.5612529295    0.0878387652    2.4323957671
 H   -3.0124356168   -2.6497458268    2.0798357597
 H   -1.4539184360   -2.9445827518    0.0546254862
 H   -2.1969274962   -0.1949313150   -0.2593516359
 H   -1.1318197383   -1.0974360579   -1.3341011812