16

 N   -0.6804801147    0.3993137424    1.6008245457
 C   -0.8042579212   -0.0938138807    0.4494111791
 O   -0.4851015961   -1.3967672544    0.2448361290
 C   -0.9215253352   -1.9837387417   -0.9799730703
 C   -2.3080807038   -2.6014843606   -0.8621948038
 N   -3.0375588080   -2.6856753041   -1.8939448359
 N   -2.5891168832   -3.0568063504    0.4374646864
 C   -3.7304741267   -3.7046367785    0.8422255742
 O   -4.6551856265   -4.0134589550    0.1251996038
 H   -0.9172777388    1.3891382688    1.5878465601
 H   -1.1359957529    0.4191922447   -0.4627670300
 H   -0.9332801127   -1.2634566229   -1.8026511259
 H   -0.1912485771   -2.7645164264   -1.2124366816
 H   -3.9098110326   -3.1720635794   -1.6823866139
 H   -1.9067212615   -2.8171471608    1.1448083473
 H   -3.7101730189   -3.9228196509    1.9263428656