18

 C   -0.4787998180    1.1182142733    0.2318684186
 O   -0.2732163877   -0.2796754466    0.3772169364
 C    0.9110127178   -0.6290143555    1.0284890079
 O    0.8721550655   -0.2938401007    2.4120090033
 C    0.4126610601   -1.3666961950    3.1566175791
 N    0.2453215856   -1.3337871839    4.4038058083
 C    0.1878665241   -2.5439027261    2.2403723973
 C    1.0050808865   -2.1697343969    0.9892045866
 O    0.5816038233   -2.7240345278   -0.2249833294
 H    0.3414607576    1.5787357452   -0.3363044717
 H   -1.4131542028    1.2472182621   -0.3170109350
 H   -0.5574135520    1.6085323586    1.2081543699
 H    1.7660300498   -0.0950710721    0.5961175000
 H    0.4711654805   -0.4077536070    4.7722907316
 H    0.4822962411   -3.4805775106    2.7122205135
 H   -0.8734217083   -2.6098717250    1.9776589060
 H    2.0516877868   -2.4588700777    1.1278229828
 H   -0.1747806000   -2.1960996645   -0.5128320553