12

 O    0.0580266812    1.3241696426    0.0079064931
 C   -0.0577049021   -0.0081886422    0.0012200331
 C   -1.2234387117   -0.6894615471    0.0039958103
 N   -1.2160953507   -2.0644479640   -0.0036289795
 C   -0.0960868105   -2.6953502888   -0.0133782711
 O   -0.0403966652   -4.0386387542   -0.0210955188
 C    1.2268557893   -2.0467682554   -0.0172173303
 O    2.3081687865   -2.5537412341   -0.0260445023
 O    1.1290166398   -0.6488310662   -0.0089545520
 H    0.9977696705    1.5482431482    0.0039905865
 H   -2.1744042373   -0.1773521773    0.0121514236
 H   -0.9570019900   -4.3492919813   -0.0176642825