15

 C   -0.2679248883    1.5433422263   -0.0327236406
 C    0.1091339202    0.0744524677   -0.0056440616
 N    0.7861047987   -0.5247490335   -1.2255815192
 C    2.1114341375    0.0639402788   -1.3010967270
 C    1.9113633347   -1.0675845190   -0.3335435308
 C    2.5210841580   -2.3499157486   -0.4723029402
 N    3.0226913491   -3.3892761194   -0.5487681536
 C    1.2248435450   -0.4953558654    0.8982363257
 O    1.3898543816   -0.6094600202    2.0718194156
 H    0.5873255776    2.1988719169   -0.2139505533
 H   -1.0160211738    1.7278923401   -0.8092481516
 H   -0.7014734850    1.8213097866    0.9322732779
 H   -0.7814832603   -0.5361527019    0.1859550780
 H    2.6512747283   -0.1815524638   -2.2100262212
 H    2.3014578467    1.0588857954   -0.9081696381