17

 C    0.0238141933    1.4732437030    0.1195627283
 C    1.2964578743    0.7020919071   -0.0056060322
 O    1.6682772017    0.1330789296    1.2534455469
 C    0.4800755908   -0.6894890907    1.2464704373
 C    0.6413763905   -2.2490920626    1.2690558890
 C   -0.3025474177   -2.2576362497    2.4776365644
 O    0.3420914599   -1.4942558806    3.4972017739
 C   -0.3961136473   -0.7838110741    2.4957722769
 C   -0.0197517265   -0.0375449302   -0.0369146836
 H   -0.2212603246    1.9460175734    1.0664420397
 H   -0.2870876235    2.0211294285   -0.7649063300
 H    2.0723487232    0.8559469016   -0.7454593562
 H    0.2440146628   -2.7241830471    0.3686362402
 H    1.6495383009   -2.6110898098    1.4776219784
 H   -1.0276240069   -3.0015787933    2.7833321650
 H   -1.1817018496   -0.1166376822    2.8315884792
 H   -0.5354812011   -0.5398805630   -0.8438358973