21

 C    0.0212524998    1.5762123474   -0.0411619621
 C    0.0146946396    0.0666810334    0.0530163107
 C    0.9240720876   -0.6995686987   -0.9704821287
 C    1.8277918474   -1.2210793932    0.1922962748
 C    0.7705951043   -0.7407760633    1.1785824612
 C    0.7480876521   -0.3313585076    2.6424351854
 O   -0.6055464525   -0.8369950593    2.7834445844
 C   -0.5673687760   -1.4661046821    1.4780242715
 C   -1.3195860694   -0.6622993130    0.3930939389
 H    1.0407339985    1.9723773210   -0.1162086546
 H   -0.5291232540    1.9139042687   -0.9281279169
 H   -0.4542841768    2.0316465110    0.8345527354
 H    0.4004014340   -1.4910130294   -1.5133976709
 H    1.4279853057   -0.0606794718   -1.6997509142
 H    2.0808096378   -2.2854186112    0.2043089825
 H    2.7581149294   -0.6489492873    0.2701071188
 H    1.4492994575   -0.8823745845    3.2863050820
 H    0.8194149618    0.7392683390    2.8733268693
 H   -0.6970701887   -2.5520032489    1.5407530666
 H   -2.0954663161   -0.0233352774    0.8237926570
 H   -1.7530635119   -1.2492913428   -0.4231193210