21

 C    0.0052498803    1.4685235602   -0.2143671903
 C   -0.1146198174    0.0060366376    0.1287516021
 O    1.0798887860   -0.7817787939    0.0829813256
 C    0.4232032226   -0.6217433344    1.3500409421
 C    1.1489441940    0.1110703277    2.4255335343
 C    0.7020328007   -0.0337225363    3.8752929678
 C    2.0290810881   -0.5928650096    3.4244460147
 C    2.2737418080   -2.0834416996    3.3790348365
 O    3.1719544281    0.1607380848    3.7469775663
 H    0.8853535557    1.9223539466    0.2450636507
 H    0.0910295463    1.5932673196   -1.2989371438
 H   -0.8855975525    2.0140047519    0.1157376204
 H   -0.9766565795   -0.4883771194   -0.3263913559
 H   -0.0855097496   -1.5274064686    1.6877793567
 H    1.5234020320    1.0915815797    2.1550465091
 H    0.7125563920    0.8583774175    4.4908578476
 H   -0.1053067944   -0.7283829121    4.0880456457
 H    1.3746186784   -2.6383889328    3.1000634439
 H    3.0623254041   -2.3181521137    2.6578345614
 H    2.5919172154   -2.4481065039    4.3637543197
 H    3.4164145717   -0.0513499314    4.6550971154