22

 C    0.3886823812    2.0307733447   -0.2257875686
 C    0.3062606862    0.5217491181    0.0290094277
 C    0.8828163049   -0.2908000264   -1.1230414979
 C    2.4181459640   -0.3444468260   -1.3371961730
 N    2.2906211923   -1.7733159602   -1.6515121454
 C    3.3556816217   -2.7043746143   -1.3455786188
 C    0.9503595851   -1.8620305409   -1.0394657563
 C    0.8853252245   -2.3860528205    0.3796833547
 O   -0.0296356062   -3.0428086275    0.8109185760
 H    1.4263992749    2.3566957555   -0.3560603028
 H   -0.1618520986    2.3085811862   -1.1313109237
 H   -0.0346188178    2.5962763661    0.6094925622
 H    0.8319245810    0.2820471808    0.9616114214
 H   -0.7397610988    0.2299289882    0.1858266799
 H    0.3801153488   -0.0185174660   -2.0555741795
 H    2.8533577973    0.2652425619   -2.1375331078
 H    2.9737304565   -0.1390928613   -0.4046892231
 H    3.7320973233   -2.6488691325   -0.3089478686
 H    3.0112173716   -3.7275045443   -1.5292151926
 H    4.2032656448   -2.5152453487   -2.0140084284
 H    0.2098033046   -2.4121221283   -1.6314570186
 H    1.7500162087   -2.1198470346    1.0295656334