17

 C   -0.0050889009    1.5818284882    0.0139631201
 C    0.0253490937    0.0452432305    0.0430503865
 C    0.7503461246   -0.5401077214   -1.1377936570
 C    1.8046929778   -1.2537076333   -0.7455695200
 C    1.9037275355   -1.2635230142    0.7285384358
 N    2.7532621819   -1.8102812500    1.5001153920
 N    0.7961942507   -0.4989977710    1.1746190800
 C    0.3408013099   -0.3612707516    2.4732438854
 O    0.8619707260   -0.7787595707    3.4729935002
 H    1.0119967411    1.9821415863   -0.0126656226
 H   -0.5423908173    1.9292421297   -0.8740541905
 H   -0.5146603227    1.9834717882    0.8938135281
 H   -1.0077787198   -0.3294692836    0.0844996290
 H    0.4310597598   -0.3484831522   -2.1541332531
 H    2.5183919986   -1.7733038318   -1.3710008037
 H    3.4432395647   -2.3129157764    0.9412432847
 H   -0.6147288739    0.2040262432    2.4863605650