18

 C    0.1333915085    1.4468744019   -0.1448819893
 C   -0.1923104116   -0.0113790907    0.0517881504
 N   -0.8213003956   -0.5688266977    0.9983551636
 O    0.3101431355   -0.7266305426   -0.9918244507
 C    0.1568133917   -2.1356645355   -0.9669606768
 C   -1.2040636007   -2.6873306523   -1.3128849997
 C   -0.0989794270   -2.7274574132   -2.3347192406
 C    1.0121490119   -2.8293893965   -0.0437424759
 C    1.7475826330   -3.4262705440    0.6963604272
 H    1.2182355139    1.5886268611   -0.1676539174
 H   -0.2584072905    1.7964751684   -1.1048459311
 H   -0.2901547158    2.0522573868    0.6578739579
 H   -1.1179993153    0.1225884684    1.6835116500
 H   -1.5058664700   -3.6053047040   -0.8239798428
 H   -1.9912117265   -1.9547754983   -1.4410383659
 H   -0.1361805825   -2.0173142726   -3.1527145945
 H    0.3745144302   -3.6746849837   -2.5617902104
 H    2.3834206909   -3.9468284253    1.3685082861