22

 C    0.2693350384    1.4716381753    0.1417680538
 C   -0.1996906271    0.0392194035   -0.1413108201
 C    0.5850456034   -0.6073625222   -1.2677357066
 C    1.9407827570   -1.2544186463   -1.1160165926
 C    2.0425688267   -2.0891402615    0.1425461441
 N    2.1694823006   -3.5203948898   -0.1536406104
 C    0.8397356557   -2.9081570388   -0.2642421310
 C   -0.2832277334   -3.4995050077    0.5378795738
 C    0.7108264775   -2.0882859078   -1.5385514827
 H    1.3240327202    1.4880106529    0.4357974095
 H    0.1642676799    2.1063963731   -0.7452306074
 H   -0.3129481069    1.9278743982    0.9482365890
 H   -0.1146709749   -0.5594951113    0.7700224294
 H   -1.2646422490    0.0482207458   -0.4080063142
 H    0.5175378560   -0.0388251911   -2.1971860821
 H    2.7836898318   -0.9726193174   -1.7385898930
 H    2.3383492903   -1.7549796233    1.1306629544
 H    2.5982742911   -3.6733224581   -1.0647347510
 H    0.0867901728   -3.8677493538    1.4980231787
 H   -1.0756698813   -2.7671377715    0.7201233878
 H   -0.7310480328   -4.3479989504    0.0068129602
 H    0.5041579141   -2.5016413177   -2.5211095095