23

 C    0.0500004630    1.4878726632    0.0140277947
 C   -0.0314516089   -0.0403629649   -0.0010629935
 C   -1.4672154183   -0.5462653725    0.0161771856
 O   -1.4534394613   -1.9590168292    0.0048058325
 C   -2.7395531095   -2.5335256968    0.0163615849
 C   -2.5809577831   -4.0632649547    0.0437573636
 C   -1.8445939396   -4.5350868126    1.3123545504
 C   -3.8887306714   -4.7002473499   -0.0910080771
 C   -4.9739993205   -5.2094657505   -0.1820041280
 H    1.0901567076    1.8256178559    0.0010290936
 H   -0.4509732270    1.9238832173   -0.8574108996
 H   -0.4228466531    1.9046770359    0.9101986170
 H    0.4671719657   -0.4396982245   -0.8916512632
 H    0.4945326149   -0.4581063267    0.8651034147
 H   -1.9942009112   -0.1772066308    0.9133514707
 H   -2.0200058599   -0.1629513498   -0.8593004286
 H   -3.3109053910   -2.2028911184    0.9000313948
 H   -3.3104594452   -2.2323091671   -0.8761578484
 H   -1.9703017662   -4.3303739796   -0.8291912911
 H   -1.6763567803   -5.6144564174    1.2839835145
 H   -0.8828017981   -4.0242384688    1.3890861268
 H   -2.4353528664   -4.3067171510    2.2049814454
 H   -5.9271519804   -5.6685837371   -0.2717818994