17

 C    0.2396247352    1.5581591951   -0.0313001176
 C    0.0709011618    0.0555774808    0.0606698874
 N    0.9190329180   -0.7507176824   -0.8745503484
 C    1.3897336510   -1.6296386844    0.2162172286
 C    2.7155253715   -1.1374507922    0.8153117016
 O    2.0143718423   -0.1719200266    1.6536343106
 C    0.7300077997   -0.6843525534    1.2661861633
 C   -0.1043222700   -1.0727472375    2.3857247064
 N   -0.7942416716   -1.3966423840    3.2553293456
 H    1.2832347486    1.8316957682    0.1374797448
 H   -0.0587862549    1.9101956588   -1.0235092207
 H   -0.3835159194    2.0640296912    0.7134949478
 H   -0.9889585737   -0.2262736118    0.0083099917
 H    0.3854447901   -1.2352018570   -1.5859846534
 H    1.2004717085   -2.6990102906    0.1287534369
 H    3.2483849133   -1.8694215935    1.4332413373
 H    3.3953743296   -0.6537761305    0.1094052480