16

 C   -0.2828735069    1.4877956801    0.0291848974
 C    0.0951396817    0.0247333078   -0.0086864092
 O    1.3601514049   -0.1987170827   -0.7400765452
 C    1.9588875689   -0.7721885181    0.3597224429
 O    3.0620687945   -1.2099632092    0.4509056814
 C    0.7451116822   -0.6056511016    1.2217708816
 C    0.7141186849   -0.2187243644    2.6754858258
 C    0.2274358671   -1.5737649086    2.2488575318
 H    0.5151413846    2.0842408113    0.4798235720
 H   -0.4702726766    1.8608223772   -0.9817753989
 H   -1.1970663492    1.6267732574    0.6163341918
 H   -0.6878057606   -0.5872851448   -0.4670428685
 H    1.6690953972   -0.1478571771    3.1843601974
 H   -0.0215039757    0.5197106977    2.9760818558
 H   -0.8408722414   -1.7621545837    2.2592306442
 H    0.8476498543   -2.4373331615    2.4627702598