19

 C   -0.1704027027    1.6065746135   -0.0361640094
 C   -0.1212435204    0.0889398000   -0.1775261882
 N   -1.4289126758   -0.4945536074    0.1376151721
 C   -1.4525705151   -1.9547184170    0.1132223719
 C   -2.8410095172   -2.4780003194    0.5274158241
 C   -3.1890597132   -2.2100727008    1.9726958718
 O   -2.5119728114   -1.5673531466    2.7368138244
 C   -1.1426283920   -2.4499825698   -1.2398755747
 N   -0.9065262216   -2.8669282746   -2.2910908176
 H    0.7938882208    2.0486719447   -0.3020885983
 H   -0.9401991048    2.0293012949   -0.6877301924
 H   -0.3983575782    1.9007542095    0.9947138632
 H    0.1311209435   -0.1801647524   -1.2094141723
 H    0.6818876949   -0.3213432491    0.4616488630
 H   -1.6848691475   -0.2241657289    1.0831292311
 H   -0.7020676287   -2.4034995318    0.7908655868
 H   -3.6159879084   -2.0182186817   -0.1001360909
 H   -2.9171185791   -3.5595658411    0.3585558855
 H   -4.1502242531   -2.6606929020    2.3032856798