19

 C   -0.0167852741    1.6269676852    0.1297127674
 C    0.0159881864    0.1128580212    0.0228753285
 C    1.0584274203   -0.5619794296   -0.9551370708
 C    1.6461671793   -1.3012552965    0.2506562016
 N    2.0960377418   -0.2484622713    1.1942139686
 C    0.6746080570   -0.6644508474    1.1751091239
 O   -1.3027221952   -0.4366269357   -0.1209033743
 C   -1.9528907248   -0.2191066224   -1.2791993131
 N   -3.1440587448   -0.6177074694   -1.4160223375
 H    0.9777045920    1.9910123204    0.3956500393
 H   -0.3148917969    2.0928368895   -0.8151513378
 H   -0.7293190456    1.9334139819    0.9018230631
 H    0.5621202967   -1.2276779389   -1.6630904250
 H    1.7445372938    0.1065957457   -1.4806963828
 H    2.0816297905   -2.2918602329    0.2728468556
 H    2.5285834753   -0.7160139357    1.9902387756
 H    0.1699124024   -1.0415433973    2.0553539433
 H   -1.3551550880    0.3006734081   -2.0384621455
 H   -3.4792622763   -0.3859876651   -2.3489250600