23

 C    0.2559978255   -0.3622625845    1.3081119482
 C   -0.1540132974    0.0565623289   -0.1116490153
 C   -0.2782655456    1.5836525015   -0.2143411718
 C    0.7696440589   -0.5145328845   -1.2223934815
 C    2.2540406073   -0.1635504750   -1.0274812380
 C    0.5629595074   -2.0520557352   -1.3618304862
 O   -0.7965774970   -2.3916257610   -1.4173531302
 C    1.2641198124   -2.6021157835   -2.5887918807
 O    0.6523097501   -3.1757138519   -3.4598987351
 H    0.3193270586   -1.4497030202    1.4161126990
 H    1.2234195687    0.0634730969    1.5967292514
 H   -0.4835707147   -0.0084930575    2.0335928873
 H   -1.1437293984   -0.3662243283   -0.3090855574
 H    0.6672554626    2.0920068295    0.0052999678
 H   -0.6004722276    1.8923916006   -1.2145940038
 H   -1.0174260772    1.9555876003    0.5027376083
 H    0.4271438745   -0.0705485985   -2.1673644042
 H    2.6942126184   -0.7210424586   -0.1937958893
 H    2.8496471658   -0.3763571086   -1.9198595248
 H    2.3776634396    0.9008433216   -0.8115842810
 H    1.0401314053   -2.5385820508   -0.4910399016
 H   -0.9136520608   -2.8576034404   -2.2610063543
 H    2.3596952836   -2.4638445606   -2.6532203768