17

 N    0.1074202197    1.4103316568    0.1219624605
 C    0.0243313122    0.0176292995   -0.0160205230
 C   -1.0516315250   -0.8095810000   -0.0902437119
 O   -0.6473301246   -2.0982207490   -0.1312156266
 N    0.7348869128   -2.1352680683   -0.0889534849
 C    1.1372229690   -0.8866393362   -0.0159122555
 C    2.5644692862   -0.5136520717    0.0348167869
 C    3.6365361246   -1.5738351373    0.0777700971
 C    3.4617640761   -0.7607623957   -1.1717020337
 H    0.8106677822    1.8154317149   -0.4841797199
 H   -0.7759535711    1.8750221251   -0.0433831451
 H   -2.1172231661   -0.6451648050   -0.1124588503
 H    2.7529706116    0.4006311629    0.5893885326
 H    4.5016623416   -1.3815231385    0.7019216689
 H    3.3011296928   -2.6035264182    0.0634403648
 H    3.0057715380   -1.2439534230   -2.0283128127
 H    4.2032584901   -0.0068366262   -1.4125956274