23

 C   -2.3130020295   -0.5292674108   -3.4391608186
 C   -1.4928755623   -0.4484520948   -2.1448084711
 C   -2.1775606274   -1.1699011340   -1.0091295348
 O   -2.1286924511   -2.6065273760   -1.0221879427
 C   -1.5200107169   -1.9068362651    0.0909439563
 C   -0.0110851741   -2.0353367978    0.2125546755
 C    0.4654646391   -3.4676430214    0.4960854822
 C   -2.3310648470   -2.1245970336    1.3650831196
 O   -2.4451488634   -3.5014998346    1.6827329281
 H   -1.8098155882   -0.0043692968   -4.2562117184
 H   -2.4546713325   -1.5719147137   -3.7386447915
 H   -3.3034554466   -0.0790725054   -3.3113687445
 H   -0.4992312639   -0.8711342840   -2.3151398180
 H   -1.3519651370    0.6010468800   -1.8548286799
 H   -3.1765153315   -0.7799331082   -0.7924653318
 H    0.4654480753   -1.6754753303   -0.7030159125
 H    0.3188722619   -1.3649363230    1.0167533442
 H    0.0372518417   -3.8576645128    1.4212661548
 H    0.1629103876   -4.1333903345   -0.3180609780
 H    1.5566433542   -3.4984418076    0.5714822325
 H   -1.8433219974   -1.6453621466    2.2202529364
 H   -3.3259453533   -1.6689101724    1.2472718672
 H   -2.7513880376   -3.9302831365    0.8738923353