17

 O   -0.7214401159    0.9236351516    0.1161999043
 C    0.4219962309    0.8886662085   -0.2421357262
 C    1.4596949896    1.9591037168    0.1033453511
 O    2.7764265406    1.4580508534    0.1037315541
 C    3.1603882042    0.8381884631    1.3020698213
 C    2.8983381304   -0.6308643417    1.5133618583
 C    4.2970856138   -0.1226487560    1.2169212751
 C    1.4269984272    3.0964312265   -0.9331521596
 O    0.4266258969    3.6011079165   -1.3565619678
 H    0.8311046860    0.0778717371   -0.8848734967
 H    1.1785595528    2.4022742234    1.0714569521
 H    3.0981285120    1.4977107666    2.1674313934
 H    2.6627366260   -0.9730434067    2.5148329689
 H    2.3973295353   -1.1708484218    0.7184013250
 H    4.6895814734   -0.3171966327    0.2255260010
 H    5.0374899145   -0.1191539542    2.0082759473
 H    2.4495665024    3.4032214699   -1.2426789916