21

 C   -0.4416404469    1.3120479954    0.3231028996
 C    0.0704302891   -0.0835569368   -0.0316593725
 O    1.0343193154   -0.0267472571   -1.0866671544
 C    0.7556202266   -0.7671382114    1.1479768805
 C    1.2167520268   -2.1900562408    0.8136082812
 N    1.8922630496   -2.8368045733    1.9332840893
 C    1.1564276272   -3.4179405938    2.9371272531
 N    1.9124159453   -4.1610794767    3.8426294823
 O   -0.0553043490   -3.3187678659    3.0199505749
 H    0.3855816142    1.9509566119    0.6485018496
 H   -0.9177765510    1.7859248945   -0.5434334963
 H   -1.1845900509    1.2653164009    1.1257677809
 H   -0.7849713901   -0.7056956856   -0.3464942968
 H    0.6144575529    0.3797807408   -1.8509114744
 H    1.6194538975   -0.1648452972    1.4550418619
 H    0.0620323550   -0.8143911979    1.9923658449
 H    0.3494497564   -2.7927700255    0.5194349250
 H    1.9105696657   -2.1608808037   -0.0287082166
 H    2.8239856703   -3.1826644236    1.7749043820
 H    2.8525590224   -3.8431543642    4.0276809145
 H    1.3904988836   -4.3766608497    4.6789639611