15

 C    0.0706350659   -1.1545724128    0.1121597719
 C   -0.0135020330    0.0451774091    0.0343605640
 C   -0.0651637774    1.4521112854   -0.0826412088
 C   -1.1649385956    2.2390054959   -0.1043304296
 C   -0.7105684267    3.6655721194   -0.0010779417
 O   -0.1608847709    3.7968574662    1.3856056226
 C    1.1228999145    3.5543497413    0.8665973453
 C    0.7420167319    3.6977528277   -0.5628255223
 C    1.1506714387    2.3177915883   -0.1051033509
 H    0.1293741783   -2.2119048175    0.1884067959
 H   -2.1885540143    1.9085112207    0.0033909506
 H   -1.4146887989    4.4680455976   -0.2098969227
 H    1.9784735224    3.8457130849    1.4630165519
 H    1.1438327998    4.2544696439   -1.3991747186
 H    2.1252276553    1.9211860298   -0.3591169974