15

 C   -0.0014793205    1.5616458929   -0.0174077769
 C   -0.0164571132    0.0606541887   -0.0168368789
 C   -1.1416296347   -0.6941379312   -0.1269800834
 N   -1.0782441420   -2.0480504563   -0.1186393898
 C    0.1276864746   -2.7846671094    0.0012877659
 O    0.0895107695   -3.9953281262   -0.0011144918
 N    1.2674903925   -2.0169896718    0.1130276482
 C    1.1840509995   -0.7173199971    0.1029817530
 O    2.3236342302   -0.0174887479    0.2146451498
 H    0.6034617447    1.9555988775   -0.8408770846
 H   -1.0150692206    1.9594757210   -0.1187373505
 H    0.4294514277    1.9579920846    0.9080546321
 H   -2.1295108123   -0.2570758146   -0.2251779318
 H   -1.9127465053   -2.6094820552   -0.2007050883
 H    3.0325560401   -0.6752031451    0.2855560572