15

 N   -0.0824605975    1.2774588917   -0.2380771291
 C   -0.0833007596    0.0537444158    0.0487033588
 O    1.0773001905   -0.6122202200    0.4331442730
 C    1.0230021924   -1.9663771797    0.7166611427
 O    2.0196157141   -2.5469529250    1.0179810078
 C   -0.3663026179   -2.5578248145    0.5715654833
 C   -0.9592260382   -2.1196095682   -0.7933739491
 C   -1.2996627621   -0.8260177137   -0.0045736481
 N   -1.2909585851   -1.6073139137    1.2905748582
 H    0.8550097800    1.6731515939   -0.1410294182
 H   -0.3640521331   -3.6000422272    0.8860450797
 H   -0.3107479739   -2.0606348397   -1.6719509120
 H   -1.8611203765   -2.6885326608   -1.0293000479
 H   -2.1859070752   -0.2385055090   -0.2344513516
 H   -2.1953576380   -2.0697016198    1.3741314125