18

 C    0.0406371971    1.5222885863   -0.0280482899
 C    1.2850725126    0.7154816666   -0.0128141297
 C    2.1224097761    0.6398857574    1.2600955250
 O    1.2362584691    0.7355184828    2.3756718563
 C    0.6129936280   -0.5556622247    2.3976077937
 C   -0.4777850641   -0.5538584207    1.3019598691
 N   -0.0367368089    0.0584716803    0.0295861105
 C    1.7594794124   -1.4897606005    2.0407159037
 C    2.6685140953   -0.7814969254    1.3808676755
 H   -0.1936346766    2.0788221310    0.8756540995
 H   -0.3111262006    1.9667363580   -0.9561825788
 H    1.8354564415    0.5514161602   -0.9387400314
 H    2.8643230935    1.4412581572    1.3254696817
 H    0.1818944979   -0.7218032792    3.3891289165
 H   -0.7945510397   -1.5826526341    1.0921619261
 H   -1.3567867388   -0.0104581087    1.6650254288
 H    1.7581642528   -2.5531090332    2.2404092691
 H    3.5799847724   -1.1297643334    0.9139361642