21

 C    0.0062664232    1.5074504334   -0.1132317157
 C    0.0561238853    0.0002440628   -0.0032395931
 C    1.3679887853   -0.7392769963   -0.1606345466
 C    0.6919567273   -0.6874246388    1.1766377519
 C    1.1634864039   -0.0163559485    2.4733825668
 C    0.1888759621   -0.9617853120    3.2579975557
 C    0.0668635633   -1.8428565498    1.9665209441
 C    0.6612995305   -1.5837327562    4.4766006075
 C    1.0732841868   -2.1094590313    5.4773135507
 H    0.9128550899    1.9668509832    0.2939822595
 H   -0.0791366295    1.8224401081   -1.1590830638
 H   -0.8497036219    1.9242595550    0.4301832792
 H   -0.8160536734   -0.5072111123   -0.4117369453
 H    1.3755653372   -1.6831387304   -0.6973588824
 H    2.2664992136   -0.1435382733   -0.2973624826
 H    2.2088219149   -0.2340071536    2.7092548667
 H    0.9892988827    1.0561241819    2.5895774673
 H   -0.7573732755   -0.4445802533    3.4453379817
 H   -0.9419666645   -2.1610955089    1.6905433398
 H    0.7160562855   -2.7214337083    2.0213508344
 H    1.4316033634   -2.5713309613    6.3634604842