17

 O   -0.0552316631    1.3959863976   -0.0070772970
 C   -0.0023974703   -0.0199487727    0.0503557166
 C    0.5551969357   -0.5234562685    1.4124153330
 N   -0.6595150524   -0.7160332278    2.1743736588
 N   -0.8360168964   -0.9381359667    3.4849015699
 C   -2.1601460455   -1.0929106912    3.5892220681
 C   -2.8225838809   -0.9767940397    2.3439944248
 C   -1.8007896671   -0.7305596572    1.4480933061
 C   -1.4761044143   -0.5155944535    0.0026709848
 H    0.8433432421    1.7372286859    0.0449282830
 H    0.5877803943   -0.4216847468   -0.7833275159
 H    1.1089551475   -1.4648797511    1.3098895120
 H    1.2086646011    0.2156374500    1.8846949874
 H   -2.5975813766   -1.2778801329    4.5598719689
 H   -3.8787311174   -1.0528262962    2.1444554333
 H   -2.0949526305    0.2394580837   -0.4872577278
 H   -1.5596224360   -1.4440165229   -0.5740017460