18

 O   -0.0763709760    1.3834459395    0.0045135253
 C   -0.0205212856   -0.0077001584    0.0203109947
 C    0.2973469296   -0.8388790431    1.3082663921
 C   -0.4452120424   -1.9352432825    0.5107898559
 O   -0.9466770316   -3.0295476770    1.2105661118
 C   -1.3509937954   -0.7909277742   -0.0556355785
 C    0.5193873884   -2.1978947059   -0.6673778641
 C    0.8432184922   -0.7188623402   -1.0453948461
 H    0.8252745815    1.7224185702    0.0293092440
 H    1.3424078670   -1.0172525265    1.5789897432
 H   -0.2779929538   -0.4930896706    2.1686908271
 H   -1.3532355520   -3.6322185626    0.5781262743
 H   -2.0771358973   -0.4435329726    0.6812167000
 H   -1.8169532025   -0.9209927062   -1.0370761300
 H    1.3977125611   -2.7670942805   -0.3500736062
 H    0.0333556110   -2.7450329847   -1.4827716259
 H    0.5327097917   -0.4520912555   -2.0595657101
 H    1.9071208541   -0.4795094691   -0.9392058574