20

 C    0.1250457630    1.5648137492    0.1491079341
 C   -0.0478823917    0.0813832393   -0.0202457000
 C    0.2578382738   -0.6389821402   -1.3490985725
 N   -0.8339711520   -1.6519003398   -1.1149148910
 C   -0.3685299036   -2.6506763485   -0.0844639688
 C   -0.5672644595   -1.6370945336    1.0522316809
 O    0.5105827499   -0.6751085475    1.0909409528
 C   -1.3555081322   -0.7691977747    0.0369633447
 C   -2.7818148894   -0.3202095563    0.0675299606
 H    1.1909205414    1.8194245136    0.1619286904
 H   -0.3451507638    2.1101232732   -0.6750999911
 H   -0.3130477995    1.9037686539    1.0925582528
 H    0.0074244246   -0.0335323448   -2.2272676326
 H    1.2639869401   -1.0519877317   -1.4665984786
 H   -1.0813700519   -3.4813430081   -0.0391178258
 H    0.6415234198   -3.0436161640   -0.2321096741
 H   -0.8781033859   -1.9538062463    2.0513147005
 H   -2.9778314672    0.3022767169    0.9473329034
 H   -3.0263826944    0.2619446049   -0.8273995206
 H   -3.4597446517   -1.1799079855    0.0990678149