16

 C    0.0053673031    1.4853095883    0.0988315981
 C    1.3116721834    0.7294639741   -0.0051627849
 N    2.0761082999    0.3564710643    1.1845805968
 C    1.1908911057   -0.4201047438    1.9719604267
 C    0.0393608587   -0.7295566408    1.2886297293
 N   -0.6758022685   -1.5560664780    2.0865443724
 N   -0.0476036114   -1.7950682233    3.2603730395
 C    1.0965789582   -1.0976674733    3.2001764850
 C   -0.0210229347   -0.0326691326   -0.0123664448
 H   -0.2812369945    1.9260756006    1.0473809012
 H   -0.2907347180    2.0493847955   -0.7792313909
 H    1.8977633826    0.8422017481   -0.9106087948
 H    2.4969778779    1.1480198890    1.6567274248
 H   -1.5621347552   -1.9980464691    1.9156635424
 H    1.7793845427   -1.1280579461    4.0356167158
 H   -0.4086597298   -0.5058835930   -0.9069426565