22

 C    0.3184917627    1.3587024183   -0.5147896201
 C    0.4968568583   -0.1402498113   -0.3472720909
 O    0.7033061110   -0.4169206126    1.0290799051
 C    0.7813810986   -1.7747078856    1.3184389744
 C    2.1405948783   -2.5492755249    1.1838287647
 C    2.6825988677   -1.6825662963    2.3558163492
 C    1.2496885597   -2.1541381968    2.7422903768
 N    1.5029722473   -3.5301194105    2.1487473192
 C    2.3663869939   -4.4525944529    2.8758718792
 H    1.2064452558    1.8929471168   -0.1649698954
 H    0.1557657260    1.6077243699   -1.5676443942
 H   -0.5413742590    1.7090038002    0.0631351707
 H   -0.3937768237   -0.6803997854   -0.7071957286
 H    1.3537618996   -0.4980969093   -0.9398280906
 H   -0.0855726972   -2.3390913546    0.9555134873
 H    2.6533004117   -2.8894279178    0.2818685000
 H    3.5147245879   -2.0846705026    2.9322812440
 H    2.8095508378   -0.6167925018    2.1636285543
 H    0.7090464066   -2.0225311232    3.6813809397
 H    1.7866057900   -4.8970449067    3.6918330862
 H    2.6540237281   -5.2629235831    2.1975641792
 H    3.2873609992   -4.0327623496    3.3079743898