18

 C   -0.1572270324    1.5452452639    0.0102981161
 C   -0.0158511512    0.0138371387    0.0058442303
 C   -1.3654855262   -0.5047588622   -0.2388298488
 N   -2.4744118963   -0.7402191181   -0.4699345398
 C    1.1693807245   -0.6693358608   -0.7781269079
 C    2.1291368492   -0.1475838745    0.3280095335
 C    0.8880859934   -0.6945704013    1.0927605455
 C    1.0031002606   -1.9220602862    0.1515730525
 O   -0.1125213227   -2.7549783711    0.0848588475
 H    0.7848188779    2.0638180052    0.1860504447
 H   -0.5609865500    1.8850576772   -0.9477692416
 H   -0.8634227921    1.8492926320    0.7882444169
 H    1.3213077887   -0.6506709584   -1.8585412522
 H    3.0519883304   -0.7158772560    0.4614825476
 H    2.3272868394    0.9194396359    0.3694474819
 H    0.7130800146   -0.7041000710    2.1685566841
 H    1.9272890530   -2.5011320088    0.2760047426
 H   -0.1448772008   -3.1838747545   -0.7762270130