19

 C    0.0974129126    1.4757260131    0.2414115234
 C    0.0790361071    0.0226000145    0.1612009926
 C    0.0319741916   -1.1807218750    0.1018417207
 C    0.0492582141   -2.6234429640    0.0117657280
 C   -0.7948144224   -3.4266945306    0.9157205655
 O   -1.1553403200   -3.2578806340   -0.4546959298
 C    1.3421762305   -3.2200192829   -0.5522654789
 C    1.5228897123   -2.8798611052   -2.0307754259
 O    2.4520576927   -2.8206462755    0.2357710450
 H    0.7162206285    1.9120897605   -0.5499041012
 H   -0.9138232051    1.8828898940    0.1350066644
 H    0.4937788125    1.8167220287    1.2040088819
 H   -0.4618095162   -4.4245206021    1.1984101585
 H   -1.4385615820   -2.9215789589    1.6330743980
 H    1.2754590859   -4.3067041673   -0.4352103936
 H    1.5762437702   -1.7950559216   -2.1739553292
 H    2.4484413240   -3.3257374654   -2.4037923907
 H    0.6816134415   -3.2604197390   -2.6174474399
 H    2.4832302220   -1.8561340394    0.2132376712