25

 C    0.5888923612   -0.1281176811   -1.5394824739
 C    0.0456301023    0.0762620454   -0.1155434634
 C    0.1473827716    1.5547459242    0.2905146276
 C   -1.3927456767   -0.4540229316    0.1069485180
 C   -2.4318140163    0.0391254321   -0.9339683800
 C   -2.6261479311   -1.1721084164   -1.8849941377
 O   -1.7826566519   -2.2140748172   -1.4089836277
 C   -1.5739900285   -1.9866174239   -0.0174129528
 C   -0.4632989377   -2.8981053806    0.4767474690
 H    1.6403582327    0.1741784353   -1.5912655082
 H    0.5095111724   -1.1673175902   -1.8643703503
 H    0.0428094351    0.4852416904   -2.2654655385
 H    0.6954012906   -0.4846171391    0.5693552466
 H   -0.4841384698    2.1903914268   -0.3410321619
 H   -0.1621339371    1.7075528278    1.3300783425
 H    1.1763363983    1.9160971090    0.1902613607
 H   -1.6948894773   -0.1447823316    1.1141547166
 H   -3.3750051958    0.2979765837   -0.4457987842
 H   -2.0953653410    0.9300829313   -1.4685655287
 H   -3.6748697150   -1.5050518632   -1.8858938662
 H   -2.3394014635   -0.9585355696   -2.9191000275
 H   -2.4998177955   -2.2480300706    0.5290803573
 H    0.4759538423   -2.7188853341   -0.0513144778
 H   -0.2951077173   -2.7476129428    1.5478096126
 H   -0.7446682619   -3.9431658639    0.3200937079