17

 C    0.6880908642    1.4516527044    0.4129801643
 C    0.1783727888    0.0736949141    0.1280566763
 N    0.4447492933   -0.5189076334   -1.0361205742
 N   -0.1699283293   -1.7202382570   -0.9693436089
 C    0.0313605137   -2.6610283188   -2.0619220944
 C   -1.0763194737   -3.5947224231   -2.2220594026
 C   -1.9697692009   -4.3849245739   -2.3602539487
 C   -0.8062153484   -1.9101568854    0.2124264493
 C   -0.6091887962   -0.7652202287    0.9524584872
 H    1.3286802564    1.4654339636    1.3016381510
 H    1.2694851189    1.8169518652   -0.4361453266
 H   -0.1335202823    2.1531057105    0.5953633283
 H    0.1658294221   -2.0596994844   -2.9659894576
 H    0.9651369083   -3.2188572215   -1.9075156521
 H   -2.7659179396   -5.0758976058   -2.4906857291
 H   -1.3472072360   -2.8200172277    0.4158732694
 H   -0.9901652892   -0.5570954681    1.9395782285