16

 N    0.0235732879   -1.1796578344   -0.0366628997
 C    0.0213292265   -0.0296261328   -0.1500496324
 C    0.0373501202    1.4246224887   -0.2818330111
 C    1.3060265144    2.0419279981    0.3359242898
 C    1.3089132247    3.5304094010    0.1692101240
 N    0.4319051025    4.2312279667   -0.5157008152
 C    0.8301773667    5.5451441852   -0.4046444824
 C    1.9614327246    5.6391721941    0.3568656171
 N    2.2593302848    4.3421177113    0.7206298801
 H   -0.0311827819    1.6983156796   -1.3383925296
 H   -0.8534995891    1.8428462830    0.1959128895
 H    1.3637468181    1.7747761089    1.3980321288
 H    2.1913298775    1.6006922509   -0.1389691166
 H    0.2774399375    6.3416477966   -0.8782639836
 H    2.5671241221    6.4728476920    0.6701186774
 H    3.0374102136    4.0518187311    1.2891687539