21

 C   -0.1690035665    1.5060187036    0.0933387534
 C    0.1283112812    0.0436506691    0.0227412416
 O   -0.7461126687   -0.8601896504    0.7182496939
 C    0.6607009584   -0.9230654891    0.9997790519
 C    1.2948324895   -1.7840497437   -0.0970360897
 C    0.7377423518   -0.7555911089   -1.1546358604
 C   -0.2235469651   -1.2438840537   -2.2308833196
 C    0.4403463840   -2.1447590321   -3.2647967349
 O   -0.5458048539   -2.5168727751   -4.2163280024
 H    0.7010381623    2.0955642144   -0.2139869599
 H   -1.0024853030    1.7675594330   -0.5686143501
 H   -0.4445266801    1.7904265472    1.1123912283
 H    0.9605584553   -0.7939170597    2.0341318788
 H    2.3865206708   -1.8118068163   -0.0628291918
 H    0.9049914271   -2.8039096151   -0.1556566664
 H    1.5672152339   -0.1943476824   -1.6009378247
 H   -1.0492878903   -1.7868366134   -1.7597768489
 H   -0.6630774101   -0.3869259930   -2.7571533876
 H    1.2748779838   -1.6078144815   -3.7468893441
 H    0.8695469965   -3.0309550981   -2.7695735332
 H   -0.1383046669   -3.1069499247   -4.8568278842