13

 C   -0.0628177577    1.4248389175    0.0080489924
 N    0.0067760643   -0.0256861144    0.0028701500
 C   -1.0626415312   -0.6911843533    0.0092050325
 O   -2.3036280706   -0.0127248991    0.0214828865
 N   -3.5120508670   -0.6797935636    0.0279086323
 C   -3.4482589717   -1.9620503579    0.0227348705
 C   -2.1880901549   -2.6804711218    0.0110217116
 N   -1.0547586334   -2.0804265598    0.0046063102
 H    0.9520112198    1.8274669853    0.0000504360
 H   -0.6011055354    1.8113625410   -0.8674363706
 H   -0.5848156046    1.8056570835    0.8958191537
 H   -4.4031875004   -2.4767712258    0.0278504600
 H   -2.1952786771   -3.7697617915    0.0074658449