14

 O   -0.2597715031    1.3457426824   -0.0217024221
 C   -0.0055200216   -0.0346840500   -0.0211746139
 C    0.7492861411   -0.4926916994   -1.1961553346
 C    1.3811358317   -0.8494106559   -2.1531936913
 C    0.7854994626   -0.4109788892    1.2397400194
 O    1.3876229007    0.3951316231    1.8960204745
 O    0.7145969318   -1.7402054414    1.4867796219
 C    1.4395798677   -2.2470418209    2.5486390488
 N    1.3329106586   -3.4737414748    2.7878019885
 H    0.4870815617    1.7615569704    0.4323152135
 H   -0.9690919824   -0.5572079191    0.0136310064
 H    1.9295195978   -1.1669933275   -3.0059642577
 H    2.0314249996   -1.4864560964    3.0570810574
 H    1.9149133238   -3.7257672913    3.5854689693