15

 N   -0.1078592091    1.3236737675    0.2108432870
 C   -0.0519211061    0.0605500566    0.0730433395
 N   -1.1213233617   -0.8027492156    0.0910331063
 C   -0.8244968082   -2.1789997552   -0.2375388460
 C   -0.8346171539   -2.5631541744   -1.7380131375
 O    0.6055119946   -2.4392924981   -1.8146082863
 C    0.7127154046   -2.2235315448   -0.3863564752
 C    1.1899600514   -0.7986162821   -0.1100255719
 O    2.3197813713   -0.3925569972   -0.0722941403
 H    0.8459948228    1.6901608384    0.1861215199
 H   -2.0621396301   -0.4416993986    0.1035628305
 H   -1.3088872048   -2.8792048384    0.4453971197
 H   -1.1556135950   -3.5916767868   -1.9423664523
 H   -1.3500768370   -1.8687498803   -2.4092576652
 H    1.2899453212   -2.9984346609    0.1241091019