16

 O    0.3785551345    1.2795031415   -0.1864814259
 C    0.1764402466   -0.0497696048   -0.1426902050
 C    0.0026578289   -0.9958093973   -1.1390129452
 C    0.0006542688   -0.6865183179   -2.6153804117
 C    1.3406984357   -0.0596299382   -2.9309284822
 O    1.6171833228    1.0913847338   -2.6556663733
 C   -0.1710885581   -2.2519970100   -0.4751058451
 C   -0.1188631540   -2.0283723028    0.8750021166
 N    0.0959684050   -0.6736530546    1.0659627215
 H    0.7281613332    1.4992819544   -1.0718338269
 H   -0.1415434353   -1.6009458475   -3.1971793566
 H   -0.7901203337    0.0253425179   -2.8860685900
 H    2.1107989505   -0.7201874330   -3.3794405539
 H   -0.3379566483   -3.2051249152   -0.9541223451
 H   -0.2266681553   -2.6946614574    1.7141137417
 H    0.2110772186   -0.2024900288    1.9464024315