15

 O   -0.2635225926    1.4912297551    0.5012406835
 C   -0.0774241978    0.1286003611    0.2981038851
 C   -0.7045693100   -0.8790805332    1.2413208997
 C   -1.2270933025   -0.7155973606   -0.1645791741
 O   -2.4228718637    0.0385014946   -0.3035393710
 C   -3.4974343916   -0.5803864655   -0.8026100933
 O   -3.5648544888   -1.7297942011   -1.1519631112
 C   -4.6964228869    0.3682869777   -0.9043162491
 O   -4.6721018009    1.5233739399   -0.5856999417
 H   -1.1654078338    1.7134974914    0.2393683574
 H    0.9050048999   -0.0943648668   -0.1079463966
 H   -0.1750399396   -1.7936166607    1.4843796940
 H   -1.3197810766   -0.4684866300    2.0344712760
 H   -1.1248689169   -1.4996294040   -0.9035594379
 H   -5.5889168782   -0.1464941979   -1.3106680809