18

 C   -0.1854160923    1.5292455487    0.0268731632
 C    0.0161499262    0.0219307682    0.0308151564
 C    1.1571494241   -0.6034110045   -0.8148501291
 C    2.1657632297   -0.2188936559    0.2870817892
 C    0.9248621498   -0.5907444735    1.1794232851
 O    0.8009412734   -0.2932244034    2.5128392443
 C    0.7997592031   -2.0421158596    0.7948492563
 N    0.5847574346   -2.9919877770    1.5930605182
 O    0.9601176533   -2.0426938285   -0.5610996513
 H    0.7437504994    2.0937519945    0.1351325855
 H   -0.6658738372    1.8498760994   -0.9034953863
 H   -0.8400255213    1.8139834045    0.8561196783
 H   -0.9446469526   -0.4855076800   -0.1037245888
 H    1.3044519074   -0.4445035464   -1.8791137667
 H    3.0648404720   -0.8320466038    0.3753860232
 H    2.4129090608    0.8408116154    0.3141235401
 H    0.6271451023   -1.1351981978    2.9625511209
 H    0.5251240374   -3.8968588604    1.1269459216