16

 C   -0.0610924784    1.4565189597   -0.0025303316
 C    0.0605033688   -0.0489746085    0.0383696150
 C    1.4136202603   -0.6887596633   -0.1999935337
 C    0.8032073477   -0.7003755039    1.1877905871
 C    0.4213941365   -2.1274283801    1.4664308494
 O   -0.0177565792   -2.6030418969    2.4821045617
 N    0.6839459116   -2.8352419954    0.2892199987
 C    1.3695981232   -2.1093081363   -0.6898839356
 O    1.8246961995   -2.5679370871   -1.7063488898
 H    0.8363210218    1.9398722679    0.3961407518
 H   -0.2039664101    1.8064331394   -1.0298370953
 H   -0.9168759215    1.7928853990    0.5913588153
 H   -0.8011743810   -0.5888182608   -0.3451646454
 H    2.2568593227   -0.0742233290   -0.4855097271
 H    1.1587906501   -0.0950921968    2.0108447646
 H    0.4998118580   -3.8238798780    0.1999418448