18

 N   -0.0112352308    1.0437132896    0.0658254815
 H    0.3869854324    0.1050877898    0.0455448831
 H    0.6435177859    1.7253893322   -0.3409077047
 H   -0.8692008093    1.0622651381   -0.4900746065
 C   -0.3279230630    1.5544183448    1.4733706669
 C   -0.6586678902    3.0022781932    1.2827807042
 O    0.4183877194    3.6944752531    0.6670285829
 C   -2.0376466663    3.3864472753    0.8119298624
 C   -1.6046546753    3.6736085933    2.2378098622
 C   -2.2527918769    2.8248203707    3.3865421143
 O   -2.3722450577    3.4147176460    4.4597253634
 O   -2.5614825282    1.6454275266    3.0513097887
 H   -1.2005780575    1.0494677523    1.9195272892
 H    0.5824362715    1.3932969211    2.0570651523
 H    0.9573546906    4.0888331694    1.3625297428
 H   -2.0836545063    4.2038513077    0.1010645587
 H   -2.7884034720    2.6061885240    0.7254254052
 H   -1.3670575764    4.7036079727    2.4849439833