22

 C    0.0624762227    1.4642130741    0.0004200735
 C    0.0239361240    0.0088084774   -0.0036015864
 C   -0.0182985995   -1.1952954452    0.0103473883
 C   -0.0112895375   -2.6416608377   -0.0307687112
 C    1.2491504963   -3.1911929796   -0.6845164945
 N   -0.5495271817   -3.3155453779    1.1886203684
 C   -1.3225610381   -3.3908489719   -0.0651785418
 C   -2.6223502742   -2.6101338280   -0.0369889538
 C   -1.4432490170   -4.7193670409   -0.7878829238
 H    1.0358737903    1.8377277062   -0.3366731422
 H   -0.7013880082    1.8875709246   -0.6615312180
 H   -0.1136188196    1.8621677621    1.0060190442
 H    2.1307404796   -2.8336187205   -0.1431340270
 H    1.2747669791   -4.2828447323   -0.6871584583
 H    1.3325188576   -2.8427954587   -1.7187554195
 H   -0.0318830217   -4.1825328110    1.3271804825
 H   -2.5056706425   -1.6765423797    0.5136094929
 H   -2.9573028334   -2.3754103968   -1.0535319360
 H   -3.4054397205   -3.2031538669    0.4487042789
 H   -2.2180622988   -5.3293470746   -0.3087196120
 H   -1.7428352625   -4.5722664262   -1.8314546061
 H   -0.5178904144   -5.2985550362   -0.7817892281