22

 C    0.1055038419    1.3179448940    0.4448856171
 O   -0.0004530595   -0.0807323926    0.3441594280
 C   -1.2376180704   -0.4977394600   -0.1963170322
 C   -1.2371636506   -2.0028111452   -0.2452519298
 N   -1.8171873658   -2.7194069813    0.9016954248
 C   -2.4589665603   -2.8328194956   -0.4214527778
 C   -3.8610273235   -2.2839150908   -0.5599385351
 C   -4.9006831529   -3.2385979291    0.0171247282
 O   -6.1826032369   -2.6671150309   -0.1965855181
 H    1.0903951530    1.5432153408    0.8614842224
 H    0.0152134057    1.8083173194   -0.5382772327
 H   -0.6657937956    1.7409545472    1.1081460600
 H   -2.0722071164   -0.1370622554    0.4227461141
 H   -1.3679003033   -0.0835221907   -1.2122763582
 H   -0.3195164015   -2.4036525932   -0.6733514948
 H   -1.2736742163   -3.5505330089    1.1160570567
 H   -2.3005917588   -3.7678936138   -0.9605144413
 H   -3.9516522594   -1.3233169414   -0.0457650648
 H   -4.0900745941   -2.1104640915   -1.6185971422
 H   -4.8168868125   -4.2227911698   -0.4747541171
 H   -4.6966050136   -3.3872537509    1.0881257766
 H   -6.8371279492   -3.2333435101    0.2221266163