19

 C   -0.0830644745    1.5991938584    0.0926579928
 C   -0.0351041165    0.0597493053   -0.0058487645
 C   -1.3861703124   -0.4992146781    0.0447411232
 C   -2.4996228924   -0.9513584450    0.0664398516
 C    0.7093003019   -0.4467436497   -1.2734710472
 C    2.1717122515    0.0424877090   -1.3290186307
 O    2.9336022446   -0.6322926552   -2.3123930203
 C    0.7152658922   -1.9683179059   -1.3136865145
 O    0.3736622026   -2.6262516591   -2.2594955975
 H    0.9195934244    2.0232264817    0.1871914239
 H   -0.5617173546    2.0279671812   -0.7928361653
 H   -0.6635195009    1.9001255536    0.9681214059
 H    0.5167125004   -0.3171149108    0.8681604262
 H   -3.4789267177   -1.3617527122    0.0895152894
 H    0.1739596419   -0.1067514366   -2.1682005127
 H    2.1939132120    1.1307810426   -1.4796582265
 H    2.6713971542   -0.1653326357   -0.3751789370
 H    2.4668062975   -0.5756194760   -3.1532000902
 H    1.0913798556   -2.4478493173   -0.3794207967