15

 C   -0.1951393997    1.4616740003   -0.1467546141
 N    0.0987317806    0.0418100035    0.0168437359
 C    1.4134325020   -0.5304034502   -0.1624496550
 C    2.5317970885    0.3293829097    0.4155730452
 O    3.1021913087   -0.3557227766    1.5340903398
 C    1.8591110003    0.3378068014    1.7400750745
 C    1.8122632229    1.3583664067    2.7402276822
 N    1.7257962886    2.1772307882    3.5522044610
 C    0.7185708790   -0.5210674127    1.1915311503
 H    0.5734937607    2.1428194644    0.2398299193
 H   -0.3326569230    1.6618299529   -1.2131782833
 H   -1.1364746858    1.6795043868    0.3651471739
 H    1.5459773380   -1.3639397432   -0.8414666195
 H    3.1294407474    1.1091673988   -0.0400203665
 H    0.2380702118   -1.3339475901    1.7218508264