21

 O    0.0049979612    1.4253480932    0.0575515300
 C    0.0808407222   -0.0112518172    0.0063591437
 C    0.6326205291   -0.5573163914    1.3343629225
 C   -0.5627472511   -0.3757542870    2.3046515142
 C   -1.8449400065   -0.6143207143    1.4438129159
 C   -1.3430126373   -0.5275062295    0.0273611501
 C   -1.7466073881   -0.9065941365   -1.1811857629
 C   -0.6561198849   -0.7111025066   -2.2178005467
 C    0.6190190816   -0.5075518488   -1.3502834297
 H    0.9020002114    1.7551711241    0.1813695578
 H    0.8782416227   -1.6196495605    1.2201689992
 H    1.5384742691   -0.0441724637    1.6767922082
 H   -0.5063397018   -1.0458691283    3.1662136408
 H   -0.5636102601    0.6486139507    2.6858055788
 H   -2.2931697493   -1.5939173188    1.6431857875
 H   -2.6146388236    0.1321071525    1.6659728639
 H   -2.7186847264   -1.3206201986   -1.4291791905
 H   -0.5631780647   -1.5705767900   -2.8914057732
 H   -0.8606751846    0.1598365045   -2.8546594906
 H    1.3312126398    0.1952851668   -1.7922190579
 H    1.1306009412   -1.4674820609   -1.2238014211