18

 C    0.2829166556    1.6377306485   -0.1577715963
 C    0.0638517035    0.1427812607    0.0534276018
 O    0.4610425442   -0.5764870454   -1.1243651322
 C    1.3057536502   -1.6650291270   -0.7875563192
 C    1.5845572895   -1.5067038157    0.6781572623
 C    0.8864635987   -0.4794671900    1.1627930622
 C    0.7610480245   -0.0093792097    2.5665012236
 N    1.7471115786   -0.4133761538    3.4306486016
 O   -0.1874919612    0.6660716210    2.9289038579
 H    1.3438848954    1.8533463002   -0.3183682506
 H   -0.2741171417    1.9723089970   -1.0370774429
 H   -0.0700468925    2.1893432729    0.7167941018
 H   -1.0059094278   -0.0335043070    0.2461810121
 H    0.8117282841   -2.6291838993   -0.9990381774
 H    2.2187992994   -1.6338638851   -1.4019807991
 H    2.2227782830   -2.1839462147    1.2329960659
 H    2.6442444001   -0.6995580491    3.0773686457
 H    1.7242137063   -0.0018738335    4.3507231228