18

 C   -0.1232533053    1.5986881289    0.5432000625
 C    0.1666247911    0.2389421271   -0.0953193801
 N   -1.0793353377   -0.5312259720   -0.2004051916
 C   -1.6106800295   -1.3125139253   -1.2729789990
 C   -0.6256387073   -2.3754420927   -1.8908885713
 N    0.7056781433   -2.2225650362   -1.2538611447
 C   -0.3827555889   -2.9505281194   -0.5560364287
 C   -1.3620399761   -1.9012125786    0.0934805838
 H    0.7961782526    2.1884956798    0.6299971861
 H   -0.8405636583    2.1670035705   -0.0572819609
 H   -0.5491843658    1.4771115383    1.5441481223
 H    0.6080572799    0.3670475960   -1.0870109420
 H    0.8966649231   -0.3162981698    0.4992193178
 H   -2.5420141734   -1.0261685943   -1.7513919412
 H   -0.7482062659   -2.8660414414   -2.8474067952
 H    1.3149069873   -2.9279193888   -1.6685964695
 H   -0.2761602294   -3.9837296748   -0.2531015100
 H   -2.0630755499   -2.1601376872    0.8807306618