16

 C    0.1499191045    1.3260643038    0.2779374106
 O    0.1949017812   -0.0864347038    0.1387304462
 C    0.4055523625   -0.5161009379   -1.1696081118
 O    1.7305082767   -0.2200784684   -1.6276797335
 C    2.4862919331   -1.4162637329   -1.7466151369
 C    1.4963353228   -2.5368935006   -1.5102715366
 C    0.3158060259   -2.0173561808   -1.2099933218
 C    3.1072387013   -1.4827919062   -3.0839236106
 N    3.6094088810   -1.5617251359   -4.1209738545
 H    1.1135702246    1.7826767479    0.0251230179
 H   -0.6298993512    1.7640881398   -0.3623057016
 H   -0.0878690463    1.5335519348    1.3228305347
 H   -0.2879847801    0.0053241911   -1.8487410819
 H    3.2994584720   -1.4349160737   -1.0049357392
 H    1.7717131096   -3.5798459303   -1.5836217356
 H   -0.5936156374   -2.5477982070   -0.9646906555