13

 O   -0.0815884108    0.0573911061    0.0966099553
 C    0.0117034833    1.2387302018    0.0761960384
 O   -1.0167461732    2.1668476142    0.0737603126
 C   -0.0827807354    3.2799414983   -0.0000729880
 C    0.4187240662    3.8444955488    1.3559142188
 N    0.5076297098    2.7029680361    2.2913445029
 C    1.5925610648    2.9217903390    1.3190718544
 C    1.1134469276    2.3138015301   -0.0270790023
 H   -0.3291621847    3.9842209466   -0.7914206188
 H    0.3257938605    4.8608503736    1.7156191414
 H    0.8109595471    3.0710298152    3.1916113062
 H    2.6180939358    3.0719289695    1.6279909628
 H    1.8236441988    2.2517448109   -0.8476272238