20

 C   -0.0672517232    1.6216600537   -0.0470704788
 C    0.0982107683    0.1089485249   -0.0199279630
 C    0.7618365450   -0.6388426617   -1.1659020345
 C    2.2638494083   -0.7454548006   -1.0556692863
 C    3.0145303160    0.1680986961   -0.1525424656
 C    2.4033347722    0.1978951550    1.0360382017
 C    2.7373492821    0.9920739157    2.2556559108
 C    1.1450034540   -0.6296440924    0.9042313540
 N    1.4077915984   -1.6284868489   -0.2296054642
 H    0.8886187541    2.1300861574   -0.1967822041
 H   -0.7329964651    1.9147304889   -0.8665466632
 H   -0.5124639381    1.9905367613    0.8839091766
 H   -0.8703880874   -0.3690015438    0.1575523138
 H    0.2535406950   -0.9598091767   -2.0718162610
 H    2.7688182004   -1.2384972450   -1.8815304792
 H    3.9010810914    0.7161932008   -0.4459128283
 H    3.6755734740    1.5398460873    2.1330591677
 H    1.9498799377    1.7201884936    2.4888896355
 H    2.8312316434    0.3428902225    3.1354001981
 H    0.7619164835   -1.0821513283    1.8196842100