15

 N    0.0329546968    1.3876763834    0.1777249512
 C   -0.0434894687    0.0099930059    0.0621141974
 C   -1.2198306923   -0.6934268144    0.0395171173
 C   -1.1478180469   -2.1090735430   -0.0022296184
 O   -2.3455937387   -2.7430335844   -0.0172932722
 C    0.0485600272   -2.7823642128   -0.0360574016
 C    1.2963963072   -2.0754917810   -0.0169856448
 O    2.4270801879   -2.5364697976   -0.0299948178
 N    1.1400006107   -0.6606006345    0.0290212127
 H    0.8020538761    1.8238829210   -0.3117381294
 H   -0.8394184739    1.8644012307    0.0035994499
 H   -2.1786615922   -0.1953534929    0.0467452064
 H   -2.1941163270   -3.6942175984   -0.0536501819
 H    0.0974468029   -3.8643556074   -0.0689072314
 H    2.0141492607   -0.1600264748    0.1091135526