16

 O    0.0113471040   -0.0503443337   -0.0194714906
 C    0.0000963560    1.1598684232    0.0016943251
 N   -1.1624100913    1.8904470089    0.0781216411
 C   -1.2338788675    3.2866028398   -0.0117568938
 C   -0.1933362089    4.0187961871   -0.4078323978
 C    1.0916159126    3.3391526317   -0.7975388623
 C    1.2845464640    2.0213457029   -0.0046770219
 C    1.6807286102    2.2729106402    1.3791146185
 C    2.0033892687    2.4924746313    2.5157081536
 H   -2.0063350915    1.3466900887    0.1779040160
 H   -2.1929536739    3.7085913053    0.2630375220
 H   -0.2786633256    5.0963033368   -0.4623995453
 H    1.0848178232    3.1055064415   -1.8724400693
 H    1.9544102666    3.9878827622   -0.6242030736
 H    2.0473626816    1.4013911587   -0.4849332464
 H    2.2932742518    2.6751519553    3.5207774146