16

 O   -0.0814696871    1.3573144182   -0.0478919351
 C    0.0263471429   -0.0416805001   -0.0381784403
 C   -0.4382352704   -0.6846165540    1.2573187701
 C   -1.3262340497   -0.6843467041    0.0235877416
 C   -1.3384488184   -2.2327772265    0.0121226291
 C   -0.0212927777   -2.9324885963    0.0203032196
 O    1.0517630580   -2.6106164389   -0.8219832405
 C   -0.4429272027   -2.2335202683    1.2823792816
 H    0.6835481811    1.7119643917    0.4169314374
 H    0.8282464577   -0.4546368153   -0.6378322201
 H   -0.5531279629   -0.0863006159    2.1518465304
 H   -2.2161766897   -0.0958015961   -0.1539855537
 H   -2.2555794100   -2.7818384413   -0.1653028279
 H   -0.1686302651   -4.0118663457    0.1177206559
 H    1.8642603756   -2.8224565924   -0.3489062396
 H   -0.5861628518   -2.7851143049    2.2047676115