19

 O    0.0281035115    1.4208706306    0.0339210322
 C    0.0212202890    0.0078707352    0.0390364429
 C   -1.3827532390   -0.5957274615   -0.1849192750
 C   -1.5465327924   -0.3891460028   -1.7143903918
 O   -0.2234248843   -0.1583842600   -2.2389450582
 C    0.6959678196   -0.5751572434   -1.2072468167
 C    0.7813361515   -2.0844090746   -1.1033749949
 C   -0.1655306203   -2.7709739870   -0.4618824727
 C   -1.3515243738   -2.0918621466    0.1811301101
 H   -0.0942341952    1.6897140221   -0.8853334971
 H    0.4791548913   -0.3139723945    0.9771777875
 H   -2.1441150916   -0.0611706974    0.3863328442
 H   -1.9939396989   -1.2660397367   -2.1977509842
 H   -2.1571711114    0.4857708339   -1.9591201202
 H    1.6592349079   -0.1156853120   -1.4376081743
 H    1.6154484739   -2.5883935060   -1.5815394931
 H   -0.1110095907   -3.8548385094   -0.3938443820
 H   -1.3109307492   -2.2177772710    1.2729310306
 H   -2.2810488479   -2.5831296489   -0.1372229674