13

 O    0.0279388296   -0.0255242886    0.0451460708
 C    0.0852535165    1.1755216554   -0.0037900863
 C    1.3502107558    1.9547111124   -0.0034057427
 O    2.6522500329    1.3295342389    0.0575196509
 C    2.9663630850    2.7508930592    0.0052441161
 C    1.7973913729    3.1111291932   -0.9714980171
 N    1.1802569291    4.1610281578   -0.1019122904
 C    1.7484474078    3.1902146357    0.8850113200
 H   -0.8194184450    1.8190236515   -0.0545808216
 H    4.0129653186    3.0563974092    0.0198234528
 H    1.7727282042    3.1219919617   -2.0610872385
 H    1.7400679359    5.0165576082   -0.1235982962
 H    1.6665673367    3.2936352055    1.9669229922