17

 C    0.1450708617    1.6188597907    0.3601773662
 C   -0.0281350293    0.1501816614    0.0242279505
 C    0.8943798169   -0.4899683753   -0.9807978695
 C    1.0250059896   -0.8306241016    0.4854376700
 C   -1.4577427256   -0.3088720824    0.0659061464
 C   -2.3003767687   -0.4011351017   -1.1345872374
 O   -1.7654114469   -1.5755874824   -0.5142758307
 H    1.2025811986    1.8990458784    0.3523317086
 H   -0.3765740657    2.2580507125   -0.3616451134
 H   -0.2513620734    1.8492919941    1.3563969735
 H    0.4799850855   -1.2558371190   -1.6262018284
 H    1.6560052967    0.1335163378   -1.4366253471
 H    1.8760485256   -0.4425028411    1.0352407856
 H    0.6961789355   -1.8165704644    0.7949130276
 H   -1.9633869181   -0.1292088509    1.0180794063
 H   -3.3802352638   -0.2853817942   -1.0557343098
 H   -1.8708301986   -0.1547270719   -2.1041846184