14

 O   -0.4647981319    0.9943684271   -0.8778393738
 C   -0.1511112849   -0.2299743995   -0.4722241575
 C    0.1630313855   -1.4333025974   -1.1037519374
 O    0.2691429407   -1.8136498770   -2.4374252800
 C    0.0681133989   -1.0046419613   -3.4634699097
 N   -0.2479253777    0.2266078292   -3.3872597494
 C    0.3948440897   -2.3556750360   -0.0631690571
 N    0.2443461574   -1.8013661613    1.1294579529
 N   -0.0867112546   -0.5127250248    0.8498607645
 H   -0.4446044651    0.9443646947   -1.8774941711
 H    0.2162564529   -1.5592804671   -4.3915291954
 H   -0.3492752461    0.6447519488   -4.3063791450
 H    0.6639460168   -3.3969072361   -0.1603843136
 H   -0.2587464517    0.1399682405    1.5954436925