21

 C   -1.4221529486    0.0134076127    0.1125465133
 C    0.0950168369    0.1623750957   -0.0108999952
 C    0.8558897111   -0.4735191727    1.1798339398
 C    2.2777983113    0.0540358025    1.3888417867
 O    2.3001846487    1.4759173928    1.5740568798
 C    2.9913817724   -0.6113843266    2.5681333402
 O    4.2773838937   -0.0661034208    2.7550926585
 C    0.6029920837   -0.3989480010   -1.3262585610
 O   -0.0975494452   -0.8537528375   -2.1947117319
 H   -1.7874732688    0.5175542297    1.0122589096
 H   -1.9275715942    0.4393678765   -0.7567972107
 H   -1.7087213872   -1.0412731832    0.1704097446
 H    0.3667649241    1.2288789380   -0.0182543575
 H    0.2783071237   -0.2819333270    2.0951972072
 H    0.8870003324   -1.5653965835    1.0699088551
 H    2.8897165571   -0.1051181026    0.4940720147
 H    1.7081952263    1.6848250048    2.3075563766
 H    2.3657460689   -0.4983765540    3.4739752581
 H    3.1100508434   -1.6853284258    2.3869055881
 H    4.1755455763    0.8855900922    2.6236214033
 H    1.7090374443   -0.3678019202   -1.4551729593