16

 C   -0.2052557434    1.5039941250   -0.0052560697
 C    0.0616412015    0.0007068377    0.0298395617
 C    0.8453793968   -0.5761229323   -1.1840156854
 C    1.8825747544   -1.4982069350   -0.5564839641
 C    1.9154566652   -1.4029059240    0.7740887489
 C    0.9004967574   -0.4321474396    1.2501273076
 O    0.7407126781   -0.0318249684    2.3774093311
 C    0.0057579302   -1.2588952448   -2.1689926274
 N   -0.6577054246   -1.8015997185   -2.9441708486
 H    0.7241088307    2.0670743806   -0.1423107003
 H   -0.8898011817    1.7679161559   -0.8160600096
 H   -0.6476607793    1.8159386312    0.9438817514
 H   -0.8920401009   -0.5337243180    0.1149420296
 H    1.3641109120    0.2358081398   -1.7129067199
 H    2.5161018897   -2.1249746264   -1.1729137842
 H    2.5890026840   -1.9192567333    1.4455031691