22

 C   -0.0048341568    1.5597968443    0.0325657128
 C    0.0232148033    0.0298108770   -0.0083005668
 C    0.6972003438   -0.5043681762   -1.2798063683
 C    0.6123385287   -2.0344414616   -1.3544103825
 C    0.9378249026   -2.6869327586   -0.0365559576
 C    1.0012418701   -2.0395538847    1.1296644679
 C    1.3623436319   -2.7314486383    2.4163395381
 C    0.7187066061   -0.5563486338    1.2313850651
 H    1.0111093865    1.9713509334   -0.0028923403
 H   -0.5593002975    1.9703071537   -0.8180983587
 H   -0.4788864537    1.9265435141    0.9496797048
 H   -1.0155612496   -0.3322208377   -0.0067880306
 H    0.2424033335   -0.0553104234   -2.1705504961
 H    1.7521018453   -0.1965382756   -1.2771695183
 H   -0.3951677731   -2.3388834414   -1.6775722594
 H    1.2896777024   -2.4123222670   -2.1312570057
 H    1.1332067707   -3.7578042345   -0.0577422731
 H    1.5823757751   -3.7910621947    2.2597322524
 H    2.2419472120   -2.2673262129    2.8822758213
 H    0.5495547301   -2.6559190761    3.1507514395
 H    1.6646628573   -0.0203011080    1.4120554339
 H    0.1077788713   -0.3625850780    2.1242626615