19

 C   -0.1214496367    1.5064737199   -0.0072895121
 C    0.1544414396    0.0298774561   -0.0003396132
 C    0.4687843869   -0.7281676329   -1.2899070977
 N    1.2161133173   -1.9347212532   -0.9164159588
 C    1.4253288566   -1.9060845941    0.3465386340
 N    2.2110561525   -2.8181972711    1.0126964543
 C    0.8048588118   -0.7393400372    1.0813873528
 C    1.3278582178   -0.2385990845    2.3962571920
 O   -0.6304763173   -0.7719581264    0.9032533561
 H    0.7068442451    2.0541596976   -0.4683256636
 H   -1.0277641618    1.7214355419   -0.5841335740
 H   -0.2742857638    1.8856242507    1.0060096272
 H   -0.4487759269   -1.0024451724   -1.8244754656
 H    1.0680375269   -0.1102139291   -1.9721792893
 H    2.4420350503   -3.6342293125    0.4623407310
 H    1.9413032155   -3.0341546894    1.9607676735
 H    2.4053684946   -0.0560859421    2.3412436513
 H    0.8261564160    0.6871366320    2.6868266909
 H    1.1505581657   -0.9705222131    3.1931701013