21

 C    0.0593978279    1.5439649760    0.0349421460
 C   -0.0064427572    0.0323167355    0.0085421794
 C   -1.3037842432   -0.5719866489   -0.5308560350
 C   -2.1072164096   -1.3053987256    0.5640666069
 N   -1.3844690378   -2.2895179088    1.3711106842
 C   -0.4087182941   -3.1447137316    0.7041520450
 C    0.0531835409   -2.0302786444    1.5832466771
 C    0.6892157565   -0.7681758484    1.0632219913
 N    1.2771303461   -0.6313800738   -0.2835179082
 H    1.0091098667    1.8823210537    0.4563594405
 H   -0.0251224219    1.9528043866   -0.9787824261
 H   -0.7572150156    1.9619456031    0.6347194900
 H   -1.9369996540    0.2191629935   -0.9451726657
 H   -1.0929482530   -1.2479753096   -1.3679696502
 H   -2.5064117023   -0.5639608478    1.2671264056
 H   -2.9676276348   -1.8129817055    0.1144317226
 H   -0.3620926592   -4.1689932051    1.0651436904
 H   -0.2679857437   -3.0540767673   -0.3705760925
 H    0.3856314587   -2.2976952701    2.5836468414
 H    1.2537149603   -0.2325884929    1.8230553452
 H    1.1280326595   -1.4857615487   -0.8156303680