23

 C   -0.0081285492    1.5503932870    0.0487440316
 C   -0.0165323516    0.0474933432   -0.0228480567
 C   -0.0462887612   -0.6124328357   -1.1837539044
 C   -0.0303806538   -2.1146751836   -1.3152108123
 C    0.3156637129   -2.8022841999   -0.0041438529
 C    0.5688781050   -4.2846520870   -0.0048469987
 C    1.7194288115   -3.3226684821    0.1953311258
 C   -0.3779936698   -2.1583041929    1.1813943379
 C    0.0249555210   -0.6813816083    1.3031036966
 H    0.8726292931    1.9151125470    0.5940680869
 H   -0.0020278966    2.0052582973   -0.9456351956
 H   -0.8844206218    1.9276098911    0.5922864866
 H   -0.0889837564   -0.0472435229   -2.1132369658
 H   -1.0143831753   -2.4608352151   -1.6709312471
 H    0.6803597782   -2.4125344653   -2.0976150535
 H    0.2331372989   -4.8652003969    0.8486719119
 H    0.5078968552   -4.8135202385   -0.9509737750
 H    2.4344527633   -3.2056702374   -0.6124620127
 H    2.1568213679   -3.2521787149    1.1864585219
 H   -1.4659951365   -2.2270043215    1.0462347671
 H   -0.1400790955   -2.6953871701    2.1064620151
 H    1.0391606175   -0.6031461897    1.7230689001
 H   -0.6284960665   -0.1708882039    2.0231634231