22

 C   -0.0497767340    1.5325103910   -0.0621320795
 C   -0.0715486617    0.0025444553   -0.0705210937
 C   -1.4849176217   -0.6133397237    0.0010152222
 C   -1.4170283587   -2.0719680117   -0.1129608699
 C   -1.3474811200   -3.2696763453   -0.2139351362
 C   -1.2661793282   -4.7185924778   -0.3321613954
 N   -2.1395156692   -0.2402183719    1.2676701997
 C   -3.0626343632    0.8928960430    1.2168807229
 C   -3.5732991796   -0.4972675054    1.3442926077
 H    0.9749131639    1.9006074907   -0.1727652975
 H   -0.6397728508    1.9469713156   -0.8878938130
 H   -0.4480406247    1.9340801944    0.8731833396
 H    0.4061852990   -0.3724007139   -0.9823690268
 H    0.5045992313   -0.3881039356    0.7745889157
 H   -2.0703096701   -0.2312242805   -0.8588210523
 H   -1.9557561974   -5.0981655314   -1.0943984037
 H   -0.2560084677   -5.0396209535   -0.6096015808
 H   -1.5187942713   -5.2070169734    0.6154836842
 H   -3.0387967000    1.5590567914    2.0747261585
 H   -3.2104559799    1.3905147927    0.2597721058
 H   -4.0591770240   -0.9324238796    0.4729390684
 H   -3.9330993119   -0.8723571405    2.2979519243