17

 C    0.0095803130    1.5834729297    0.0108267074
 C   -0.0368442680    0.0583059760    0.0032472546
 C   -1.4417887746   -0.4969866058    0.0137685982
 O   -2.4449123802    0.1791612903    0.0272814927
 C   -1.5661474507   -2.0426959080    0.0058545770
 O   -0.5801029395   -2.7341007664   -0.0074039876
 C   -3.0017089298   -2.5667962197    0.0163347054
 C   -3.1056075918   -4.0140689345    0.0104876589
 C   -3.1910636652   -5.2115500232    0.0056703025
 H    1.0447828363    1.9341431716    0.0029199920
 H   -0.5017853428    1.9963270433   -0.8627102994
 H   -0.4852201562    1.9870633978    0.8981190997
 H    0.4780205030   -0.3660570498   -0.8685594642
 H    0.4943897059   -0.3750645630    0.8607023174
 H   -3.5056919038   -2.1284806392    0.8878226348
 H   -3.5209532255   -2.1205472861   -0.8421137845
 H   -3.2675256203   -6.2706675129    0.0014469451