18

 C    0.0529551657   -1.2393056674    0.0074750102
 C    0.0236401617   -0.0434758421    0.1235478197
 C    0.0256314655    1.4075998268    0.2525341295
 C    1.3508013772    2.0379171941   -0.2261888120
 C    1.3775523899    3.5530030364   -0.0660871021
 C    1.7639196510    4.1504607930    1.2814920285
 C    2.7136453226    4.2550688115    0.1267605593
 C    0.3783306696    4.2640137145   -0.8261102105
 N   -0.4316933268    4.8169185452   -1.4405861537
 H    0.0606246711   -2.2963531270   -0.0924552280
 H   -0.8064836930    1.8322525417   -0.3226902464
 H   -0.1527947847    1.6866433630    1.2988727280
 H    2.1818133785    1.6137644895    0.3463393196
 H    1.5196694246    1.7726314006   -1.2749030761
 H    1.2467072848    5.0454462640    1.6049834515
 H    1.9859967365    3.4425132911    2.0725272023
 H    3.5935792538    3.6216334671    0.1177201607
 H    2.8448119519    5.2218860481   -0.3437626506