23

 C   -0.0827149226    1.7231698939   -0.0756627535
 C    0.0454325109    0.1921814578    0.0618690636
 C    0.8786121602   -0.1551047724    1.3046165940
 C   -1.3655969041   -0.4106154206    0.0954919229
 C   -1.7059456655   -1.7321057371    0.7322058732
 C   -2.2430689926   -0.4499297494    1.3219113202
 C    0.7103296761   -0.3349198441   -1.2107013261
 C    2.1514763642   -0.5475773185   -1.3946741026
 O    1.2618797617   -1.6517345594   -1.2000042791
 H    0.9004681825    2.1973344850   -0.1639120690
 H   -0.6686440720    1.9956507629   -0.9606851771
 H   -0.5888871442    2.1441191135    0.7983878549
 H    0.3328762991    0.0726974954    2.2240228057
 H    1.1532453335   -1.2123729484    1.3121153577
 H    1.7995690563    0.4350881735    1.3289125704
 H   -1.9071832576   -0.2043590035   -0.8262108497
 H   -2.3890368972   -2.3921692262    0.2092292634
 H   -0.9325439159   -2.2509706970    1.2860734381
 H   -1.8342939149   -0.1234343515    2.2717806268
 H   -3.2962350537   -0.2211716809    1.1993439799
 H    0.1335657199   -0.1188777346   -2.1142480804
 H    2.5828507474   -0.4664943341   -2.3918504161
 H    2.8456084684   -0.3622104140   -0.5779705571