15

 N    0.7445430090    0.6816698256   -1.0877288972
 C    0.2258066516   -0.3604320417   -0.3282096526
 C   -1.0676491579   -0.7354746388   -0.1123785365
 O   -1.1398832459   -1.7312276369    0.8000385467
 N    0.1342054708   -2.0613471240    1.1981480071
 C    0.9392121298   -1.2541504116    0.5388723392
 N    2.3020369586   -1.3456319676    0.8377755457
 C    3.3751527124   -1.1267794738    0.0179037413
 N    3.2966900976   -0.6689563961   -1.1712807505
 H    1.6644969870    0.4347224448   -1.4566343384
 H    0.1159056150    0.9855995128   -1.8190950771
 H   -2.0078761921   -0.3832096188   -0.5051621552
 H    2.4838794815   -1.8730257192    1.6784571946
 H    4.3123859878   -1.3858426419    0.5217365022
 H    4.2225289848   -0.5608239230   -1.5746147993