17

 O   -0.1074542533    1.3482532241    0.0467335984
 N    0.0394691254   -0.0479324224    0.0437854964
 C   -1.0865480687   -0.6249187232   -0.0256658777
 C   -2.5481170971   -0.1890920908   -0.0453694033
 C   -2.9284156355   -1.7017449334   -0.0690002966
 C   -2.9670981737   -2.4149722013   -1.4303557758
 C   -1.9443667904   -1.9479898693   -2.3850252673
 N   -1.5159311458   -2.8781485943   -1.3225936489
 C   -1.4276972628   -2.1032611568   -0.0065422898
 H    0.8053726859    1.6501571536    0.1153344403
 H   -2.8406643767    0.3264356892    0.8750200871
 H   -2.8638662449    0.4220923810   -0.8959057435
 H   -3.6495135803   -2.0569430500    0.6637727254
 H   -3.7487264490   -3.1083904640   -1.7255923594
 H   -1.9378554886   -2.4221232042   -3.3622389042
 H   -1.5862783109   -0.9233971470   -2.3879199890
 H   -0.9828843538   -2.7248483813    0.7694777078