21

 C   -0.4551200831    1.4381463243   -0.3686090753
 C    0.2320108470    0.1135024573   -0.0085062486
 C    0.9128979758   -0.5614550660   -1.1761717495
 O    0.0617925397   -1.0019449505   -2.2517322241
 C    0.7853754402   -1.9860154794   -1.5021207760
 C    2.0649827995   -2.4188593786   -2.1742682712
 O    2.7300142375   -1.2149200356   -2.5251061178
 C    2.2892724472   -0.1363906816   -1.6928227142
 C    2.3412847002    1.1328219764   -2.5316037503
 H    0.2615779472    2.2034001376   -0.6788117367
 H   -1.1638071545    1.2871856547   -1.1877295585
 H   -1.0058031589    1.8288802389    0.4920439973
 H    0.9709934259    0.2725338278    0.7868624445
 H   -0.5178660031   -0.5758085036    0.3943319573
 H    0.1903068462   -2.6837901800   -0.9180118710
 H    2.6587799488   -3.0295064200   -1.4731669574
 H    1.9080699293   -2.9976065726   -3.0909162255
 H    2.9571442850   -0.0401061878   -0.8185349930
 H    1.5787637669    1.0940739344   -3.3133739990
 H    2.1823034936    2.0225990143   -1.9162380404
 H    3.3230143695    1.2164344301   -3.0052832707