17

 O    0.0211995759    1.3950828234   -0.3126517434
 C    0.0700509241   -0.0158041397   -0.2961611874
 C   -1.3150686864   -0.6021118015   -0.0688351347
 O   -2.1261575009   -0.2801594651   -1.1973442489
 C   -3.1685505664   -1.2157422325   -1.1765518678
 O   -2.5943296938   -2.4487208875   -0.7832007264
 C   -1.4538553036   -2.1571870350    0.0132437530
 C   -0.2601023693   -2.9299253847   -0.5355321847
 O    0.7651887933   -3.0814013937    0.0752626237
 H   -0.5976588135    1.6462582640   -1.0075805546
 H    0.4857240245   -0.4209064681   -1.2311590992
 H    0.7369702442   -0.3102362747    0.5186810298
 H   -1.7477006332   -0.1529404674    0.8371840310
 H   -3.9526855649   -0.9170504310   -0.4589107669
 H   -3.5876444358   -1.3144381497   -2.1813110113
 H   -1.6053004847   -2.4670531143    1.0545003501
 H   -0.4244777096   -3.3471797426   -1.5529371822