19

 C   -0.2169854744    1.3665112408    0.1625570199
 O   -0.3327009351   -0.0289093324   -0.0420934216
 C    0.5718837678   -0.5383662377   -0.9979872717
 C    1.9791032899   -0.6494142949   -0.4154268406
 O    2.9858210322   -0.6876470048   -1.0738671488
 C    0.0810198216   -1.9311308231   -1.3954383217
 C   -1.2013765364   -1.9290347068   -2.2536385147
 O   -0.4624801674   -2.3157779143   -3.4300120338
 C    0.7394363570   -2.5276252416   -2.6587013875
 H    0.7794385072    1.6522515679    0.5312738253
 H   -0.4142008529    1.9255770442   -0.7639578325
 H   -0.9608956127    1.6434584761    0.9124242520
 H    0.6141730387    0.1012160304   -1.8941532081
 H    1.9909297199   -0.7376084626    0.6961052779
 H    0.0557246489   -2.5768094044   -0.5148209646
 H   -1.9438079394   -2.6846848653   -1.9663390681
 H   -1.7018335287   -0.9615268427   -2.3709566662
 H    1.5996998393   -1.9833513121   -3.0614381103
 H    0.9933057643   -3.5922403567   -2.5789839948