20

 C   -0.0697112686   -1.0791956380   -0.5659361541
 C   -0.0024397162    0.0288905599   -0.1045925700
 C    0.1011795262    1.3724928776    0.4566450469
 C    1.4746860292    1.9948202080    0.2468447714
 C    1.8100142470    2.6670532820   -1.0628876170
 C    1.6321875208    3.4950324012    0.1834490159
 N    0.4513734880    4.3092182954    0.2759325646
 C    0.3357748602    5.1643814565    1.4540275992
 C    0.6356141903    5.7485273840    0.1172118660
 H   -0.1396171510   -2.0559814919   -0.9755336208
 H   -0.6561831015    2.0273833659    0.0135589064
 H   -0.1248439023    1.3337299988    1.5307770675
 H    2.2837678865    1.4549024743    0.7298426683
 H    2.8054904195    2.5501885875   -1.4759176002
 H    1.0162065518    2.7317554822   -1.7992765976
 H    2.5362424536    3.9103456650    0.6387740947
 H   -0.6582898057    5.2473933342    1.8839284893
 H    1.1465625571    5.1402608319    2.1802394318
 H    1.6464492267    6.1158797212   -0.0506465835
 H   -0.1360851117    6.2645468642   -0.4468120485