13

 O    0.1937826740    1.2562158085    0.1565067273
 C    0.1595905184   -0.0767486827    0.0262221712
 N    0.0817628965   -0.7448644277   -1.1067940303
 C   -0.1320392773   -2.0202458080   -0.6585788447
 C   -0.2100689675   -2.1170473869    0.6851104503
 N    0.0922286456   -0.8476530673    1.1653949643
 O    0.1053642009   -3.3934161217    1.1144829772
 C   -0.1519388444   -4.1201561853   -0.1062490287
 O    0.1005043008   -3.2461914998   -1.2231562348
 H    0.1721832934    1.6197496040   -0.7381034318
 H   -0.1198783692   -0.4662959077    2.0737434733
 H    0.5093966717   -4.9846425062   -0.1601228256
 H   -1.2147846129   -4.4072075691   -0.1224790778