15

 O   -0.0355775483   -0.0466451263    0.0031499637
 C    0.0050710077    1.1661262943    0.0094199731
 N   -1.0835472401    2.0208384995    0.0289762194
 C   -0.7013838058    3.3959595707    0.0313989849
 C   -1.4952441100    4.4589693803   -0.7049495029
 C   -1.4748729783    4.4506473733    0.8006643762
 C    0.7773730155    3.3453434323    0.0111311361
 C    1.1907635834    2.0732401723   -0.0015247880
 H   -2.0302024728    1.6820980531    0.0396410295
 H   -0.9443854125    5.2304269244   -1.2315552990
 H   -2.3997079903    4.1319840967   -1.2061900046
 H   -2.3654900279    4.1180008720    1.3225474330
 H   -0.9098484708    5.2163205410    1.3206618598
 H    1.3840169108    4.2418248773    0.0079344835
 H    2.2029450294    1.6966992290   -0.0172902948