22

 C   -0.2061067406    1.5531691456   -0.0826340990
 N    0.0103798255    0.0790351569   -0.0673184684
 H    0.4301211778   -0.2077479904    0.8193445513
 H   -0.8861802584   -0.4102386962   -0.1274760826
 C    0.8924968342   -0.5072865650   -1.2122147362
 C    2.3404494817   -0.1199890674   -0.9612961155
 C    0.6530068587   -2.0070579870   -1.3125253939
 C   -0.8128361656   -2.4367780026   -1.1909914571
 C    1.2116628779   -2.5145999514   -2.7522800241
 O    1.7993395844   -1.6350670221   -3.4141203672
 O    0.9560244652   -3.6991465106   -2.9788306757
 H    0.7538227724    2.0552238268    0.0262599524
 H   -0.6534703875    1.8205661647   -1.0401992587
 H   -0.8715026699    1.8368860452    0.7346578878
 H    0.5194612934   -0.0267700764   -2.1202830993
 H    2.5043646039    0.9624614540   -0.9419975794
 H    2.7143563378   -0.5559120269   -0.0260780544
 H    2.8927053416   -0.5411906057   -1.8036703730
 H    1.2457194914   -2.5251695626   -0.5465612184
 H   -1.4656612764   -1.8495219619   -1.8530778858
 H   -0.8570454918   -3.4717370594   -1.5383613821
 H   -1.2301323456   -2.4073587276   -0.1701514706