16

 N   -0.1580435373    1.2931425419   -0.3221425148
 C   -0.0263949185    0.0911170610    0.0475092023
 C   -1.1927948668   -0.8672155880   -0.0317576676
 C   -1.0813610779   -2.0258225285    0.9159428043
 C   -2.3000990861   -2.7570321411    1.3095234206
 O   -3.4119540140   -2.4795043549    0.9248659559
 C    0.1108967421   -2.4117386018    1.3775179915
 C    1.3629266320   -1.6971326424    0.9970899365
 O    1.1748372679   -0.3688000576    0.5121053107
 H    0.7268320924    1.7941249380   -0.2202756499
 H   -2.1150547154   -0.3083114888    0.1340169990
 H   -1.2616060378   -1.2456026130   -1.0613370530
 H   -2.1202853656   -3.6073832481    2.0047091698
 H    0.2101618324   -3.2715719776    2.0355828610
 H    2.0333297381   -1.6105136396    1.8602682327
 H    1.9072203544   -2.2777598996    0.2350684311