16

 C   -0.0159815558    1.5269761258    0.0445340351
 C   -0.0060262104    0.0304817407    0.0287279777
 C   -0.0296799776   -0.7945957453   -1.0831125839
 N   -0.0102113258   -2.1298917669   -0.7076605747
 C    0.0267146879   -2.1832366510    0.6624763685
 C    0.0295387332   -0.8799095240    1.1160872148
 O    0.0655251506   -0.8469770635    2.4769987470
 C    0.0852149530   -2.1634436126    2.8683338505
 C    0.0632077179   -3.0295842104    1.8121695276
 H    0.8780062879    1.9338498984    0.5312670474
 H   -0.0519308345    1.9268072291   -0.9727657011
 H   -0.8820680551    1.9212575130    0.5885998738
 H   -0.0595637796   -0.5224856903   -2.1267599579
 H   -0.0216868258   -2.9067088278   -1.3425928314
 H    0.1146652213   -2.3242173206    3.9333456703
 H    0.0725344927   -4.1058849044    1.8778732463