17

 C   -0.0853816322    1.5185449690   -0.0297071193
 C    0.0210548887    0.0132649348    0.0144725888
 O   -1.2106164801   -0.5972717520   -0.4280117714
 C   -1.5178050127   -1.5167692969    0.5282345285
 N   -0.7996166505   -1.6427127583    1.5691429119
 C    0.3139930660   -0.7253293699    1.3669236958
 C    1.5991715287   -1.3017006582    0.7256317409
 N    1.1790213091   -2.0694863833   -0.4613386307
 C    1.3070067434   -0.6046090833   -0.5696286677
 H    0.8466301205    1.9739052685    0.3199886209
 H   -0.2725376595    1.8653245836   -1.0512214408
 H   -0.9027589730    1.8663028868    0.6082906056
 H   -2.4222867803   -2.0781319432    0.3209005416
 H    0.5061821890   -0.0961934631    2.2392672824
 H    2.5471556623   -1.4953349997    1.2116985505
 H    2.0160353392   -2.4797010496   -0.8726670912
 H    1.9773873414   -0.1477975155   -1.2883352960