16

 C   -0.2147089216    1.4818525494    0.0227214470
 C    0.0211579667   -0.0249968613   -0.0404052786
 N    0.9224486428   -0.3479333777   -1.1468697688
 C    0.7795129607   -0.5393273199    1.2483799380
 O    2.0886652729   -0.0438315291    1.2576575441
 C    0.0873007255   -0.1038836097    2.4753651955
 N   -0.4921491209    0.2438885618    3.4109336461
 C    0.7789596894   -2.0296178040    1.2056928466
 N    0.7893935527   -3.1787373717    1.0882682820
 H    0.7331697365    2.0156596723    0.1300766692
 H   -0.7050936118    1.8171770345   -0.8962406324
 H   -0.8591793931    1.7442667064    0.8637727020
 H   -0.9405137151   -0.5520289912   -0.0903824343
 H    0.8235262199   -1.3127371494   -1.4453642960
 H    0.7501291690    0.2506932193   -1.9452299165
 H    2.3353727263   -0.0536494398    0.3113126361