20

 C   -0.2909502308    1.4620775902   -0.0394200735
 C    0.0672581341    0.0022642612    0.0202335355
 C    1.2352223398   -0.5658570516   -0.8159626705
 N    1.7337211025   -1.3198497295    0.3765312086
 C    0.6247429195   -0.8140121654    1.2317449622
 C    1.1296756543   -0.2924748233    2.5629467567
 O    1.9619284009   -1.2586031273    3.1808090378
 C   -0.6865947079   -1.6080974619    1.1227591490
 O   -1.0892919974   -0.8681021041   -0.0539467343
 H    0.5971337593    2.0900871276    0.0808563345
 H   -0.7414362049    1.6936797013   -1.0114040301
 H   -1.0161848628    1.7224142930    0.7367488841
 H    0.9019856781   -1.1770956499   -1.6601311426
 H    1.9672267393    0.1700110014   -1.1683396560
 H    1.7223413054   -2.3275176358    0.2543340544
 H    1.6701405640    0.6545603438    2.4028745254
 H    0.3034617972   -0.0925152901    3.2528403005
 H    2.6408851368   -1.4569160911    2.5214531768
 H   -0.5937900369   -2.6853706617    0.9340207272
 H   -1.3899040706   -1.4509093269    1.9519851344