21

 C   -0.6090367905    1.3782466482    0.0977525528
 C   -0.0522183860   -0.0307881990   -0.0499062953
 C    0.7659761897   -0.4118425006   -1.3205290522
 C    1.7820593468    0.6219900515   -1.8341301387
 O    2.7891747020    0.1802398583   -0.8910094429
 C    1.9381300732   -0.8823069748   -0.4164429724
 C    1.1283181204   -0.5192061758    0.8669377863
 C    1.7814262147    0.4635809744    1.8232853796
 O    0.6729600627   -1.6864371578    1.5412114210
 H    0.1652993195    2.1476353059    0.0215710264
 H   -1.3549124778    1.5813022522   -0.6787458239
 H   -1.1016396871    1.5020529175    1.0677114739
 H   -0.8615236810   -0.7544659937    0.0791920603
 H    0.2698593518   -1.0331032272   -2.0645015730
 H    2.1104910160    0.4498355514   -2.8670118448
 H    1.5362460536    1.6838514272   -1.7156358805
 H    2.4196236472   -1.8649400854   -0.4401495022
 H    2.1751712924    1.3329483760    1.2936705341
 H    1.0660126928    0.7936527370    2.5824913012
 H    2.6274090551   -0.0117505800    2.3361602765
 H    1.4121180448   -2.0389992351    2.0503018438