22

 C   -0.0733457516    1.5405276794    0.0930200727
 C   -0.0124533430    0.0185469625   -0.0020846714
 C   -1.3744987847   -0.5798292207   -0.3574481687
 C    1.1328724857   -0.5814860871   -0.9126469538
 C    1.6955793339   -1.2912862998    0.3185927889
 N    2.0454032022   -0.2117409616    1.2845112616
 C    0.6523746969   -0.7091137718    1.2007376036
 C   -0.0384313770   -1.2648975791    2.4181984902
 O    0.8611259297   -1.9819099591    3.2612722434
 H    0.8961171903    1.9429659717    0.3947525081
 H   -0.3468852054    1.9792635927   -0.8735594843
 H   -0.8250358797    1.8631414998    0.8238442937
 H   -1.7079856752   -0.2136755955   -1.3347505415
 H   -1.3341372414   -1.6734753568   -0.4082359095
 H   -2.1404438233   -0.3040630632    0.3769316723
 H    0.7437637426   -1.2576522748   -1.6778451400
 H    1.8103484876    0.1427704556   -1.3726876735
 H    2.1941985367   -2.2511677338    0.3751291175
 H    2.4522813867   -0.6944897506    2.0875109080
 H   -0.5345283398   -0.4539470148    2.9723648350
 H   -0.8216605915   -1.9696949732    2.1173110553
 H    1.1698301103   -1.3820197899    3.9453939222