19

 O    0.1032211780    1.5435282648    0.1402143289
 C    0.0438359821    0.1264863120    0.0682131781
 C    0.1424829186   -0.6259892359    1.4166549020
 C   -0.9928226857    0.0012368632    2.2440926865
 C   -2.1168318705    0.0577737570    1.1451230831
 O   -2.6127355590    1.3481346846    0.8694479171
 C   -1.3423897922   -0.5886479604   -0.0244721181
 C   -0.6359566120   -1.7721683578    0.6877949463
 O    0.1044380227   -2.5572447138   -0.2217818640
 H    0.2333624750    1.8859152511   -0.7493285716
 H    0.7517843754   -0.2617259380   -0.6649700539
 H    1.1024840720   -0.8007643932    1.9052840854
 H   -1.2700860692   -0.6167609288    3.1031923564
 H   -0.7562950603    1.0045999707    2.6045923203
 H   -2.9872335180   -0.5422535888    1.4261703791
 H   -1.8386748949    1.8770166607    0.6319592074
 H   -1.8745054239   -0.7263488931   -0.9651248462
 H   -1.2696141293   -2.3970907312    1.3320117166
 H    0.6955451613   -3.1220512731    0.2863001667