21

 C   -0.0506472831    1.5148987989   -0.0337330933
 C   -0.0563242029   -0.0194889631    0.0236233283
 C   -1.5024851394   -0.5395836046    0.1113097100
 O    0.5769361393   -0.3977669593   -1.2097854233
 C    0.4561307859   -1.7178509696   -1.6830092911
 C    1.1181455629   -2.7904867303   -0.8721516751
 C    1.5448837665   -2.7248500744    0.3968863861
 C    1.4196528019   -1.6285790474    1.3510138764
 C    0.7366727428   -0.4827141113    1.2270497221
 H    0.9733051792    1.8807205564   -0.1472426643
 H   -0.6369014054    1.8591909049   -0.8895818940
 H   -0.4764003208    1.9411755811    0.8792381940
 H   -2.0639700044   -0.2448238647   -0.7822879082
 H   -1.5358566195   -1.6269986141    0.2128386855
 H   -1.9997972927   -0.1128891062    0.9870558974
 H   -0.5977767063   -1.9932253927   -1.8655888476
 H    0.9271332443   -1.6941739073   -2.6749324444
 H    1.2711897413   -3.7208488267   -1.4170993045
 H    2.0376895061   -3.6099933956    0.7933082949
 H    1.9277218637   -1.7967130953    2.2982121412
 H    0.7365888705    0.2041519613    2.0704933300