22

 C   -0.0497418126    1.5066968667    0.0670100901
 C   -0.0544638764   -0.0164459041   -0.0827036759
 C    0.8127220656   -0.4871169906   -1.2422196831
 O    0.7410698737   -1.9012192004   -1.3078934406
 C    1.3917426951   -2.4930411513   -2.4144190108
 C    2.8959575195   -2.6560782477   -2.1840125482
 C    0.7131231249   -3.8602585846   -2.6191484787
 C   -0.6985228048   -3.7330788299   -2.9735937499
 N   -1.8094090022   -3.6304547344   -3.2735821099
 H    0.9606919473    1.8887520191    0.2506928899
 H   -0.4312181083    1.9980143381   -0.8348290031
 H   -0.6789631796    1.8191286453    0.9050627849
 H    0.3068856460   -0.4904960976    0.8370986774
 H   -1.0744004338   -0.3822128615   -0.2442293218
 H    0.4574728178   -0.0490734198   -2.1897285925
 H    1.8524339153   -0.1513539835   -1.0974608299
 H    1.2230990056   -1.8813938734   -3.3148730374
 H    3.3785914955   -3.1129432625   -3.0538453815
 H    3.3689855841   -1.6856164642   -2.0130892123
 H    3.0818459778   -3.2856775363   -1.3081223242
 H    1.2271394356   -4.4230250430   -3.4052492556
 H    0.7969838138   -4.4361316645   -1.6908731467