20

 C    0.0676150633    1.4993979771    0.1626433641
 C   -0.1002101529   -0.0012686153   -0.0844808473
 C    0.7780959013   -0.5130346075   -1.2256351243
 N    0.5643512755   -1.9361750488   -1.4425732830
 C    1.2899135106   -2.5855067043   -2.4307859495
 N    1.5534327592   -3.8881553272   -2.3212456457
 N    2.2053732933   -4.1918157559   -3.4721782404
 C    2.3689278768   -3.1271704812   -4.2840832996
 C    1.7886234144   -2.0496758501   -3.6480929523
 H    1.1039498996    1.7483442973    0.4159232016
 H   -0.2048807070    2.0805875786   -0.7252045028
 H   -0.5664047526    1.8371361187    0.9876045552
 H    0.1471596574   -0.5536270283    0.8325994141
 H   -1.1461419656   -0.2355581437   -0.3138345015
 H    0.5151967226    0.0205419028   -2.1476358804
 H    1.8360294819   -0.2743431888   -1.0162931799
 H    0.5461568067   -2.4773659555   -0.5877931004
 H    2.5112568444   -5.1369530295   -3.6191370363
 H    2.8734609907   -3.2078134544   -5.2342976795
 H    1.7303068303   -1.0370112639   -4.0093116421