21

 C   -0.1924654098    1.5638868403    0.0353940992
 C   -0.0546660128    0.0268446394    0.0127360585
 C    0.3436292330   -0.5180481448   -1.4040526010
 O    1.6690099242   -0.9737065921   -1.5809886848
 C    2.7060899447   -0.0317876786   -1.6885821969
 O    3.5688591908   -0.0168483411   -0.5915278144
 C    3.0404889966    0.5705077392    0.5968596420
 C    2.0948561978   -0.3253997513    1.3685538329
 C    0.8019068200   -0.5432795010    1.1249961905
 H    0.7279681033    2.0824459670   -0.2412071722
 H   -0.9666996357    1.8783605970   -0.6730368969
 H   -0.4850071263    1.9126163535    1.0300582561
 H   -1.0689807929   -0.3542916293    0.1799904516
 H   -0.2686369976   -1.3963054814   -1.6281542500
 H    0.0994805768    0.2496428435   -2.1544791328
 H    3.3358992053   -0.3353592044   -2.5312377801
 H    2.2889590976    0.9733380502   -1.8782850969
 H    3.9155585149    0.7911510722    1.2141638528
 H    2.5695558885    1.5304042574    0.3483551380
 H    2.5480103176   -0.8647226734    2.1972157651
 H    0.2929533341   -1.2502137722    1.7770722892