16

 C    0.0002279967    1.5547579377   -0.0936177760
 C    0.0696083161    0.0332522812   -0.0266752950
 N    0.7657331780   -0.5472601184   -1.1746658607
 C    1.5626534573   -1.4278816113   -0.7204610659
 N    2.3316808737   -2.3024925724   -1.4263741626
 O    1.6527429652   -1.6063071290    0.6396194350
 C    0.8502476470   -0.5604149269    1.2100788440
 C    1.7270379297    0.3934502591    1.9049465680
 N    2.4021902643    1.1480050914    2.4613859334
 H    1.0009088028    1.9925356484   -0.1337622688
 H   -0.5402128098    1.8478742976   -0.9967843396
 H   -0.5250842206    1.9668888046    0.7736491832
 H   -0.9549046378   -0.3618972473    0.0101807910
 H    2.4362701726   -2.0728621302   -2.4019656846
 H    3.1672500850   -2.6265938430   -0.9647556503
 H    0.1789305797   -1.0090326214    1.9462606489