18

 C   -0.3100404094    1.1451186388    0.2725723723
 O   -0.3177369928   -0.2616454732    0.4291665224
 C    0.6712763910   -0.7487121427    1.3167388724
 C    0.3069968143   -2.2074473505    1.6269747300
 O   -0.8856125319   -2.2864830011    2.3865653978
 C   -2.0540905803   -2.3271536709    1.7056148005
 N   -3.1433258971   -2.2717191348    2.3385406039
 C    2.0237664982   -0.6624691092    0.7532453378
 C    3.1283598644   -0.6143860066    0.2819994736
 H    0.6376151502    1.4975774582   -0.1556203447
 H   -1.1262411979    1.3916781411   -0.4093804311
 H   -0.4779040208    1.6550674491    1.2323901466
 H    0.6350979173   -0.1850584656    2.2634791101
 H    0.2207120637   -2.7617676288    0.6844028481
 H    1.0955111538   -2.6599244667    2.2315267571
 H   -1.9239245653   -2.4244324878    0.6218869239
 H   -3.9225649280   -2.3457928026    1.6878594029
 H    4.1065189006   -0.5627537568   -0.1295283635