18

 C   -0.1695306372    1.4423255960   -0.0729546122
 N   -0.2074896643   -0.0066729236    0.1519341896
 C    0.6606564544   -0.5234324596    1.2190514907
 C    2.1348952459   -0.1230800253    0.9947417091
 C    0.2204829307   -0.0348087835    2.5471191669
 N   -0.1810891806    0.4321872483    3.5252565345
 C    0.6265282494   -2.0840991972    1.2385763826
 N    0.2255716198   -2.6321054198    0.0674497660
 O    0.9785975186   -2.7054233769    2.2173143450
 H    0.7839527248    1.7303559099   -0.5216992861
 H   -0.9597740134    1.6975786449   -0.7830999797
 H   -0.3206850293    2.0331446523    0.8423722476
 H   -1.1631532550   -0.2723446841    0.3719008712
 H    2.2785975495    0.9517842983    1.1174380550
 H    2.7582258849   -0.6423043459    1.7244447309
 H    2.4383902575   -0.4144225401   -0.0143066043
 H    0.0070462158   -2.0319599790   -0.7117299782
 H    0.2571248486   -3.6330174445   -0.0338752483