16

 O   -0.1192697230    1.4370611243   -0.1183423492
 C   -0.0268423361    0.0385768234    0.0337167958
 C    0.2795367588   -0.5388576154    1.4604493128
 C   -1.0652375015   -1.2612498999    1.4304475255
 C   -2.1912928928   -0.2710911167    1.2244688109
 C   -1.3916653054   -0.6449895184    0.0295804655
 C   -1.3011893321   -2.6539649003    1.8164315669
 O   -0.4816966241   -3.3696699834    2.3441380171
 H    0.7686888054    1.8049883010   -0.0623166088
 H    0.6387670111   -0.4022416134   -0.7192698847
 H    1.1272598879   -1.2253889772    1.4808854495
 H    0.3930326266    0.2097191260    2.2499275392
 H   -3.1925279347   -0.6895230832    1.2611753502
 H   -2.0938525918    0.7174328878    1.6623091673
 H   -1.8342075637   -1.1500464109   -0.8201206334
 H   -2.3217295045   -3.0293527938    1.5665094655