21

 C   -0.4834584690    1.5099927029    0.2499333102
 C    0.0128370655    0.0893199377    0.0320685517
 C   -1.0442099525   -0.7620438243   -0.6643920279
 O    1.2507972656    0.0781982511   -0.7356600855
 C    1.8757217519   -0.8376518605    0.1740609489
 C    0.7548521894   -0.6404811477    1.2334186430
 C    1.1952479663    0.2723629067    2.3876627883
 C    0.1341581218   -1.8460525400    1.7551940113
 C   -0.3662358135   -2.8405190525    2.2111967226
 H    0.2838653675    2.1498167645    0.6880307638
 H   -0.7715338528    1.9429381516   -0.7135610931
 H   -1.3643418062    1.5185955551    0.9002093135
 H   -1.2971583114   -0.3076934252   -1.6273025606
 H   -0.6830176761   -1.7768020168   -0.8449622990
 H   -1.9538749012   -0.8304720423   -0.0600482284
 H    1.9369534320   -1.8554733728   -0.2304168605
 H    2.8755182800   -0.5059261756    0.4767310101
 H    1.7447501706    1.1386991377    2.0112442554
 H    0.3370465296    0.6246972183    2.9664296894
 H    1.8531024381   -0.2809592035    3.0641545878
 H   -0.8108080557   -3.7209558243    2.6047673889