18

 C   -0.0973500991    1.5606522630   -0.0148886807
 C    0.0131079323    0.0421707260   -0.0678691473
 C    0.8631836084   -0.6068248757   -1.1868825391
 O    1.7444581951   -1.2053457213   -0.1842216945
 C    1.0399184512   -0.6054928861    0.8410275647
 N    1.2490146336   -0.6124318469    2.0751161428
 C    2.4022202136   -1.3302235386    2.5910414508
 C    2.9232078267   -0.6475548414    3.8465949638
 O    4.0258765175   -0.8170429456    4.2958938723
 H    0.8824172722    2.0326929763   -0.1381495618
 H   -0.7594151968    1.9326366512   -0.8029302369
 H   -0.5029497746    1.8764247852    0.9501064641
 H   -0.9720408281   -0.4219884558    0.0353656064
 H    0.3823985068   -1.3781648964   -1.7924119150
 H    1.4169691181    0.0891121711   -1.8229014469
 H    2.1002572602   -2.3454329558    2.8944981716
 H    3.2243276230   -1.4486604613    1.8742379539
 H    2.1785714900    0.0220078221    4.3317746519