10

 O    0.1183703387    1.2823522036    0.1135075608
 C    0.0861850393   -0.0475052660    0.0008564815
 N    0.1975250636   -0.7579904742   -1.1032504396
 C    0.0936268668   -2.0340792786   -0.6181547752
 O    0.1555408605   -3.1030656232   -1.4215822026
 N   -0.0705881042   -2.1608427197    0.6800054160
 N   -0.0728509005   -0.8355911507    1.0706892550
 H    0.2400601688    1.6384187485   -0.7755844586
 H    0.2774738350   -2.7701200309   -2.3181803232
 H   -0.1830886978   -0.5849846288    2.0376105058