16

 C   -0.0464906543    1.5341571985   -0.0161914613
 C   -0.0148295526    0.0192371356    0.0182592313
 N   -1.2566466571   -0.6062501184   -0.4299980147
 C   -1.5320861140   -1.4851266192    0.4437948173
 O   -0.7575589068   -1.6268111172    1.5595438702
 C    0.3217303694   -0.7059732142    1.3715092864
 C    1.5916800472   -1.2853548548    0.7210194213
 O    1.1797371598   -2.0332746901   -0.4197421082
 C    1.2806982825   -0.6222639835   -0.5671292682
 H    0.9035956914    1.9559614962    0.3290982468
 H   -0.2286253165    1.8832397533   -1.0370193614
 H   -0.8482072678    1.9178320265    0.6212763709
 H   -2.3818365046   -2.1579090892    0.4146387174
 H    0.4696366136   -0.1090309373    2.2726100663
 H    2.5366134131   -1.5499817472    1.1812084997
 H    1.9314497667   -0.2429775989   -1.3473644437