10

 O    0.0042157326    1.2839469134    0.0080736580
 C   -0.0367292656   -0.0405223364    0.0007720547
 N   -1.1899404692   -0.6263350870    0.0040272619
 C   -1.1806000423   -2.0015583849   -0.0037002423
 O   -2.1319053505   -2.7374464575   -0.0023990406
 N    0.1357199915   -2.5608235669   -0.0142156572
 N    1.2764391960   -1.9003585001   -0.0169495423
 N    1.2314224874   -0.6257883451   -0.0095849068
 H    0.9374106234    1.5440771421    0.0043094504
 H    0.2244212465   -3.5693059775   -0.0203413658