15

 C   -0.0051402208    1.4213150342   -0.0141535729
 O    0.0151643002   -0.0151927309   -0.0292708544
 C    0.6194386868   -0.5648797292   -1.0782587176
 O    1.1351279550    0.0371727531   -1.9886500783
 C    0.5913783397   -2.1105601907   -1.0074389642
 O    0.0749949480   -2.6926755604   -0.0954820381
 C    1.2793864388   -2.7699629092   -2.2020474765
 C    1.2680169619   -4.2204603609   -2.1623360781
 C    1.2602645185   -5.4203701691   -2.1325063946
 H    1.0137965428    1.8159632344   -0.0087799834
 H   -0.5285231473    1.8035368481   -0.8939016708
 H   -0.5310338484    1.6980718214    0.8984418670
 H    0.7996959331   -2.3862962049   -3.1123265091
 H    2.3025980630   -2.3745704752   -2.2531756332
 H    1.2529451887   -6.4818634608   -2.1055057257