21

 C   -0.0672867691    1.5375657920   -0.0367016198
 C    0.0493472212    0.0235026214    0.0191929844
 C   -1.1671759035   -0.6798930815   -0.5645473423
 C    1.3555668392   -0.7048879860   -0.2203348068
 C    2.5323521444    0.0180661791    0.3931601280
 O    3.0664714071   -0.7865097297    1.4577347936
 C    1.8996774258    0.0126347151    1.7323753001
 C    1.9720316890    0.9607299048    2.8869368112
 C    0.6891644183   -0.7184188743    1.1770849912
 H    0.8172057855    2.0434619089    0.3536535297
 H   -0.2112519190    1.8689102686   -1.0718183159
 H   -0.9348493585    1.8793077864    0.5401448077
 H   -1.3127340175   -0.3984192450   -1.6134812430
 H   -1.0654853758   -1.7685470849   -0.5191887604
 H   -2.0757867030   -0.4036505540   -0.0178458434
 H    1.4276965633   -1.5368934102   -0.9113370620
 H    3.2044995930    0.7425700184   -0.0526760667
 H    2.9377796080    1.4724724498    2.9036011851
 H    1.1741169079    1.7075157085    2.8326973516
 H    1.8602972474    0.4209986291    3.8342834469
 H    0.1980254162   -1.5599520367    1.6530510108