17

 C   -0.4056985848   -1.1397423701   -0.0674878858
 C   -0.2404991526    0.0513608950   -0.0581022361
 C   -0.0416727474    1.4873021595   -0.0347394529
 N   -0.0282056961    2.0998799110    1.3550777178
 C    1.3673535438    2.1392764724    1.2979916054
 N    2.3713834843    1.9190440343    2.0369406764
 C    3.4658349919    1.6517596899    1.0553050280
 C    2.7582356131    1.1846403347   -0.2725701832
 C    1.4588713440    1.9934164879   -0.1899733663
 H   -0.5553062849   -2.1913642412   -0.0772499936
 H   -0.7549033163    1.9912085077   -0.6917376735
 H   -0.4823601092    1.6145737423    2.1218255851
 H    4.0748172765    2.5514194131    0.8927339901
 H    4.1272855395    0.8811704490    1.4603290109
 H    3.3497131276    1.3778260718   -1.1707783256
 H    2.5518966232    0.1111739969   -0.2165830892
 H    1.4816520374    2.9284649457   -0.7536192875