18

 C   -0.0743767700    1.5910773948    0.0623263422
 C    0.0207543654    0.0596027702   -0.0082228310
 C    0.8084419758   -0.4534983214   -1.2024658702
 C    1.7919484758   -1.2861261217   -0.8625400666
 C    1.8607936899   -1.4416373508    0.6273699641
 N    2.1688943441   -0.1309447624    1.3003433004
 C    0.7692928123   -0.5666056967    1.1709163833
 C    2.2802621091   -2.6631703020    1.2419585091
 C    2.6571880511   -3.6883410641    1.7470777435
 H    0.9230934458    2.0249201187    0.1662226313
 H   -0.5394075415    1.9959077605   -0.8421442998
 H   -0.6799403365    1.9053480982    0.9185635484
 H   -0.9989254133   -0.3513147514   -0.0384905659
 H    0.5910361396   -0.1256654191   -2.2133751828
 H    2.4862818581   -1.7779839151   -1.5314512096
 H    2.4791120232   -0.3323770309    2.2503839402
 H    0.2278220316   -0.8484060678    2.0674538737
 H    2.9816541996   -4.5954511291    2.1928376298