21

 C   -0.1198798496    1.5326745859   -0.0140818002
 C    0.0486559686    0.0299234520    0.0258976016
 C    1.3822621045   -0.6299495300   -0.2333125677
 C    0.7732894250   -0.6947090246    1.1447989217
 C    1.4223176841    0.0469622894    2.2979286848
 N    0.1800950206   -1.9629516465    1.5009890041
 C    0.9710643724   -3.0380348571    1.8616643794
 N    0.2458118991   -4.1098313192    2.3800942468
 O    2.1823650793   -3.0548340245    1.7579796937
 H    0.7762096677    2.0552468516    0.3312886234
 H   -0.3161203842    1.8673369018   -1.0386074488
 H   -0.9590220988    1.8635485322    0.6086252028
 H   -0.8065386559   -0.5196678934   -0.3603148184
 H    1.4123478619   -1.5426141055   -0.8149636806
 H    2.2496911613    0.0107115972   -0.3545409222
 H    1.8797164039    0.9849041038    1.9740606700
 H    0.6900072747    0.2821794135    3.0796972042
 H    2.2056393727   -0.5791200991    2.7333600251
 H   -0.7334447466   -1.9163980857    1.9291751494
 H   -0.6833540071   -4.2578783402    2.0140039376
 H    0.7997603563   -4.9521612215    2.4255156334