19

 C   -0.0965209561    1.5401097090    0.1131272396
 N   -0.0928390417    0.0848632560    0.1899454844
 C    0.8595845535   -0.4671939049    1.1431187058
 C   -1.2891927555   -0.5661816169    0.0084220947
 C   -1.6483573752   -1.8963659610   -0.0624593068
 C   -0.8175335906   -3.1406674702    0.0167632954
 C   -3.0383871457   -1.8153736600   -0.3269440989
 N   -3.4979027733   -0.5926944963   -0.4211009300
 O   -2.3679171135    0.2151452916   -0.1902189255
 H    0.9334309484    1.8820968738   -0.0218848776
 H   -0.6925308342    1.8669684563   -0.7389608418
 H   -0.5047141697    2.0119826931    1.0197513420
 H    0.6078154497   -0.2060109302    2.1832977013
 H    0.9026464451   -1.5524134383    1.0620713869
 H    1.8546926865   -0.0705918717    0.9215094992
 H   -0.4959505210   -3.3807112708    1.0380529270
 H   -1.3940025323   -3.9975962818   -0.3434266192
 H    0.0827930627   -3.0743373093   -0.6043675012
 H   -3.7249214671   -2.6399785285   -0.4724290854