23

 C    0.1345050491    1.3966416544   -0.2191740233
 C   -0.0750968082   -0.1122125890   -0.0819576213
 O    0.7499248932   -0.6350474048    0.9597417097
 C   -1.5496204804   -0.4991233936    0.1256940462
 C   -2.4569731943   -0.0888155169   -1.0732839196
 C   -3.3538571790   -1.3110195190   -1.3434539997
 C   -2.4427790316   -2.4975691514   -1.0003016009
 O   -1.4253030510   -2.6759727186   -1.9875527182
 C   -1.7440911858   -2.0357572097    0.2806481672
 H    1.1983289203    1.6178981885   -0.3405223311
 H   -0.4053973105    1.8084918847   -1.0768261845
 H   -0.2219390869    1.9179377330    0.6791795146
 H    0.2787692479   -0.6186940332   -0.9878122850
 H    0.4949863831   -0.1957355658    1.7790606734
 H   -1.8926268261    0.0077988550    1.0383260553
 H   -3.0303970430    0.8208973955   -0.8782918336
 H   -1.8374358022    0.1029005625   -1.9553206391
 H   -4.2210796467   -1.3170210117   -0.6716069712
 H   -3.7384470522   -1.3505969504   -2.3691018725
 H   -3.0019992370   -3.4333901592   -0.8581210561
 H   -1.8571086810   -2.8329170478   -2.8335289212
 H   -0.7966744983   -2.5554750397    0.4333576236
 H   -2.3860428395   -2.2597148730    1.1385779772