20

 C   -0.0459916121    1.5683617394   -0.0295192057
 C   -0.0101481458    0.0412943146    0.0221819781
 O    0.5847136072   -0.4973334235   -1.1617574255
 C    0.8296620336   -0.4806745790    1.1913397637
 C    0.7536437628   -1.9997238926    1.3139314208
 C    1.4204661021   -2.6793813711    2.5493842963
 N    0.0891980804   -3.1752322397    2.9116555932
 C   -0.5766569165   -2.5631225906    1.8785918192
 O   -1.7420867100   -2.4921894814    1.5830144038
 H    0.9671876553    1.9728820475   -0.1231000549
 H   -0.6293064931    1.9125799493   -0.8907287002
 H   -0.5083067198    1.9835953377    0.8721843360
 H   -1.0322710347   -0.3470589697    0.1370966204
 H   -0.0195522804   -0.3425811551   -1.8938367707
 H    1.8712768642   -0.1715020495    1.0365583092
 H    0.4839682204   -0.0101188989    2.1197018775
 H    1.0258228787   -2.4628542222    0.3634490270
 H    2.1478937923   -3.4653952293    2.3242889938
 H    1.8486697223   -1.9806334923    3.2765239742
 H   -0.2465744069   -3.6921464732    3.7107062739