14

 C   -0.1510052808    1.5124289695   -0.0806599853
 C   -0.0342015660    0.0001436717    0.0292648169
 O   -1.2706960763   -0.6439226477    0.1659793542
 C    0.8637524432   -0.7012752810   -1.0391119910
 O    1.8246747146   -1.0737553842    0.0001699526
 C    1.0596305269   -0.5090120124    0.9973043361
 O    1.2728904984   -0.4920941528    2.1629445967
 C    0.3064368471   -1.8602010396   -1.7218611194
 N   -0.1224118218   -2.7622634924   -2.3009076710
 H    0.8218997140    1.9820921539   -0.2538661205
 H   -0.8266770116    1.7714662953   -0.9003775994
 H   -0.5578789516    1.9193885443    0.8504201533
 H   -1.6507432180   -0.3989177345    1.0178002149
 H    1.3311751818   -0.0267101701   -1.7599200382