17

 C    0.0433799752   -1.2492016516    0.2506235865
 C   -0.0130425759   -0.0485612438    0.1944095619
 C   -0.0966722099    1.3864355309    0.0858035501
 C   -1.3424980520    1.9306242404   -0.5956032345
 C   -1.3932075399    1.5146292561   -2.0793839607
 C   -2.5760866844    2.0286116213   -2.7630326034
 N   -3.5189890868    2.4423763070   -3.2877071314
 C    0.6050540825    2.2058146521    1.1213952371
 N    1.1464683748    2.1329976218   -0.2397327210
 H    0.0970975442   -2.3083042035    0.3137652732
 H   -2.2361771795    1.5722667973   -0.0756020366
 H   -1.3300447595    3.0214100804   -0.5259229819
 H   -0.4972572981    1.8860270885   -2.5885544885
 H   -1.3838322715    0.4222393775   -2.1634785996
 H    0.1848547587    3.1687582663    1.3981799054
 H    1.1154434515    1.6773742710    1.9205903964
 H    1.9331912604    1.4890420985   -0.2654242031