16

 O   -0.3276167916    0.0361507867    0.2448248079
 C   -0.0469767623    1.2185868504    0.1680825122
 C    1.2296294371    1.8064262339   -0.0294800670
 N    1.2623455703    3.3013679044   -0.1077050291
 H    0.8851834946    3.6410022999   -0.9972033688
 H    0.6987952114    3.7358982718    0.6287573014
 C    2.6959475846    3.7209929583   -0.0057441475
 C    3.4153720808    3.2711297433    1.2253918795
 C    3.5277634526    2.4786096901   -0.0590268115
 C    2.5591838484    1.2860006639   -0.1343731444
 O    2.9414350639    0.1361953887   -0.2371263656
 H   -0.8634832528    1.9960056159    0.2652289418
 H    2.9134725275    4.6575084910   -0.5018639865
 H    4.2549202664    3.8871269414    1.5289744023
 H    2.8452068468    2.8335253691    2.0390061895
 H    4.4650839825    2.4251239113   -0.5965065843