19

 C   -0.0469878717    1.5479250298    0.0902574263
 C   -0.0047822183    0.0270951138   -0.0030374824
 C   -1.3782319202   -0.5698649846   -0.3016812026
 C    1.1203191015   -0.5905300040   -0.9264741988
 C    1.7210431181   -1.2873523345    0.2945030463
 N    2.0952288840   -0.2264576751    1.2437456123
 C    0.6810508634   -0.6909522150    1.1962988336
 C    0.0476245639   -1.2447386393    2.3459190836
 N   -0.4875405432   -1.6842311340    3.2744301456
 H    0.9321223209    1.9474418534    0.3629185743
 H   -0.3431766024    1.9807358074   -0.8716764654
 H   -0.7762259774    1.8734027074    0.8403923603
 H   -1.7470329213   -0.2054385717   -1.2661192206
 H   -1.3430960771   -1.6634127455   -0.3438332089
 H   -2.1049605064   -0.2877735623    0.4673735144
 H    0.7123476612   -1.2824388866   -1.6657674709
 H    1.7899179207    0.1208952331   -1.4145054295
 H    2.1727712119   -2.2698051622    0.3524269132
 H    2.5346747025   -0.6660241301    2.0527865892