17

 C   -0.0229857275    1.4333428923   -0.1472607213
 C    0.0360198944   -0.0628140138    0.0694640654
 O    1.0507440695   -0.6801650083   -0.7898035438
 C    1.7948276231   -1.0659482873    0.3436986649
 C    0.7885904960   -0.5181856013    1.3263754133
 C    0.9810145666   -2.0241498023    1.2255152205
 O   -0.0033567861   -2.8331495911    0.6978940310
 C    1.7571516944   -2.6477301388    2.3133774088
 O    1.5391312290   -3.7850277108    2.6734961751
 H    0.9550836891    1.8923020603    0.0240693678
 H   -0.3346938284    1.6504744303   -1.1729267914
 H   -0.7492449768    1.8860106901    0.5365915531
 H   -0.9368259767   -0.5385536226   -0.0863137544
 H    2.8778838681   -1.0525121098    0.2803197138
 H    0.8895544351    0.0479558456    2.2442421817
 H    0.0949702922   -3.6795256856    1.1631481067
 H    2.5567502280   -2.0306523968    2.7709675987