17

 C    0.0498940294    1.5932677369   -0.0107108536
 C    0.0386319804    0.0677438019   -0.0351405252
 O   -1.2977228852   -0.4332180750   -0.0549106922
 C    0.7700743829   -0.6055781070   -1.1769619022
 C    2.2744308691   -0.4348181925   -1.2708080630
 C    1.6912152067   -1.6081643931   -0.5453041640
 O    1.6252819354   -1.4846101958    0.8676429642
 C    0.7271785017   -0.5278988604    1.2197653908
 O    0.4933296185   -0.2371848872    2.3578466696
 H    1.0642431227    1.9936671678   -0.0928713838
 H   -0.5491824625    1.9748331487   -0.8415682380
 H   -0.3764945824    1.9489909643    0.9323936214
 H   -1.7040786233   -0.1889430871    0.7859415249
 H    0.1960008184   -0.8357882145   -2.0650814336
 H    2.7262549263   -0.6123134822   -2.2403558857
 H    2.7656788015    0.3283392607   -0.6755050841
 H    1.8189178102   -2.6341194954   -0.8626609654