18

 C   -0.0238593605    1.5665904409   -0.0345999917
 C    0.0821127749    0.0547956757   -0.0681773781
 C    0.6746030974   -0.7642758120   -1.1609731013
 C    1.3509472931   -0.7354711979    0.2471595104
 C    2.5487818376   -0.1097866522   -0.3976132801
 O    3.6775490238    0.0786141134   -0.0354169462
 C    1.8917115311   -0.0753884857   -1.8073387249
 C    2.6771385602   -0.9199062992   -2.8098595466
 H    0.8540212596    2.0612578372   -0.4556142895
 H   -0.9017318169    1.9033942227   -0.5967860790
 H   -0.1335827183    1.9163293754    0.9969104968
 H   -0.7765606367   -0.4339942060    0.3900372529
 H    0.1624982925   -1.6122910463   -1.5991902383
 H    1.3701795114   -1.4725551942    1.0411832554
 H    1.6994078238    0.9188769986   -2.2231778358
 H    2.8585645790   -1.9282018560   -2.4226705160
 H    2.1340804481   -1.0118049463   -3.7558322434
 H    3.6480047902   -0.4596352582   -3.0123352945