25

 C   -0.0301640286    1.6447500333    0.0673509735
 C    0.0519721377    0.1233971427    0.0359047462
 C    1.0547099636   -0.6075807115   -0.9328309347
 C    2.1110734249    0.2242876509   -1.6526941959
 C    1.5023524328   -1.5426067385    0.2506815488
 C    1.2704219456   -3.0242884130    0.0421747672
 C    2.7954925454   -1.1119568104    0.9907813946
 C    1.9725948553   -0.1086149287    1.8506529095
 C    0.6501729762   -0.6539072663    1.2358795766
 H    0.9419416264    2.1174738591    0.2354015289
 H   -0.4250346455    2.0370692328   -0.8765534923
 H   -0.6998990155    1.9783384978    0.8682458543
 H   -0.9556521641   -0.2637847283   -0.1538349946
 H    0.5148075045   -1.1879439003   -1.6892203534
 H    2.6733742353    0.8754888119   -0.9769194332
 H    2.8339905478   -0.4206172177   -2.1651092713
 H    1.6480730408    0.8649094545   -2.4112686941
 H    1.9593277452   -3.4297324446   -0.7104022226
 H    1.4256071013   -3.5889970748    0.9687676744
 H    0.2503206996   -3.2258948432   -0.3052672215
 H    3.2040273902   -1.9316433572    1.5898913594
 H    3.6099367599   -0.7039739013    0.3862179184
 H    2.0617692608   -0.2583138336    2.9291877797
 H    2.1741167352    0.9462191286    1.6473541992
 H   -0.0586653047   -1.0807271223    1.9496780529