15

 C   -0.0863827646    1.5391074027    0.0404573483
 C    0.0739972831    0.0382884561    0.0523780131
 C    1.3485726249   -0.6842905460   -0.2459918059
 O    2.5567041365    0.0410993545   -0.1116354437
 C    2.6286265664    0.3997117051    1.1971563653
 N    1.7190192802    0.0101753199    1.9964304805
 C    0.7749025813   -0.7269613729    1.1870440174
 C    0.1354525903   -1.8687718879    1.7775489505
 N   -0.3992544816   -2.7953454928    2.2164068003
 H    0.7735628697    2.0541147530    0.4717505907
 H   -0.2103452831    1.8936709788   -0.9874554902
 H   -0.9717917710    1.8305734247    0.6122828133
 H   -0.7878536666   -0.5129012482   -0.3144721586
 H    1.4231596969   -1.5147303822   -0.9355660217
 H    3.4875746175    1.0049605452    1.4580039006