20

 C   -0.2643114999    1.3662652514    0.0738330286
 C    0.0712028121   -0.1243381497   -0.1336111691
 C    0.9036062923   -0.3068730633   -1.3295895692
 N    1.5694918448   -0.4434440889   -2.2646440596
 C    0.7704150746   -0.7181227583    1.0874092981
 C    0.0602714170   -1.1864085898    2.3290195229
 C   -1.2548343327   -1.9079741097    2.0034231492
 C   -0.4676651041   -2.9108934056    1.0989323278
 C    0.8357777800   -2.1759303705    1.4395884778
 H    0.6459394743    1.9486178578    0.2427049772
 H   -0.7784924186    1.7815050179   -0.7964480704
 H   -0.9098166819    1.4747125405    0.9494533604
 H   -0.8634752046   -0.6646025417   -0.3182555205
 H    1.7001966579   -0.2002496920    1.3147153566
 H    0.3254055436   -0.7927439943    3.3032669946
 H   -1.6848760911   -2.3997392944    2.8780264388
 H   -2.0424247387   -1.3101920110    1.5318385212
 H   -0.4903567529   -3.9250303393    1.5018349480
 H   -0.7393007062   -2.9602972018    0.0395739783
 H    1.7876741641   -2.6583049072    1.6261029293