18

 C   -0.0745632040    1.4969321736    0.0159370431
 N    1.4652965646    1.2936569604    0.0341469207
 C    1.2150704004    0.0855602394    0.9550355588
 C    2.2309192344   -1.0033179086    0.6242324856
 C    1.8418445606   -1.1657205085   -0.8630153182
 C    0.5261422946   -2.0247486248   -0.9644128302
 O   -0.5599449185   -1.2364218020   -0.3748623115
 C    0.0903356059   -0.0262634423   -0.1070703184
 C    1.2251732923    0.2217461296   -1.0755508195
 H   -0.4606401766    1.9117895602    0.9502163504
 H   -0.4295283525    2.0545746689   -0.8537614694
 H    1.0030331163    0.3423411096    1.9932683192
 H    3.2624224718   -0.6621288709    0.7560171820
 H    2.0830607806   -1.9115148658    1.2159132207
 H    2.6249790075   -1.5181014520   -1.5349377799
 H    0.2672143695   -2.2425057181   -2.0079109911
 H    0.6105563155   -2.9687304953   -0.4169702723
 H    1.0466300273    0.6134865664   -2.0759350199