16

 C    0.0001715276    1.5030230599   -0.0096390977
 C   -0.0015114113   -0.0035025609    0.0262270204
 N    0.0521560251   -0.6214886391   -1.1584584652
 C    0.0531847882   -1.9639159810   -1.1817125264
 C    0.0005024719   -2.7459812149   -0.0193828993
 C   -0.0550012549   -2.0979893477    1.2057623674
 C   -0.0562258837   -0.7080681971    1.2333431138
 C    0.1112572452   -2.5987748228   -2.4636609150
 C    0.1593136468   -3.1648648730   -3.5245016328
 H    0.9032020987    1.8696679422   -0.5076393787
 H   -0.8535573617    1.8697114365   -0.5880620784
 H   -0.0457403999    1.9326346213    0.9939327180
 H    0.0038821485   -3.8263508744   -0.0944737324
 H   -0.0967982141   -2.6684681524    2.1278405513
 H   -0.0988568649   -0.1708402704    2.1742817115
 H    0.2020963985   -3.6485299663   -4.4689255466