14

 N    0.1231433377    1.4163039918   -0.0539875761
 C    0.0258884176    0.0133796618   -0.0241557813
 C   -1.0662160664   -0.8241486386   -0.0819494643
 O   -2.4007932086   -0.4593296963   -0.0346001711
 C   -0.5857861700   -2.1679880007   -0.0855141961
 O   -1.3740117349   -3.2803075842   -0.1065782056
 C    0.7829285997   -2.1244781499   -0.0394501872
 N    1.1406866725   -0.7789163084    0.0090073812
 H    0.4673104308    1.7912228210    0.8264293717
 H   -0.7993852822    1.8095820133   -0.2048104136
 H   -2.7481823591   -0.4439517515   -0.9337248791
 H   -2.2729199639   -2.9819922034    0.0767105925
 H    1.5177947662   -2.9090660886   -0.0030768912
 H    2.0694056007   -0.4274397663   -0.1416561698