18

 C   -0.0249658947    1.4438407286   -0.0870759646
 C    1.3422863153    0.7896274765   -0.0093630588
 N    2.1867502860    0.4364363825   -1.1258902584
 C    2.2920543376   -1.0376525886   -1.1778690509
 C    0.9191183681   -1.7344354511   -0.8989643995
 O    0.7580403677   -2.1324071137    0.4746014868
 C   -0.0266652593   -1.1045262327    1.1180952867
 C    0.0683719615   -0.0314495657    0.0694807801
 O   -0.0909736513   -0.7752659318   -1.1307420988
 H   -0.3163580594    2.0510107184    0.7630590141
 H   -0.4061043910    1.7932168689   -1.0415609430
 H    1.8803266110    0.9524413978    0.9226537748
 H    1.7741684136    0.7659008126   -1.9902900325
 H    2.6632368155   -1.3261184301   -2.1660287495
 H    3.0187039513   -1.3789450169   -0.4327999707
 H    0.7491860838   -2.6087850801   -1.5323218700
 H   -1.0462883225   -1.4695560443    1.2903917344
 H    0.4365520068   -0.8315662205    2.0703168495