14

 O   -0.0084001539    1.4016315025   -0.0004307533
 C    0.0047173372    0.0084081734    0.0087351794
 C   -0.5102105604   -0.7316421818    1.2408106234
 C   -1.3499430071   -0.6561640823    0.0028317127
 C    1.0959915202   -0.6743358393   -0.7575636820
 O    1.1429605534   -1.8799083414   -0.9013820443
 C    2.1297094907    0.1966139681   -1.2972171401
 C    3.0120736304    0.8892608615   -1.7347212201
 H    0.7898794060    1.7188822680    0.4369410746
 H   -0.0334353886   -1.6752449945    1.4790843100
 H   -0.7809856516   -0.0997723168    2.0787419967
 H   -2.1928525918    0.0245654900   -0.0022206833
 H   -1.4453460540   -1.5489568200   -0.6033814197
 H    3.7924155194    1.4913287325   -2.1333804240