21

 C   -0.1768590226    1.5489510384   -0.0505775227
 C    0.0042600434    0.0476736132    0.0104533360
 C    1.3442379602   -0.5898197959   -0.2690879744
 C    0.7631477212   -0.6427224492    1.1255880506
 C    1.3975205091    0.1130175178    2.2483381220
 C    0.7599138665    0.1635725591    3.6077509110
 C    2.0475941541   -0.6276893591    3.4192996466
 C    2.0318818048   -2.0586084319    3.4942321438
 C    2.0287212691   -3.2602674131    3.5623480397
 H    0.7218734839    2.0832801445    0.2713519928
 H   -0.3970758870    1.8716968667   -1.0742032210
 H   -1.0041633789    1.8789689474    0.5876924489
 H   -0.8575017557   -0.5072438478   -0.3529496972
 H    1.3890497234   -1.5033884069   -0.8516798928
 H    2.1858573730    0.0780342044   -0.4301372663
 H    0.3656194707   -1.6061271363    1.4309210166
 H    1.9398797107    1.0057552210    1.9519643972
 H    0.8143873977    1.0798917390    4.1850499468
 H   -0.1448702637   -0.4146569192    3.7586718154
 H    2.9471921313   -0.1680459835    3.8184223360
 H    2.0268822588   -4.3199068886    3.6249827309