15

 O    0.8687028179    0.9462701844    1.4134065232
 C    0.4146127916    1.3984715781    0.3795057484
 N    1.0981499635    1.4832006633   -0.7874489958
 C    2.5016733131    1.0807748005   -0.8774859851
 C    3.4562526589    2.0684741725   -0.2784481748
 C    3.6997719385    2.3641610367    1.0440226581
 N    4.6413610571    3.3312819372    0.9869069007
 N    4.9767442564    3.6286294556   -0.2835879012
 N    4.2551650106    2.8627814128   -1.0498762543
 H   -0.6225457727    1.7759181977    0.2896297227
 H    0.6848947499    1.9857054878   -1.5565907848
 H    2.5936744451    0.1141367000   -0.3754999951
 H    2.7514943173    0.9494663643   -1.9320025592
 H    3.2740469853    1.9853650989    1.9568597265
 H    5.0940656174    3.8209393102    1.7423955708