15

 C   -0.0206718018    1.4872995671    0.1071861712
 C    1.3646300210    2.1677093870   -0.0517285332
 C    2.1627348652    1.4087248449   -1.0551033420
 C    1.9691656851    0.0825734557   -1.3232428956
 C    0.9245296463   -0.6927568750   -0.6836768469
 C    0.0055161270   -0.0286450657    0.0312758097
 N    2.9377046696   -0.2792051846   -2.2265955566
 N    3.6744354118    0.6892152300   -2.5193776513
 O    3.1898483117    1.8574579126   -1.7441684893
 H   -0.4722224404    1.8135387018    1.0485786774
 H   -0.6885926175    1.8538150457   -0.6873812991
 H    1.2535119504    3.2183978160   -0.3316993124
 H    1.9112670261    2.1514934931    0.9023062181
 H    0.9158494916   -1.7711644295   -0.7887790227
 H   -0.7980002761   -0.5646821391    0.5253776926