14

 O    0.0141084743    1.3931941195    0.1489338403
 C    0.0398870411   -0.0162364069   -0.0184802173
 C   -1.4201300364   -0.4611414686   -0.0251731596
 O   -1.5738887966   -1.8378203471   -0.3847095374
 C   -0.9117763566   -2.3115278078   -1.4759309047
 O   -1.2030772513   -3.3874218002   -1.9274211048
 C    0.1928055633   -1.4751154008   -2.0051215279
 C    0.6721824211   -0.4358394065   -1.3212629876
 H    0.9002150873    1.6922196334    0.3745287128
 H    0.5698354078   -0.4998319142    0.8187407352
 H   -1.8697675920   -0.3557932322    0.9630690180
 H   -1.9687681992    0.1755273481   -0.7303210974
 H    0.6199182125   -1.8208695651   -2.9388220831
 H    1.5294240049    0.1319177584   -1.6755880866