25

 C    0.0769776306    1.5829414139    0.1753323733
 C    0.0285847807    0.0627334948    0.0117010326
 C   -1.3947781233   -0.5001824803   -0.0486760143
 C   -1.3956004155   -2.0290142873   -0.2228865617
 C   -2.6734699285   -2.6603395957   -0.8177046124
 C   -4.0109568106   -1.9721279773   -0.4774294291
 C   -4.1442106257   -1.4348617828    0.9557261551
 C   -3.4366002302   -0.0928264208    1.1797967737
 O   -2.0253834090   -0.1367886456    1.1790935946
 H    1.1094518542    1.9399089607    0.2401078657
 H   -0.3962263975    2.0872184895   -0.6752822875
 H   -0.4512030799    1.8874044550    1.0817770355
 H    0.5536786013   -0.2347979284   -0.9037892889
 H    0.5523781368   -0.4209422133    0.8461683873
 H   -1.9283548872   -0.0170454309   -0.8861146596
 H   -0.5436404579   -2.3220680599   -0.8475548034
 H   -1.1998433792   -2.4417038761    0.7734150666
 H   -2.5850792948   -2.6978510969   -1.9102240477
 H   -2.7150842205   -3.7063527586   -0.4907959532
 H   -4.1797579611   -1.1356099744   -1.1686482625
 H   -4.8196369018   -2.6843496108   -0.6780701642
 H   -5.2070311942   -1.2740347173    1.1787875561
 H   -3.7796225763   -2.1672688680    1.6867959467
 H   -3.7939540465    0.6269551380    0.4218549909
 H   -3.7070559639    0.3067532326    2.1631837261