18

 O    0.1027291367    1.2300805344   -0.6340005523
 C   -0.1055466531    0.1427801676    0.2580049957
 C   -1.4767416157   -0.4451585316    0.1103157308
 C   -2.7961428282   -0.0084846382    0.6513319848
 C   -3.4522607778   -1.0051748259   -0.3868773739
 C   -3.1113101785   -2.0970450162    0.6348359368
 N   -2.0933960346   -1.1772376711    1.2599317489
 C   -2.1314432195   -0.9122633209   -1.1982278377
 O   -2.0945431072    0.0824508735   -2.2072737697
 H   -0.0886184349    0.9067776040   -1.5226622328
 H    0.6502930935   -0.6456664026    0.1114294019
 H    0.0235850710    0.5301131830    1.2728867604
 H   -3.1228210559    0.8571217503    1.2122351855
 H   -4.4127213181   -0.9226916880   -0.8921645892
 H   -3.8985667912   -2.2825544914    1.3691515568
 H   -2.7160984038   -3.0509203124    0.2648898413
 H   -1.7757695819   -1.8303686824   -1.6776439094
 H   -2.3280606908    0.9242843278   -1.7937659678