18

 C    0.0436429132    1.5084406477   -0.0350569460
 C    0.0712834769   -0.0114331169    0.1645114875
 C    0.6510481389   -0.3836116862    1.5354801017
 C   -1.3286955543   -0.6113462346   -0.0331820098
 C   -1.3186740343   -2.1358490780   -0.1456741515
 N   -2.4859393770   -2.7459130090    0.2187763256
 O   -0.3572793626   -2.7668206164   -0.5423628339
 H    1.0457177818    1.9356860610    0.0742543457
 H   -0.3282032850    1.7769319071   -1.0299181530
 H   -0.6041335871    1.9947192422    0.7048553159
 H    0.7125932150   -0.4587700310   -0.6031306210
 H    0.0334408441    0.0201384601    2.3478321797
 H    0.7114288973   -1.4685233265    1.6553466745
 H    1.6603723740    0.0232695055    1.6556397665
 H   -2.0023221523   -0.2946119631    0.7741698938
 H   -1.7665966379   -0.2295524486   -0.9659913916
 H   -3.3052615804   -2.2247061413    0.4760313338
 H   -2.5705083902   -3.7380625320    0.0689017720