18

 C   -0.2121857825    1.5773202947   -0.0796595099
 C    0.0214831297    0.0676987243    0.0280904595
 C    0.9560012530   -0.4834988392   -1.1138667707
 N    1.7624213714   -1.5972156200   -0.5216416361
 C    1.7054883800   -1.3085736795    0.8378221620
 C    0.7681754726   -0.4215291066    1.2422228776
 C    0.8186271672   -0.4548123606    2.6752172648
 C    1.8012314233   -1.3435619029    2.9941957562
 O    2.3606976964   -1.8962809729    1.8478379921
 H    0.7329657786    2.1247620665   -0.0018724779
 H   -0.6826422183    1.8383166459   -1.0343101943
 H   -0.8709983046    1.9280176168    0.7210304059
 H   -0.9551110726   -0.4338360179   -0.0431084148
 H    0.3917196302   -0.8459509245   -1.9763320012
 H    1.6177742885    0.3263196689   -1.4511869556
 H    2.6963304075   -1.6669964233   -0.9102942635
 H    0.2322776064    0.1074528593    3.3861009139
 H    2.2388975533   -1.6761599992    3.9193079921