13

 N    0.1656492780    1.4091035756    0.0165795335
 C    0.0473590404    0.0055853821    0.0687218858
 C   -0.4836502147   -0.6821481626    1.2610302704
 C   -1.3679382543   -0.7489330715   -0.0010571450
 C   -2.5180887192    0.1054929745   -0.0420554297
 N   -3.3965398750    0.8585133532   -0.0622378550
 C   -1.4332008317   -1.9844499266   -0.7254721544
 N   -1.4313137115   -2.9818774034   -1.3121480736
 H    0.1307610147    1.7641234983   -0.9325194808
 H   -0.5360984643    1.8907501730    0.5671805585
 H    0.8003708967   -0.5212680885   -0.5080547335
 H   -0.0363464657   -1.6186364574    1.5720328426
 H   -0.8786277735   -0.0769349367    2.0701645810