21

 C   -0.1698020179    1.5680284564   -0.0564506525
 C   -0.0234592473    0.0762413546    0.0113230979
 C   -0.9102018675   -0.9268574448   -0.7273374501
 O   -0.8615478255   -1.8619229894    0.3831672939
 C   -0.1111975687   -0.9163990310    1.1539616301
 C    1.2227436776   -0.6411596078    0.5172460096
 C    2.0197610806   -1.6853696682   -0.2349453085
 C    2.9452792152   -2.4795507979    0.6927077845
 O    3.7321043553   -3.4346952787   -0.0010802968
 H    0.3612063687    2.0545253084    0.7679523933
 H    0.2418659569    1.9684422071   -0.9909434827
 H   -1.2221327613    1.8692978578   -0.0000487954
 H   -1.9342955464   -0.5614230879   -0.8711678027
 H   -0.5405727048   -1.3626329222   -1.6632169589
 H   -0.3562990567   -0.8187411352    2.2063096816
 H    1.8271597747    0.0341688226    1.1236915054
 H    1.3322627919   -2.3854953782   -0.7229433386
 H    2.6249584709   -1.2195943407   -1.0217962746
 H    3.6614125334   -1.8060633658    1.1774050678
 H    2.3515107856   -2.9498418032    1.4921401163
 H    3.1323993056   -4.0838073460   -0.3824915294