17

 C   -0.0567673530    1.5168952684   -0.0227199080
 C    0.0603527395    0.0188272833   -0.0036465470
 C    0.7203853440   -0.8157658323   -1.0284511437
 C    1.5343350278   -1.8314322770   -0.3476455708
 C    1.3410397363   -1.7815637902    0.9813866739
 C    0.2238767856   -0.8026654424    1.3051948015
 N   -0.9413314775   -1.7315890018    1.3179780125
 C   -1.3802455098   -1.7288760683    0.1139933443
 N   -0.8763824072   -0.7872839872   -0.8021624219
 H    0.8682927155    1.9844632508    0.3307989294
 H   -0.2592655255    1.8714545742   -1.0370175221
 H   -0.8756987739    1.8504450620    0.6236061931
 H    0.9450491998   -0.4606595989   -2.0263095550
 H    2.1529193415   -2.5480347455   -0.8737918669
 H    1.7462826761   -2.4671548709    1.7148285066
 H    0.3117554263   -0.2370915773    2.2335329821
 H   -2.1415898355   -2.4221950072   -0.2321492778