17

 C    0.1014815232    1.4692052596    0.1277803381
 C    0.2088319369   -0.0488676980   -0.0353482719
 C    0.3293248285   -0.4630897760   -1.5070723577
 N    0.4209525801   -1.9035513825   -1.6885203714
 C    1.5782655891   -2.5335784403   -2.0316497867
 O    2.6354030769   -1.9857318958   -2.2621152716
 C    1.4076400756   -4.0611491974   -2.1122890748
 O    2.3036569364   -4.7985290985   -2.4052107654
 H    0.9837806750    1.9736102681   -0.2801355529
 H   -0.7776936332    1.8650659479   -0.3926255249
 H    0.0165850339    1.7465473097    1.1821909342
 H    1.0820242056   -0.4278970703    0.5076554240
 H   -0.6706899080   -0.5341805471    0.4081105052
 H   -0.5286490469   -0.0847983165   -2.0768789509
 H    1.2366348727   -0.0437370624   -1.9489195859
 H   -0.3912611974   -2.4644660253   -1.4827866106
 H    0.3848730015   -4.4445639051   -1.8768416069