14

 C    0.1329712022    1.4124857769   -0.0908847256
 N    0.1500633312   -0.0300322631   -0.0212602087
 N    0.1965325429   -0.8153243973   -1.1287851317
 N    0.2006596138   -2.0327407599   -0.7569026396
 N    0.1570252625   -2.0653867105    0.6004794101
 C    0.1490981467   -3.3006566216    1.3488401242
 C    0.1225534398   -0.7889952028    1.1368946852
 O    0.0800600503   -0.4346233702    2.2974586718
 H    1.0362930140    1.7856095440   -0.5799337161
 H   -0.7462868563    1.7616551789   -0.6380224330
 H    0.0945812688    1.7737176565    0.9382387822
 H    1.0556235811   -3.8777507531    1.1499576983
 H    0.1111109181   -3.0253911042    2.4042268932
 H   -0.7269637351   -3.9014142737    1.0919720998