19

 C   -0.0726738757    1.5383082554   -0.0156185304
 C   -0.0091241476    0.0069304536    0.0788732945
 C   -1.3579899992   -0.6329160779   -0.0589076727
 O   -2.3383997540   -0.2076766010    0.9582447820
 C   -2.9585487905   -1.4853223142    0.7688930552
 C   -2.9963116428   -1.7735707128   -0.7336348530
 C   -1.7840337858   -2.1340325907    0.1311925630
 C   -2.2405337030   -0.5932478318   -1.3474358168
 O   -2.9082354992    0.5999993497   -1.6371581127
 H    0.9285178541    1.9712383281    0.0628174675
 H   -0.5161963387    1.8568214577   -0.9626985865
 H   -0.6841300843    1.9461192526    0.7942057018
 H    0.6397162039   -0.3984152815   -0.7077661569
 H    0.4300868841   -0.2933661146    1.0375704331
 H   -3.6849763363   -1.8298202676    1.4922546262
 H   -3.7173288960   -2.4374047440   -1.1924192517
 H   -1.2470081281   -3.0569738719    0.2932204709
 H   -1.6737559024   -0.8930486031   -2.2325296797
 H   -3.2412490483    0.9155803142   -0.7855529738