19

 C    0.1558709273    1.3424747008    0.0906350032
 O   -0.2988433243    0.0487188494   -0.2507127734
 C    0.4718176748   -0.5816358599   -1.2409464220
 C    1.8839809341   -1.0858236268   -0.8784196576
 O    1.7487706617   -2.0709103466    0.1484225077
 C    1.4936465352   -2.4715017244   -1.2011095030
 C    0.0468447029   -2.0672285572   -1.5328520998
 C   -1.0695553902   -2.6432540996   -0.6647709066
 O   -2.2848107788   -1.9385378916   -0.8550446660
 H    1.1699885609    1.3145354505    0.5125698837
 H    0.1567963183    2.0121326714   -0.7828698527
 H   -0.5287532026    1.7391207214    0.8430417419
 H    0.4991459237    0.0236240905   -2.1597320202
 H    2.8426611868   -0.5878175643   -0.9678122015
 H    2.0908956926   -3.2820590451   -1.6014684887
 H   -0.1922800802   -2.1924596365   -2.5922178987
 H   -1.2615790649   -3.6840850780   -0.9487582051
 H   -0.7537035583   -2.6330251918    0.3856099384
 H   -2.1124639791   -1.0422110220   -0.5409258395