23

 C    0.0535705448    1.5356265340   -0.0669849604
 C    0.0569770272    0.0065144199    0.0853916652
 C    0.7477859686   -0.4235480064    1.3859854431
 C   -1.3648881347   -0.5732403854   -0.0032232202
 O   -2.1909217770   -0.0848638166    1.0479970355
 C   -2.1066766300   -0.5138910437   -1.3920585531
 C   -2.3015250820   -2.0339149379   -1.3288693988
 C   -0.9680931007   -2.7189027369   -1.2610739303
 C   -1.5318482830   -2.0998520648   -0.0111932776
 H    1.0760344784    1.9237830840   -0.1070688780
 H   -0.4580633544    1.8542259797   -0.9818358360
 H   -0.4357596341    2.0224223377    0.7853750264
 H    0.6236685245   -0.4052063182   -0.7594295255
 H    1.7577856496   -0.0063880421    1.4519658482
 H    0.1761086766   -0.0812761729    2.2537656107
 H    0.8297587772   -1.5132145172    1.4481363469
 H   -2.2964635160    0.8644625482    0.9247859146
 H   -3.0391658484    0.0469448756   -1.2990841810
 H   -1.5408167433   -0.1388848750   -2.2523547156
 H   -3.2034429025   -2.5614878944   -1.6128429469
 H   -0.9972646956   -3.8038054182   -1.2804744129
 H   -0.1014613608   -2.2954993919   -1.7632386739
 H   -1.7449516544   -2.6764297176    0.8802724496