19

 O    0.5260986403    0.9705623034   -0.7353209634
 C    0.2205317685   -0.1456843510    0.0656157547
 C    0.0270330150    0.0400632264    1.5976472387
 C   -1.1962334233   -0.9118347796    1.4971355514
 O   -2.3297320045   -0.7035376677    2.2983439274
 C   -1.2455952618   -0.6168664193   -0.0253678320
 C   -2.3166218545    0.3320766782   -0.6000973869
 C   -2.5955484787   -0.8253443030   -1.5785352214
 O   -1.5954230689   -1.6548059884   -0.9466094924
 H    1.4635523690    1.1662250217   -0.6441589993
 H    0.8827333512   -0.9950765944   -0.1520790193
 H    0.8418403009   -0.2342959959    2.2695518452
 H   -0.2891124715    1.0677609060    1.8084837027
 H   -0.9057847373   -1.9556892200    1.6499345421
 H   -2.5437474610    0.2349908631    2.2757706984
 H   -3.1371688952    0.5541464230    0.0851604981
 H   -1.9290715597    1.2502387275   -1.0395136396
 H   -3.5929804603   -1.2750014620   -1.5196815057
 H   -2.3514923183   -0.6238589979   -2.6279462687