19

 C   -0.0997376401    1.5501730760   -0.0881089985
 C   -0.0309185615    0.0234361603    0.0041429695
 C    0.8064842035   -0.4950651449    1.1969567320
 N    0.2639564838   -0.0686695206    2.4902236322
 C   -0.4232278215   -0.8207698844    3.4058140358
 O   -0.9609719689   -0.3564982547    4.3939634905
 N   -0.4385967903   -2.1828269759    3.1291768224
 C    0.3019617453   -2.7443967128    2.0963205868
 C    0.9198195971   -1.9956899559    1.1826628491
 H    0.9017413041    1.9904923770   -0.1593571336
 H   -0.6632241269    1.8646889657   -0.9712953854
 H   -0.5986259627    1.9855107847    0.7842271805
 H   -1.0389447183   -0.4006404154    0.0799768280
 H    0.4135215754   -0.3808297188   -0.9141048410
 H    1.8120941343   -0.0547072617    1.1024672790
 H    0.2448317127    0.9160038298    2.7014233486
 H   -0.8366491820   -2.7530807032    3.8556587614
 H    0.3387938435   -3.8274992250    2.0918708824
 H    1.4820735227   -2.4588846800    0.3827616001