20

 C   -0.0641741815    1.5405925787   -0.0341239294
 C    0.0571198137    0.0364681831   -0.0444871439
 N    1.4269561700   -0.5203703046   -0.1066247749
 C    0.6254139953   -0.7259770791    1.0892795293
 C    1.0437526437   -0.3031496822    2.4926904723
 O    0.5804907080   -1.5692721828    3.0270002787
 C    0.1642638087   -2.0415038933    1.7165982721
 C   -1.3214357007   -2.3649439549    1.7380053556
 O   -1.5954784412   -3.3402039835    2.7236951889
 H    0.7352079849    1.9879061099    0.5628608716
 H    0.0101026159    1.9434127270   -1.0495249145
 H   -1.0274147183    1.8519569516    0.3842650702
 H   -0.7058552774   -0.4802119522   -0.6269344492
 H    1.4539319766   -1.3657184591   -0.6727411908
 H    2.1227600961   -0.1692130088    2.6296280688
 H    0.5079378459    0.5473432241    2.9311971715
 H    0.7429801311   -2.9292319660    1.4237866593
 H   -1.8917054071   -1.4384006338    1.9122271541
 H   -1.6395456300   -2.7809731078    0.7750962159
 H   -1.1992212637   -3.0074397862    3.5388018743