17

 C    0.1711267908    1.4892405411   -0.0639927405
 C   -0.0555740111    0.0374150029    0.1905268953
 O    1.0121952733   -0.9050014121   -0.0811815902
 C    0.4123162227   -0.9392452747    1.2225382316
 C    1.3112276480   -0.7508795701    2.4035331431
 O    2.0984734984   -1.9033977897    2.6523685505
 C   -0.8175069224   -1.8484366008    1.0681344385
 C   -1.3291890155   -0.8009889598    0.0342677341
 O   -2.3717305585   -0.6208005621   -0.5198875467
 H    1.1352424178    1.8099488344    0.3386705271
 H    0.1644607002    1.6903276597   -1.1400112465
 H   -0.6233235933    2.0858484530    0.3939864558
 H    1.9336643046    0.1420707380    2.2458171892
 H    0.7120901252   -0.5908449729    3.3057127097
 H    2.6325420957   -2.0586672065    1.8652364106
 H   -0.6124325114   -2.8570790223    0.7060178364
 H   -1.4812291445   -1.8890091083    1.9372208620