15

 C   -0.0001508072    1.5661947784   -0.0047087281
 C    0.0030257665    0.0683473309    0.0539479509
 C   -1.2272876998   -0.8426027833    0.0679778260
 O   -0.5624745721   -1.7850248114    0.9599860702
 C    0.5702443750   -0.9396002563    1.0186043118
 C    1.2151670322   -0.7821427638   -0.3485831100
 C    1.1523614033   -1.8080639033   -1.3516297893
 N    1.0863624026   -2.6249987022   -2.1680802629
 H    0.9798233578    1.9748758018    0.2595566712
 H   -0.2469693728    1.9214991224   -1.0114400455
 H   -0.7364033066    1.9832809085    0.6904884313
 H   -2.0862592027   -0.3871840059    0.5715544319
 H   -1.5358066381   -1.3058854302   -0.8741610972
 H    1.1224436945   -0.8696019678    1.9492241083
 H    2.1459367974   -0.2217963678   -0.3330275487