20

 C    0.0579079096    1.5331669631   -0.2724751589
 C    0.0196458250    0.0509590928    0.1176913814
 O    0.4827596737   -0.1013587084    1.4351177015
 C   -1.3729077922   -0.5891168581    0.0104617404
 O   -1.8692678982   -1.1282948885    0.9831741114
 N   -1.9466944902   -0.6524320484   -1.2461987927
 C   -2.5464187431    0.4407455252   -2.0027112034
 C   -3.3772355134   -0.6882103683   -1.4668042377
 C   -3.9242893107   -1.7763977764   -2.3568798138
 H    1.0581113604    1.9191758474   -0.0599839141
 H   -0.1484400579    1.6812572167   -1.3355474306
 H   -0.6578304870    2.1109990573    0.3205718510
 H    0.6661412239   -0.5084935191   -0.5792467992
 H   -0.2035944447   -0.6200230242    1.8856180029
 H   -2.6293056579    1.4086304062   -1.5170929171
 H   -2.2929969470    0.4749191006   -3.0594501551
 H   -3.9776134723   -0.4536044670   -0.5893934066
 H   -3.2507575417   -1.9648894208   -3.1974439108
 H   -4.0406561416   -2.7088271751   -1.7961737884
 H   -4.9048233347   -1.4923006350   -2.7522836503