18

 C   -0.0533686810    1.5254546262    0.0998963145
 C   -0.0274280153   -0.0008490216    0.0071600693
 C    0.7326313175   -0.4862079627   -1.2428976218
 O    2.0605665131   -0.0211341171   -1.2532483755
 C    0.7405474221   -2.0075714968   -1.3163325790
 O    1.7523765525   -2.6632690950   -1.2148384200
 O   -0.4800818518   -2.5238063010   -1.4898730023
 C   -0.5472076136   -3.9578139059   -1.5442033475
 H    0.9637158909    1.9249207101    0.1013871557
 H   -0.5870575700    1.9633179994   -0.7511470223
 H   -0.5557226880    1.8530942985    1.0148449614
 H    0.4664090139   -0.4219883607    0.8918408262
 H   -1.0448273040   -0.4054394636   -0.0218718062
 H    0.2101582386   -0.1114070058   -2.1363526395
 H    2.6151210539   -0.8088021003   -1.1487771050
 H    0.0548323944   -4.3369645432   -2.3732487855
 H   -0.1807575682   -4.3936410838   -0.6117739502
 H   -1.5994158449   -4.1985269568   -1.6925036222