19

 O   -0.2235206079    1.5697339417   -0.0128309478
 C   -0.0004694698    0.1769813575    0.1847092993
 C   -1.3318474620   -0.5177933072   -0.0290189406
 C   -1.9472111610   -0.6440157201   -1.4643069516
 C   -2.1597818245   -2.1431241970   -1.2117321308
 C   -0.8350850044   -2.8432230689   -0.9970489605
 C    0.3665444583   -2.5326911353   -1.7210811895
 C    1.3678394458   -2.3258050089   -2.3566395398
 C   -1.4524338171   -2.0383299615    0.1374038164
 H    0.6295177110    2.0128479371   -0.0071758723
 H    0.7521314703   -0.2100962166   -0.5124272345
 H    0.3551148213   -0.0284507267    1.2088565118
 H   -2.0653404885   -0.0330117818    0.6234250939
 H   -2.8740471383   -0.0806684657   -1.5788637139
 H   -1.2804727266   -0.4036305839   -2.2969202031
 H   -3.0424421975   -2.7127158458   -1.4764526081
 H   -0.9603971689   -3.9106273996   -0.8251404413
 H    2.2533009108   -2.1336205856   -2.9100221456
 H   -1.6844355809   -2.5426005216    1.0690028080