18

 O   -0.0133914268    1.4115366678    0.0264326568
 C    0.0723793015   -0.0077415402    0.0127933237
 C   -1.3094710149   -0.6033401412    0.0290345062
 C   -2.2858745199   -0.4101685410    1.2001659601
 N   -3.0358718703   -1.6404115515    0.7764343972
 C   -3.0209240063   -1.5990812100   -0.7290461552
 C   -1.8373859136   -2.0943682276    0.0244852350
 C   -2.2308158524   -0.3898180795   -1.2098632909
 O   -2.8078998821    0.8767591723   -1.4416041687
 H   -0.6673585361    1.6669595830   -0.6363805203
 H    0.6348829607   -0.3719585601   -0.8633951748
 H    0.6415948955   -0.2917428828    0.9052908967
 H   -1.8253426944   -0.6047721796    2.1718757998
 H   -2.8754371399    0.5136164465    1.2613603934
 H   -3.7950200157   -2.1609688118   -1.2348848398
 H   -1.3832971377   -3.0720918551    0.1056518829
 H   -1.6872110771   -0.6411872425   -2.1258370325
 H   -3.4431698005    1.0606014433   -0.7418129295