23

 C   -0.0613262846    1.5059865732   -0.1072275570
 C    0.2616659743    0.0133402151   -0.1658226374
 O   -0.4581243186   -0.7108747544    0.8319801059
 C    0.0275966795   -0.5782073458   -1.5649801889
 C    0.4046286320   -2.0394354141   -1.6443831537
 O    0.3998831727   -2.6579044631   -2.9382713460
 C    1.6493664802   -2.5829564660   -2.2266210474
 C    2.7048056713   -1.7024562333   -2.8608149156
 C    2.1603314823   -3.9182937531   -1.7253111171
 H    0.5744242230    2.0779902800   -0.7906804928
 H   -1.1050308354    1.6892439815   -0.3928788019
 H    0.0873628267    1.8849527649    0.9074067690
 H    1.3141262448   -0.1342412121    0.1073589812
 H   -1.3982315083   -0.5671717068    0.6736258070
 H   -1.0389934380   -0.4785912498   -1.8165523431
 H    0.5730225188    0.0068906286   -2.3109014118
 H   -0.0660160124   -2.6430348079   -0.8671464607
 H    2.2801734857   -0.7859195522   -3.2726192906
 H    3.4782605995   -1.4357501079   -2.1320442316
 H    3.1942199828   -2.2398885634   -3.6806494359
 H    2.6150008384   -4.4866223797   -2.5444079112
 H    2.9227388566   -3.7791696699   -0.9510078063
 H    1.3452247885   -4.5138191938   -1.3075197641