21

 C   -0.4685554283    1.4219098930   -0.1536942270
 C    0.3384298874    0.1417721460    0.0948574398
 C    0.9132236913   -0.4387547307   -1.1704495386
 O   -0.0528818556   -0.9009022770   -2.1076387439
 C    0.2687174568   -2.2585808540   -2.3404155877
 O    1.6767118577   -2.3711175251   -2.2420975531
 C    2.0529137265   -1.4061163947   -1.2829177086
 C    2.2253698049    0.0163995558   -1.7930694570
 C    2.3780131673    0.3349473111   -3.2608376375
 H    0.1606023805    2.2052768654   -0.5888673948
 H   -1.2907573992    1.2279671991   -0.8481249212
 H   -0.8918033957    1.8065274060    0.7789200118
 H    1.1624119066    0.3444007891    0.7895499284
 H   -0.2984381125   -0.6131092945    0.5734402446
 H   -0.2204063981   -2.9048783255   -1.5902637001
 H   -0.0458554210   -2.5370880059   -3.3501632523
 H    2.6182251965   -1.7934168718   -0.4407634648
 H    2.8219822581    0.6369503223   -1.1258376341
 H    3.4181285323    0.2084687707   -3.5785104078
 H    1.7556541942   -0.3180408557   -3.8738607761
 H    2.0854456506    1.3699227064   -3.4651908801