16

 C   -0.1748595239    1.4112436222   -0.0140358737
 C   -0.0470797320   -0.0365805853   -0.0036850682
 C    0.0583714583   -1.2404357479    0.0027439084
 C    0.1924321801   -2.6341425578    0.0136745791
 C    1.2535002854   -3.4793820857    0.1754337854
 C    0.7576817622   -4.8151091286    0.0948446171
 C   -0.5888729042   -4.6931765884   -0.1165484272
 N   -1.5987694666   -5.6088320740   -0.3518062523
 O   -0.9578749445   -3.3987485313   -0.1699300637
 H    0.4567217637    1.8667021620   -0.7858002032
 H   -1.2096799845    1.7073580373   -0.2192793070
 H    0.1085298860    1.8504161847    0.9497807778
 H    2.2744317406   -3.1720230224    0.3384434946
 H    1.3163063830   -5.7331427926    0.1786052306
 H   -1.4093975851   -6.5224669530    0.0348485700
 H   -2.5110457187   -5.2717914094   -0.0733334677