20

 C   -0.0161102636    1.4327282222    0.0207589934
 C    0.0353301385   -0.0737448556    0.0269542419
 C    0.7202132620   -0.7629748160   -1.0996254195
 C    0.8117430359   -2.2695368846   -0.9258351631
 C   -0.6713209483   -2.1932375798   -0.4744460530
 C   -0.8250263250   -2.0841527982    1.0364431627
 C   -0.0328350538   -0.7955124730    1.3705578391
 O    1.2945912202   -1.0237471381    1.8381352566
 N   -0.7941356514   -0.7586087585   -0.9991344301
 H    0.8439534507    1.8444700388    0.5594080768
 H   -0.0029930426    1.8209057055   -1.0010171608
 H   -0.9295889413    1.7938870763    0.5057332015
 H    1.2352319947   -0.1850940470   -1.8626192864
 H    0.9153997787   -2.7743546075   -1.8890080783
 H    1.5478138937   -2.6598607637   -0.2196738468
 H   -1.3667998033   -2.8763336570   -0.9618688049
 H   -1.8813110156   -1.9556314173    1.2975774061
 H   -0.4394556265   -2.9545153494    1.5772395104
 H   -0.5772897877   -0.1762818358    2.0973340150
 H    1.2380220445   -1.3601075713    2.7380697195