24

 C   -1.6082231315    1.1337333736   -0.4791608615
 N   -0.7852142872   -0.0586246412   -0.3565846943
 C    0.2833361797   -0.3280763774   -1.3275891601
 C    0.5864592496    0.5613686087   -2.4934404692
 C    1.5199753586    0.0569464509   -3.5696982625
 C    0.0488639424    0.1940271576   -3.8593050886
 C    0.6122914910    0.0098298708    0.0981993424
 C    1.2686229712    1.3322736710    0.4538559378
 C    0.9946438688   -1.1171425705    1.0413819082
 H   -1.0986412228    2.0399807432   -0.8362670771
 H   -2.4285043221    0.9220434854   -1.1729061651
 H   -2.0482258795    1.3612625068    0.4974882077
 H    0.3362216045   -1.3846252950   -1.6023554617
 H    0.6470521274    1.6236485269   -2.2884376230
 H    2.2068474888    0.7619858270   -4.0242857227
 H    1.9233317966   -0.9442468060   -3.4571787323
 H   -0.5383983106   -0.7148938899   -3.9389129488
 H   -0.2778388957    0.9936067201   -4.5148325834
 H    1.0084459916    2.1477568289   -0.2217233367
 H    0.9864639561    1.6370761667    1.4685223389
 H    2.3586295479    1.2253249537    0.4364722172
 H    2.0752287820   -1.3004726832    1.0201403376
 H    0.7174364206   -0.8705600720    2.0733334702
 H    0.4770749226   -2.0392408761    0.7665946372