17

 O   -0.0296891222    1.4663589073   -0.0058029310
 C    0.0214771853    0.0426637209    0.0297661735
 C    0.6589511883   -0.5398386897    1.3196314038
 C   -0.5535216792   -0.9045920009    2.1661533616
 C   -1.4812911374    0.3063722365    2.4568452304
 C   -2.2689962856   -0.1463826929    1.2374855466
 C   -1.3960378924   -0.5031118610    0.0902862749
 N   -1.5752955420   -1.4911551158    1.1817637614
 H    0.8653077549    1.7902293974   -0.1486979528
 H    0.5345698416   -0.3321482814   -0.8663224348
 H    1.2360183651   -1.4406068177    1.0833659468
 H    1.3255935766    0.1809812477    1.8037550501
 H   -0.3501143610   -1.5754189984    3.0005301525
 H   -2.0540148275    0.1645872635    3.3760133239
 H   -1.0449568897    1.3073713521    2.4401006870
 H   -3.3443367277   -0.0602850571    1.1120058540
 H   -1.8924660469   -0.7705668205   -0.8366182480