17

 O    0.3596821852    1.0726332037   -0.6087797593
 C    0.0470760778   -0.1320124900    0.0393110838
 C    0.1234780207   -0.1891565225    1.5974976448
 C   -1.3591064888   -0.6100900057    1.6575920697
 O   -2.2711766367    0.5028432892    1.7505162741
 C   -2.4684904737    0.5350660512    0.3139295456
 C   -1.4489424266   -0.5853953933    0.0849274448
 C   -1.7710598556   -1.7925664648    2.4817063531
 O   -1.0340852354   -2.7074701904    2.7539273825
 H    0.0147518212    1.8029847725   -0.0844506289
 H    0.6707437347   -0.8938475839   -0.4339171681
 H    0.8014715038   -0.9528767160    1.9831731948
 H    0.3193953074    0.7645364562    2.0947263879
 H   -3.4996433397    0.2742334314    0.0495788861
 H   -2.2292118606    1.5117346328   -0.1240206764
 H   -1.7428640685   -1.4345430157   -0.5296069779
 H   -2.8353275653   -1.7678853248    2.8045263434