20

 C   -0.0582956454    1.5880046340    0.2487142780
 C    0.0242574409    0.0610655250    0.0517755316
 C    0.7320674755   -0.3619968121   -1.2591399881
 C   -0.0309960342    0.0369493644   -2.5268864571
 C    0.6689865181   -0.4597642066   -3.8045587508
 C   -0.1433142398   -0.1526951214   -5.0430148738
 O    0.2467256589    0.4875301002   -5.9839581374
 C    0.7037244545   -0.5562426674    1.1967184669
 N    1.2507045443   -1.0404620926    2.0924463549
 H    0.9411888302    2.0323633237    0.2427509759
 H   -0.6467608087    2.0458549914   -0.5495829000
 H   -0.5329780658    1.8304609146    1.2023752000
 H   -0.9963930270   -0.3445985031    0.0365437786
 H    1.7385739985    0.0729835002   -1.2737764230
 H    0.8655103076   -1.4495981967   -1.2469649983
 H   -1.0490522521   -0.3739392480   -2.4851700606
 H   -0.1373540717    1.1260370441   -2.5827407083
 H    1.6615096661   -0.0142613753   -3.9184450272
 H    0.7887613678   -1.5516042135   -3.7484112648
 H   -1.1780870976   -0.5710847408   -5.0247213868