16

 C   -0.0420137717    1.5778738992    0.0437095450
 C    0.0579173504    0.0803454741   -0.0022771372
 C   -0.8381773508   -0.8483165949    0.8154430648
 C    0.6300061421   -0.9702025819    0.9996363089
 C    1.2191220649   -1.8204499502   -0.1395446354
 C    0.7586637619   -3.1894663178   -0.2834672456
 N    0.3586106467   -4.2678891115   -0.4045498414
 C    0.6614713019   -0.7035290515   -1.1199074049
 O    0.8796075297   -0.4813596140   -2.2712583914
 H    0.8917520295    2.0466913695   -0.2809817694
 H   -0.8404149253    1.9317294168   -0.6163954216
 H   -0.2680123624    1.9241783446    1.0565572146
 H   -1.3774084698   -0.3301447639    1.6017883128
 H   -1.4007141540   -1.6479964579    0.3430824060
 H    1.1428876173   -0.7664418779    1.9297597540
 H    2.3118459897   -1.7829584827   -0.1853952791