24

 C   -0.0242401711    1.5302007228   -0.0544071269
 C    0.0238266074   -0.0011204040    0.0395164585
 C    0.8536453670   -0.4389869289    1.2547100041
 C   -1.4030598146   -0.5803014513    0.0559763193
 C   -1.4723132533   -2.1143758494   -0.0711656766
 C   -2.8854369110   -2.6354177185   -0.1008790581
 C   -3.7541721850   -2.5271580348    1.1248365610
 N   -3.2759679852   -3.1501279883   -1.2045381754
 O   -4.6137070975   -3.5835176946   -1.1303939548
 H    0.9831535837    1.9558812123   -0.1101490349
 H   -0.5780210536    1.8592361107   -0.9399011566
 H   -0.5170495217    1.9613931562    0.8255110346
 H    0.5237433989   -0.3777222594   -0.8649108546
 H    0.9694451770   -1.5253808095    1.3091538894
 H    1.8580214503   -0.0043799659    1.2171010574
 H    0.3845361990   -0.1048534200    2.1884916361
 H   -1.9077450104   -0.2578078367    0.9774707289
 H   -1.9725400994   -0.1435109943   -0.7738503504
 H   -0.9695150179   -2.4313421977   -0.9901072844
 H   -0.9459248322   -2.5812929384    0.7712769495
 H   -4.5553818847   -1.7961574522    0.9691721407
 H   -4.2432676005   -3.4844050668    1.3262364114
 H   -3.1744131312   -2.2250574797    1.9995552602
 H   -4.7474913439   -3.9658605915   -2.0036800285