16

 O    0.1030427164    1.3864940909    0.1365937025
 C    0.0338394182   -0.0205734522   -0.0045185484
 C   -1.3718617453   -0.5220284785   -0.1298925403
 N   -2.2312864049   -0.8276844905    1.0279849702
 C   -1.9089308995   -1.9192992094    0.0369101042
 C   -2.8897224372   -1.6886457142   -1.0935219534
 O   -3.6251943466   -2.3898633500   -1.7202371560
 C   -2.3978566799   -0.1954217705   -1.2421984248
 O   -3.2851130704    0.8567451255   -1.0288559989
 H   -0.4874600974    1.6494619146    0.8502732017
 H    0.5934353915   -0.2528739303   -0.9169742277
 H    0.5360491975   -0.5441775246    0.8278917961
 H   -1.6357500528   -1.0009587034    1.8391257358
 H   -1.4126689509   -2.8248391884    0.3624943580
 H   -1.9319986616   -0.0530083416   -2.2226330165
 H   -3.6506153771    0.7251088927   -0.1440046024