20

 C    0.1158663410    1.6002472948   -0.1488088442
 C    0.1067522946    0.0851078395   -0.0299983342
 N    0.7445681406   -0.6894397238   -1.1327118572
 C    1.5005677016   -1.5599633590   -0.1989746677
 C    1.1045529232   -0.5924033678    0.9242205624
 O    1.4511218678   -0.4070185289    2.0518501980
 C   -0.1029400273   -1.3186194809   -2.0943404270
 C   -0.4785907262   -0.5456886739   -3.3319901380
 C    0.4913612850   -1.6982304584   -3.4250163445
 H    1.1203080525    1.9603399945   -0.3868081357
 H   -0.5669881613    1.9343057977   -0.9356427836
 H   -0.2030300148    2.0508128668    0.7962620845
 H   -0.9122443176   -0.2768337305    0.1971773060
 H    1.0590222155   -2.5584423809   -0.0465275302
 H    2.5673031387   -1.6743495665   -0.4168672611
 H   -0.8662461992   -1.9955152865   -1.6925111112
 H   -1.4781698288   -0.6732660565   -3.7316753158
 H   -0.0706909902    0.4534791852   -3.4272617160
 H    1.5363239064   -1.4565557407   -3.5796482630
 H    0.1607427786   -2.6204873742   -3.8888786114