21

 C    0.4534721093    1.6218871205   -0.2099922016
 C   -0.0338492906    0.1983383220    0.0846699232
 C    0.3824613769   -0.8169171437   -1.0054726090
 C    1.7633387245   -1.3203179310   -0.5282015391
 O    1.8975038956   -0.9299032311    0.8452145514
 C    0.6629557457   -0.4181170555    1.2837028354
 C    0.6194133507    0.1096952978    2.6855347974
 C   -0.0826022966   -1.1936367140    2.3352203282
 O   -1.4782682950   -1.2306688126    2.2507602130
 H    1.5413287177    1.6502892622   -0.3316605294
 H   -0.0011601089    2.0063932789   -1.1288975881
 H    0.1939009832    2.3056161625    0.6043820210
 H   -1.1158703843    0.1945707259    0.2311355609
 H   -0.3331896462   -1.6429830806   -1.0383563503
 H    0.4248134399   -0.3718125847   -2.0028968278
 H    1.8529122297   -2.4102392216   -0.6154678321
 H    2.5920644724   -0.8688139878   -1.0853283594
 H    1.5276858325    0.0566282111    3.2757747254
 H   -0.0067557264    0.9771338245    2.8702236208
 H    0.3940231408   -2.1117954658    2.6782101029
 H   -1.8351698312   -1.1176670671    3.1381371871