18

 C    0.3046901667    1.7269710536   -0.8879564803
 N    0.1513575314    0.3187385430   -1.1863938869
 C    0.1148050406   -0.4822049027   -0.2055600997
 N   -0.0296831931   -1.8413405010   -0.4119141210
 C   -0.0804381741   -2.7921164768    0.5733898748
 N    0.0039228554   -2.5041011017    1.8175543307
 C   -0.2465742243   -4.1954001314   -0.0145482961
 C   -0.3197606797   -5.3604527315    0.9456493968
 O   -0.3142910222   -4.3363391191   -1.2149718241
 H    1.2060455756    2.1113216684   -1.3800453995
 H   -0.5426933549    2.2854410158   -1.3031255240
 H    0.3743157661    1.9506208645    0.1884989799
 H    0.1886645714   -0.2087160841    0.8513036163
 H   -0.1054277478   -2.1768439477   -1.3634339126
 H   -0.0539588142   -3.3408977924    2.3912526406
 H   -1.1659411224   -5.2456137868    1.6313813818
 H   -0.4369332151   -6.2809029619    0.3739952072
 H    0.5895708605   -5.4203535381    1.5530670460