23

 C    0.0650517134    1.5153236568   -0.3455986664
 C    0.0178423709    0.0788742039    0.1930188383
 C   -1.3758870111   -0.5158805045    0.1918508035
 C   -1.9787566639   -1.0677879121   -1.0932471625
 C   -1.6996695703   -2.0073993204    0.0563729019
 C   -0.6530134208   -3.0861544610   -0.0979092205
 C   -2.8790978741   -2.2992194376    0.9934987112
 C   -3.2411606876   -0.9462301383    1.5627852192
 C   -2.4066994944    0.0067731819    1.1449421090
 H    1.0885117967    1.9033655300   -0.3426958011
 H   -0.3117023883    1.5602222497   -1.3726870544
 H   -0.5462078824    2.1925979006    0.2600055910
 H    0.6818188080   -0.5491983665   -0.4120697433
 H    0.4230289024    0.0571934375    1.2132462332
 H   -3.0038754146   -0.8055523012   -1.3366840969
 H   -1.3181268557   -1.1513646244   -1.9524949265
 H    0.1705729315   -2.7697063500   -0.7445606133
 H   -0.2278948589   -3.3730310895    0.8712026491
 H   -1.0880970860   -3.9879303154   -0.5456971319
 H   -3.7198848305   -2.7689496190    0.4655792840
 H   -2.5882668742   -3.0022681940    1.7879001834
 H   -4.0927320091   -0.7948551547    2.2165678901
 H   -2.4621005412    1.0534595483    1.4244142531