20

 C   -0.0947021615    1.5911595985    0.0545148361
 C   -0.0503424567    0.0750550512    0.0549263487
 C    1.1386884047   -0.6385971869   -0.6578186010
 O    2.0419554039   -0.1637684893    0.4225588426
 C    0.8213021277   -0.6510355085    1.1225287377
 C    0.8574763240   -1.8808987974    0.2065864048
 C    0.1226455236   -3.1456570913    0.0126565128
 N    1.5561375616   -3.1099483986    0.3748604038
 C    2.5163565267   -3.4992605413   -0.6493233604
 H    0.9009602968    2.0024313034    0.2315985566
 H   -0.4647507395    1.9693056354   -0.9045393104
 H   -0.7695525158    1.9596819999    0.8345439042
 H   -1.0305311267   -0.3796583889   -0.1226363403
 H    1.4907597590   -0.5449229162   -1.6854193178
 H    0.8033413153   -0.5861742018    2.2102780857
 H   -0.5465813727   -3.5421542283    0.7718227574
 H   -0.1335762189   -3.4203438358   -1.0109029769
 H    2.1995577510   -3.2316687214   -1.6710684609
 H    3.4709486460   -3.0062128230   -0.4448787486
 H    2.6680909514   -4.5820885398   -0.6098641142