15

 C    0.0274129375    1.3450628897   -0.0757099853
 O   -0.0402738075   -0.0838758694   -0.0713230996
 C   -1.2428290547   -0.6408979814    0.0294043514
 N   -2.2743909659    0.1355998684    0.1169798841
 O   -3.5331711423   -0.4636973821    0.2224574715
 C   -3.6325678532   -1.8006366958    0.2296296675
 C   -2.5949520121   -2.6474435805    0.1414875371
 C   -1.2490690678   -2.1256877398    0.0286115441
 N   -0.1387786381   -2.7600325238   -0.0654538149
 H    1.0875007731    1.5816306450   -0.1647219122
 H   -0.5323526786    1.7576035334   -0.9198767373
 H   -0.3833058397    1.7559821682    0.8508967317
 H   -4.6713630603   -2.0991186333    0.3168451570
 H   -2.7668730968   -3.7169158246    0.1550086392
 H   -0.3145214036   -3.7679389841   -0.0515520944