18

 N    0.0522007156   -1.1147569424   -0.0660562470
 C    0.0291240372    0.0414691292   -0.0332064354
 C    0.0122484945    1.4826614606    0.0185398128
 C   -0.4150623301    2.2532103321    1.3056613799
 C    0.4065884023    3.3881763476    0.6834256881
 C   -0.0255373485    3.5898288665   -0.8376450147
 C    1.4188758559    3.1973656808   -1.2491898009
 C    1.3656375474    2.3474220829    0.0240058948
 C   -0.7757184175    2.2619174396   -1.0676286154
 H   -1.4880877978    2.3729661420    1.4798252744
 H    0.0703081795    1.8587511786    2.2017757927
 H    0.7601836307    4.2565454379    1.2354029989
 H   -0.4967109096    4.5068103829   -1.1879060309
 H    1.5677205931    2.7203273652   -2.2226578623
 H    2.1291795424    4.0202762982   -1.1269112072
 H    2.2254035918    1.9059209002    0.5245863868
 H   -0.6384158278    1.8681401483   -2.0773450143
 H   -1.8443647291    2.2937913999   -0.8426260304