18

 O    0.1259522976    1.3557061390   -0.2818562909
 C    0.0440090880   -0.0010447184    0.0658220635
 C    0.0021414333   -0.3496305825    1.5904010208
 C   -1.3500615948   -1.0341145508    1.3627481107
 O   -2.1384588580   -1.5837710869    2.0800262599
 C   -1.3515613341   -0.7074560264   -0.1458621468
 C   -2.4618830250    0.1862630331   -0.6430936941
 C   -3.8680094027    0.0240511761   -0.2126029837
 N   -3.0895768260    1.1955468346    0.2459921537
 H   -0.6976740852    1.7962557202   -0.0388485385
 H    0.8606869361   -0.4973814120   -0.4616585075
 H    0.7910491279   -1.0061129221    1.9689562065
 H   -0.0547920782    0.5285556337    2.2431568943
 H   -1.2923354319   -1.6107231931   -0.7642734417
 H   -2.2811873981    0.5791634767   -1.6414505558
 H   -4.6719723625    0.2516306883   -0.9061045005
 H   -4.0826625619   -0.7517655451    0.5159445895
 H   -2.8209934546    1.0277132554    1.2140977706