16

 C    0.0100671158    1.4714093552    0.0126538493
 N    0.0413108561    0.0247293122   -0.0104533361
 C    0.1082835528   -0.7503039722   -1.1645361113
 C    0.1148398629   -2.0411448668   -0.7106812782
 O    0.1709754103   -3.1700776415   -1.4530344459
 N    0.0557041244   -2.0906880626    0.6505353853
 C    0.0119473011   -0.8280897075    1.0509186775
 C   -0.0600390337   -0.3970697299    2.4786978013
 H    0.9111455599    1.8880851508   -0.4496040891
 H   -0.8648698139    1.8510938641   -0.5254886222
 H   -0.0412525331    1.8192609925    1.0446389051
 H    0.1427762593   -0.3175944280   -2.1486098136
 H    0.1581865359   -3.9005905830   -0.8228026701
 H    0.7998294316    0.2153833324    2.7743059680
 H   -0.9671258736    0.1788766055    2.6962602642
 H   -0.0690192157   -1.2926719811    3.1009922859