17

 C    0.1127854936    1.7406113753    0.1762315700
 C    0.0449075969    0.2203190633    0.0240389477
 C   -1.3314897867   -0.2860754938    0.4180362563
 O   -1.9668612505   -1.0973364024   -0.2050230146
 C    0.5744160642   -0.4770502118   -1.2406671658
 C    2.0295648747   -0.2446556802   -1.4130421315
 C    1.5903554281   -1.3116777031   -0.4145831197
 C    1.0903367113   -0.6542247594    0.8270976742
 O    1.2596058911   -0.8127261510    2.0011744302
 H    1.1087106050    2.1251333151   -0.0555909660
 H   -0.6042358699    2.2387024261   -0.4849775924
 H   -0.1187001089    2.0267794188    1.2071985018
 H   -1.7196106364    0.1547459569    1.3617454229
 H   -0.0708168544   -0.8604234673   -2.0177849854
 H    2.4741089043   -0.6567527967   -2.3131258142
 H    2.5064674644    0.6664182829   -1.0666060882
 H    1.9032085433   -2.3432042329   -0.5128488952