20

 C    0.2808155463    1.3885979940   -0.7254353330
 C   -0.0103983388    0.3279756894    0.3216098809
 O    0.7510127111    0.0909511836    1.2320589128
 C   -1.3248970734   -0.3825411897    0.1802277423
 N   -1.3894476637   -1.7742591703    0.6960789788
 C   -2.1287377243   -0.7533141879    1.3935844538
 C   -1.8985566402   -0.3144498222    2.8421525922
 C   -3.3745562875    0.1863138036    2.8668989952
 C   -3.6472589653   -0.5822986263    1.5385567586
 H    1.2218991450    1.8889860498   -0.4954094315
 H    0.3406411232    0.9305568310   -1.7199820979
 H   -0.5311654071    2.1242930326   -0.7644208143
 H   -1.8932658062   -0.1515370104   -0.7187885835
 H   -2.0085707987   -2.3200268232    0.0992248295
 H   -1.7294438398   -1.1771931165    3.4924004052
 H   -1.1075651068    0.4139831944    3.0209981463
 H   -3.9777768057   -0.1063951549    3.7278239815
 H   -3.4501351359    1.2688694198    2.7406746182
 H   -4.1743808216   -0.0501687105    0.7420751732
 H   -4.1477551107   -1.5417202466    1.7084507719