19

 O    0.4069598055    0.0840559214   -0.1777119671
 C    0.4696743262    1.2710956952   -0.2864771204
 O    0.8192731274    2.0792784926    0.7327946154
 C    0.9226028549    3.4792232169    0.4524415154
 C    2.3238541387    3.9057354279    0.1549084228
 C    3.4177547894    3.1432967977    0.1403162608
 C    4.6650169682    3.9412712066   -0.1523504368
 C    4.1076045687    5.3047778380   -0.6373400521
 C    2.6476720051    5.3608122447   -0.1191820917
 H    0.2394404149    1.8288125592   -1.2158905395
 H    0.2514543634    3.7448743923   -0.3791223562
 H    0.5363398683    3.9931840952    1.3407730871
 H    3.4332280950    2.0824869266    0.3596563503
 H    5.2742793516    4.0467296665    0.7566065186
 H    5.3114964402    3.4641448750   -0.8972893021
 H    4.7065162891    6.1540065240   -0.3000756971
 H    4.1037435590    5.3270820887   -1.7314043726
 H    1.9636313389    5.8236805593   -0.8411421086
 H    2.5608237454    5.9517888421    0.8042726838