17

 C    0.0757727323    1.4149866651    0.1008353996
 C    0.0258514138   -0.0861681356   -0.0209057008
 O    1.0579337584   -0.7611346794   -0.1091099148
 C   -1.2871819255   -0.7424988791   -0.0241937548
 O   -2.4277330792    0.0479971308    0.1270346687
 C   -1.3881463498   -2.0850726661   -0.8241216978
 O   -0.3687699961   -2.5099740416   -1.6460944789
 C   -1.3330907795   -2.1485249429    0.6624619585
 O   -0.2619876857   -2.6478447303    1.3641533617
 H    1.1131822649    1.7405577306    0.1796948407
 H   -0.3879316013    1.8799433468   -0.7770127764
 H   -0.5029307560    1.7455748379    0.9681685204
 H   -2.7192403582    0.3404886244   -0.7443254115
 H   -2.3627594681   -2.2268832030   -1.2836418171
 H    0.4645972709   -2.1683303911   -1.2801083871
 H   -2.2719881526   -2.3094903652    1.1830032471
 H    0.5488338318   -2.2932101913    0.9637048925