17

 C    0.4073318127    1.3306101602    0.2784620006
 C    0.1191457853   -0.1540212118    0.0379149361
 C    0.5115115179   -0.5946083205   -1.3665803134
 O    1.9404577150   -0.5246740592   -1.6216766252
 C    2.0807670113   -1.9399513382   -1.9070265465
 C    2.9839904568   -2.6505252104   -1.0274655275
 C    3.7100942045   -3.2567198140   -0.2859779956
 C    0.5525270812   -2.1003856258   -1.6383707336
 O   -0.2217998628   -3.0018522689   -1.6349493592
 H    1.4686775654    1.5445954475    0.1256272387
 H   -0.1676766535    1.9619455526   -0.4075093465
 H    0.1444150743    1.6172557347    1.3006402847
 H    0.6636398204   -0.7673699219    0.7646820862
 H   -0.9480987620   -0.3707072330    0.1685485746
 H   -0.0524750412   -0.0324699104   -2.1252993242
 H    2.3399859254   -2.1106737139   -2.9612299131
 H    4.3586128092   -3.7904109469    0.3644856841