17

 O   -0.2391009311    0.3365638716    0.6892197295
 C    0.1660034759    1.0235089982   -0.2095219876
 C    1.2481634675    2.0743480672   -0.0395930809
 O    1.5503004962    2.5965974974   -1.3196662515
 C    2.5445510983    3.5782760892   -1.3101319487
 C    2.8724907897    4.2225728480   -2.6836816780
 C    2.8811948868    5.6379835873   -2.0282692465
 C    2.1765504871    5.0026242229   -0.8173744705
 O    1.4712952454    5.4129380383    0.0581287984
 H   -0.2247612782    0.9482538140   -1.2483196330
 H    0.8872688610    2.8576397479    0.6414442380
 H    2.1306892992    1.6071770899    0.4273937393
 H    3.4574848101    3.2247423847   -0.7998744371
 H    3.7916360110    3.8909648525   -3.1656867755
 H    2.0316560591    4.0942548866   -3.3680265655
 H    3.8844548564    5.9945348620   -1.7745135383
 H    2.3398815755    6.4429295923   -2.5289563123