21

 O    0.0980460287    1.3412748350   -0.7066844540
 C    0.0117742676   -0.0200820446   -0.3383407235
 C   -1.3768282071   -0.3820513512    0.1283079367
 C   -2.3541742251    0.5222223595    0.1530803410
 C   -3.7800335812    0.3575364672    0.6089592731
 C   -4.4800684322   -0.9729597688    0.5225167188
 C   -4.0304957769   -2.1807834064    0.1830659002
 C   -2.6271941569   -2.6062930929   -0.1623749877
 C   -1.5143108355   -1.8261032123    0.5563939528
 H    0.9974593270    1.5158044974   -0.9962066744
 H    0.2792120758   -0.6797450816   -1.1847220843
 H    0.7271914425   -0.2602166031    0.4695518620
 H   -2.0970384794    1.5293205100   -0.1610880103
 H   -3.8637278923    0.7254668216    1.6471989980
 H   -4.3951055701    1.0721933942    0.0418920191
 H   -5.5407185762   -0.8979898563    0.7615762633
 H   -4.7650065275   -2.9841653921    0.1573212213
 H   -2.5223828641   -3.6701759510    0.0853285623
 H   -2.4695974402   -2.5410253186   -1.2484026910
 H   -0.5619181535   -2.3431654303    0.3829318190
 H   -1.6930550533   -1.8791529757    1.6381627175