18

 C   -0.2730512288    1.4100829250   -0.1419630651
 C    0.1075450141   -0.0621004605   -0.0842315615
 O   -1.0296717880   -0.7725214621   -0.4882615092
 C    1.4981555255   -0.5831433648   -0.6007667135
 C    2.1806042568    0.0842662863    0.6254576264
 C    0.9140739035   -0.6322169511    1.1684217073
 N    1.3294840918   -1.7894100954    0.2970896468
 C    0.6335998112   -2.9242755068    0.0051920517
 O    0.4545648078   -3.3605143394   -1.1189855765
 H   -0.4494014369    1.7012962845   -1.1815195400
 H   -1.2149368840    1.5417021897    0.3983602001
 H    0.4674210729    2.0825906059    0.2901235718
 H   -0.7774621170   -1.5494064796   -1.0035687950
 H    1.8599904804   -0.6830998857   -1.6230308824
 H    3.1212220623   -0.3769769767    0.9220807129
 H    2.2174018768    1.1695019035    0.6619972061
 H    0.5890461888   -0.7761899834    2.1988771085
 H    0.3107179528   -3.4595591596    0.9189531218