19

 O   -0.0164614888    1.4218176524    0.0738039668
 C    0.0309813451    0.0194017597   -0.0031925889
 C    0.3416160088   -0.6435775232   -1.3802631039
 C   -0.7785920565   -1.6577556275   -1.0624593469
 C   -0.5172903846   -2.6667687392    0.0814416777
 C    0.1282180193   -1.9984596434    1.2873262525
 C    0.8450254384   -0.6728957858    1.1045147554
 C   -1.3475310238   -1.8379396204    1.0634089279
 C   -1.3761419853   -0.7025731705    0.0131735894
 H    0.8842768265    1.7575867306    0.0086439012
 H    0.0392319778    0.0183497875   -2.1976458383
 H    1.3597204251   -1.0066742729   -1.5545296084
 H   -1.3930721512   -2.0539345724   -1.8713206565
 H   -0.4764446569   -3.7437603881   -0.0332880974
 H    0.4570051937   -2.6770746770    2.0676046176
 H    1.9019930321   -0.7764184539    0.8314484708
 H    0.7830707609   -0.0841944278    2.0280196689
 H   -2.1268605037   -2.1343177043    1.7532855312
 H   -2.2555966868   -0.0887297437   -0.1629621591