16

 C   -0.0595190056    1.5093716245    0.0893203630
 C    0.0264157485   -0.0083681375   -0.0406058451
 C    0.7454301336   -0.4597660266   -1.2974497109
 O    1.2040466598    0.3140233922   -2.1146260024
 C    0.8762605559   -1.9207479255   -1.5061120364
 C    1.4775012698   -2.5483444888   -2.5536113826
 O    1.3780960258   -3.8872600548   -2.3595007001
 C    0.7091887663   -4.0103432938   -1.1821633921
 N    0.3862919115   -2.8915146748   -0.6308203578
 H    0.9370934282    1.9579116448    0.1108555487
 H   -0.5916351103    1.9458815027   -0.7599091648
 H   -0.5845496382    1.7873716354    1.0072657245
 H    0.5378355853   -0.4633489792    0.8178852264
 H   -0.9674125340   -0.4751580868   -0.0391041967
 H    1.9803440334   -2.2104166655   -3.4422436233
 H    0.5211730999   -5.0147520765   -0.8371350704