22

 C    0.0927384389    1.4757222909   -0.0002360469
 C   -0.0111141714   -0.0511958541    0.0126617602
 C   -1.4542419605   -0.5365982606    0.0033561443
 O   -1.4613596380   -1.9483704648    0.0156061921
 C   -2.7618545850   -2.4969578477    0.0104473402
 C   -2.6247909529   -4.0125311997    0.0307007673
 C   -3.9805646579   -4.7089284429    0.0607354899
 N   -3.9276591082   -6.0653904041   -0.0944107441
 O   -5.0310028552   -4.1123604975    0.2038270054
 H    1.1376090561    1.7991192163    0.0069203295
 H   -0.3799385578    1.9008418511   -0.8925955709
 H   -0.3970168242    1.9169070185    0.8749390122
 H    0.5039997223   -0.4750821721   -0.8571331376
 H    0.4872585345   -0.4590860927    0.8996777123
 H   -1.9970622171   -0.1432849623    0.8808514914
 H   -1.9801228596   -0.1586666667   -0.8911699502
 H   -3.3395902615   -2.1590061313    0.8831889452
 H   -3.3208694920   -2.1768704416   -0.8825851278
 H   -2.0504747807   -4.3466963760   -0.8412306903
 H   -2.0460868554   -4.3129736230    0.9132411317
 H   -3.0578003478   -6.5672023358   -0.1279851942
 H   -4.7839521965   -6.5868731139   -0.0031989998