21

 C   -0.0135423592    1.5715564049   -0.0038933940
 C    0.0418184234    0.0448613703   -0.0048411711
 C   -1.3601739704   -0.5359408606    0.1715767317
 O   -1.8650263303   -0.1078603447    1.4329892349
 C    0.7824686784   -0.6739011740   -1.1384066091
 C    2.2721846301   -0.7577786776   -0.7551237876
 C    2.4456900754   -0.1191082699    0.6213486501
 C    1.0449967492   -0.7014433561    0.9459301508
 C    1.2792486053   -1.7570519102   -0.2149542834
 H    0.9682752305    2.0218201772   -0.1628347422
 H   -0.6682586954    1.9242867430   -0.8102756952
 H   -0.4241409984    1.9427670029    0.9391062911
 H   -2.0101137269   -0.1871157816   -0.6480311455
 H   -1.3159687718   -1.6337859273    0.1172047910
 H   -2.7595752648   -0.4461885483    1.5288199632
 H    0.4749511751   -0.7745933743   -2.1732718953
 H    3.0234396751   -0.9239375558   -1.5171976281
 H    3.2230414874   -0.6393257473    1.1888615559
 H    2.5979279778    0.9612979822    0.7110975883
 H    0.7438160073   -0.9158064674    1.9685359494
 H    1.2375454423   -2.8349502655   -0.2676360648