17

 O    0.0104366986   -0.0040659746   -0.3356718136
 C   -0.0159708700    1.1512171597   -0.0288834545
 C   -1.1341927120    2.1360311863    0.3449826940
 C   -0.0339293003    3.1464821884    0.7748805586
 C   -0.0601093107    4.6708944808    0.4113512277
 C    0.0371690023    4.9821796679    1.9108944730
 O   -1.0823794398    4.3512772372    2.5461203775
 C    0.0686858573    3.5528458783    2.2535914957
 C    1.0746384753    2.2153623347    0.2016269841
 H   -1.7103509395    2.4539986937   -0.5310769722
 H   -1.8366443956    1.8063911086    1.1152961221
 H    0.8260163268    4.9751899234   -0.1523340933
 H   -0.9597369935    5.0459730432   -0.0833893013
 H    0.4706999118    5.8408263878    2.4093252841
 H    0.5326244806    3.0191347134    3.0764967706
 H    1.8877818016    1.9252379695    0.8743596193
 H    1.5141266471    2.5671390416   -0.7380931218