15

 C   -0.0844970783    1.5316914939    0.0098474153
 N    1.4415719818    1.2598012197    0.0022650359
 C    1.2250209834    0.0443695102    0.9298000573
 C    1.8794494466   -0.9881283245   -0.0000751705
 N    1.1448939522   -2.2621023262    0.0034519345
 C   -0.1232035921   -2.2041539016    0.0096574895
 O   -0.9007216736   -1.0677836825    0.0136489998
 C   -0.0140478061    0.0199784949    0.0093606427
 C    1.2158627822    0.0445174028   -0.9232777349
 H   -0.4306609636    2.0373486262    0.9152681364
 H   -0.4396089340    2.0375106942   -0.8920100359
 H    1.2520637020    0.1384973554    2.0144814641
 H    2.9572834797   -1.1451381805   -0.0054065723
 H   -0.7416768301   -3.0969722451    0.0127726589
 H    1.2321862298    0.1388197031   -2.0081581408