21

 C   -0.0310010178    1.5193270935   -0.0656722878
 C    1.4557536050    2.0119969420   -0.0192249073
 C    2.2111084817    0.8127956358    0.5582624677
 C    3.7042823435    0.6121867937    0.3414838448
 O    4.0523518959   -0.6823667168    0.8399212536
 C    3.3048210418   -1.7132094628    0.2475424038
 O    1.9133618419   -1.5983202874    0.4505617863
 C    1.4738869690   -0.3651771113   -0.0860815539
 C    0.0044124681   -0.0283134075    0.1336116440
 H   -0.6263344053    1.9949415354    0.7176244782
 H   -0.4980866066    1.7862307390   -1.0171248438
 H    1.8142603968    2.2382790625   -1.0305506227
 H    1.5753379874    2.9226011217    0.5730825611
 H    2.0263475792    0.7486948007    1.6388878898
 H    3.9543561519    0.6883708050   -0.7310189180
 H    4.3254993489    1.3263573416    0.8887797650
 H    3.5118248707   -1.7455951043   -0.8399697684
 H    3.6218912436   -2.6437249482    0.7216555789
 H    1.6917645977   -0.3544473031   -1.1719129088
 H   -0.2718235441   -0.3028602309    1.1567783863
 H   -0.6666193692   -0.5614062785   -0.5439295489