15

 O    0.1604346627    0.0375507378    0.3698190307
 C    0.1594046701    1.1808307102   -0.0001641936
 N   -0.8885664264    2.1080765456    0.2417749333
 C   -0.7229509592    3.3162314957   -0.5454586888
 C    0.4947201993    4.3079521267   -0.4248815744
 N    1.6012749991    4.0552484120    0.4751745118
 C    1.8409268481    2.7119874954    0.4240765558
 C    1.2283414400    2.0741979291   -0.6318261476
 C    0.4855042313    3.1760471280   -1.4034635686
 H   -1.8216345748    1.7392036902    0.3712551206
 H   -1.6376810063    3.7747262170   -0.9035234377
 H    0.3269761911    5.3393828300   -0.7109398136
 H    1.7161650364    4.5607780778    1.3389795287
 H    2.3239813519    2.2288112253    1.2670657036
 H    0.5316924065    3.2522732292   -2.4852848002