17

 C   -0.3558557245    1.3714417448   -0.3245207110
 C   -0.1941791032   -0.0801160627    0.1357669566
 O    0.1562427686   -0.9678415524   -0.9199130609
 C    1.5696461139   -1.1407607673   -0.9255347250
 C    1.9720406249   -1.1848891902    0.5629878289
 C    3.3504935037   -0.8655757365    0.8639781196
 C    4.4956592988   -0.5852617393    1.0946393654
 C    0.9270402013   -0.2143625043    1.1744811327
 O    0.9814691996    0.3380223404    2.2358340683
 H    0.5656480843    1.7499552503   -0.7772184368
 H   -1.1583932679    1.4407077705   -1.0627393252
 H   -0.6005159715    2.0030055186    0.5338965210
 H   -1.1348961694   -0.4365937367    0.5715442871
 H    1.7907511512   -2.0646133353   -1.4622042029
 H    2.0810857944   -0.3084614544   -1.4300115550
 H    1.7141443566   -2.1778561057    0.9599765484
 H    5.5068841290   -0.3411605195    1.3080033489