20

 O   -0.5359525988    0.2435332759   -1.6081105130
 C   -0.0010811620    0.9151398565   -0.7493810450
 C    1.4900851122    1.2515465109   -0.8493080652
 C    2.2542936132    1.2139041471    0.4570487812
 C    3.5406202423    1.9373395706    0.6001577602
 N    2.3441948090    2.4017428723    1.3280357101
 C   -0.7678735921    1.4566613974    0.4090265451
 C   -2.2132319049    1.8672075267    0.1455832995
 C   -1.9406795285    0.6212855146    0.9100300470
 H    1.9186436419    0.5568308295   -1.5786140619
 H    1.5720573158    2.2590592865   -1.2847801624
 H    2.1360545446    0.2913122374    1.0226334829
 H    4.3298189527    1.5314437456    1.2261310702
 H    3.8909447572    2.5211234575   -0.2475901245
 H    1.9538877964    3.2081436536    0.8443755084
 H   -0.2134456901    2.0201672077    1.1482715290
 H   -2.5794368366    2.7406054946    0.6727489907
 H   -2.5475884407    1.7596220734   -0.8797995947
 H   -2.0916776057   -0.3213739756    0.3970355002
 H   -2.1116470358    0.6105783778    1.9801390423