18

 C   -1.8933570782    0.4941660709   -0.5274794134
 N   -0.7568578417   -0.4238620602   -0.4825872382
 C    0.3920691878   -0.2830773573   -1.3393615762
 C    0.5875362479    0.8182544117   -2.3674044403
 C   -0.1793137583    0.5391359554   -3.6463545717
 O    0.3100416929    0.5383343314   -4.7453314733
 C    0.5074928583   -0.0335536632    0.1603532564
 C    0.7822126250    1.3318565600    0.6768135477
 O    0.3268055437    2.3696798862    0.2462738003
 H   -1.6389185451    1.5470717501   -0.6795954389
 H   -2.5630303950    0.1570357926   -1.3243954566
 H   -2.4323392988    0.4077797985    0.4205080427
 H    0.7983249834   -1.2436754836   -1.6580301089
 H    0.2533219042    1.7797280623   -1.9631619514
 H    1.6478581961    0.9084351896   -2.6219986197
 H   -1.2649937679    0.3353447016   -3.5034664728
 H    0.9525957902   -0.8192434432    0.7682609345
 H    1.4756590153    1.3401792070    1.5461671597