20

 N   -0.1793071240    1.3019560016    0.1911216589
 C   -0.0825552640    0.0500004549    0.0615629678
 O   -1.1889121680   -0.7142117037    0.0170539620
 C   -1.0316636176   -2.1254207253    0.0063364322
 C   -1.3506839833   -2.8871980740    1.3228449466
 C   -2.2798702818   -3.8505608555    0.5248546182
 C   -3.7818797611   -3.5013103875    0.6191981906
 C   -3.5865404146   -2.4002306101   -0.4673337510
 C   -2.1356144950   -2.9028702911   -0.7276577843
 H    0.7476626821    1.7222510093    0.1827764620
 H    0.8493694980   -0.5257084211   -0.0360038101
 H   -0.0369172406   -2.3815159809   -0.3791271691
 H   -0.4885796396   -3.3430065539    1.8149026039
 H   -1.8822056896   -2.2693007996    2.0517447340
 H   -1.9865912228   -4.9003336875    0.5172691478
 H   -4.4220641906   -4.3163261416    0.2703332866
 H   -4.1431960178   -3.1777018807    1.5999784973
 H   -4.2503173462   -2.4875561568   -1.3294221126
 H   -3.6325278294   -1.3715255158   -0.1056184692
 H   -1.9160540339   -3.2491416906   -1.7382808116