17

 C   -0.0372120596    1.5662231415   -0.1448711831
 O    1.1323745008    2.3063760156    0.2145568734
 C    1.8989901502    1.9640514352    1.2754470097
 N    2.0885725932    0.8655974091    1.8619373827
 C    1.5419118993   -0.3993697867    1.4913532873
 C    1.2262530600   -0.8485976267    0.0195107073
 N    0.4225378374   -1.9632881181    0.6665722139
 C    0.0122313760   -0.6899045338    1.3881519287
 C   -0.0411809551    0.0555197537    0.0235678781
 H   -0.8882864513    1.9897223035    0.4081413238
 H   -0.1874678457    1.8052232895   -1.2018684132
 H    2.4503841317    2.8463775901    1.6015318747
 H    2.0562465826   -1.1872369787    2.0421927877
 H    1.9304649239   -1.0431779528   -0.7911825357
 H   -0.3305129285   -2.2394428235    0.0290930558
 H   -0.7233081768   -0.6925348911    2.1949685645
 H   -0.8431573782   -0.3280530369   -0.6218003157