21

 O   -0.5586334955    0.7976409260    0.7288993333
 C    0.0904953072    1.0178116744   -0.2608108556
 C    1.4184033931    1.7430734779   -0.2879185839
 C    1.3845896519    2.9222256910   -1.2649897697
 C    0.6349231538    4.2202476324   -0.8128094978
 C    1.9404883863    4.6127667517   -0.0612428463
 C    2.6116316690    3.8913460196   -1.2664861928
 C    2.2491105787    4.8342499894   -2.4313053231
 C    0.7388526873    5.0838982626   -2.0855511520
 H   -0.2707789075    0.6890470516   -1.2647873739
 H    1.6711210362    2.0311826973    0.7345759816
 H    2.1758239354    1.0232723625   -0.6334486739
 H    1.0961059518    2.5479437214   -2.2562246073
 H   -0.3313754906    4.1786494222   -0.3085114702
 H    2.1477035837    5.6790727573    0.0697358807
 H    2.0728151756    4.0974197201    0.8899133580
 H    3.6352396176    3.5159927420   -1.2211312365
 H    2.8414726213    5.7533967413   -2.4174717957
 H    2.3852977394    4.3620454325   -3.4085730468
 H    0.0646193880    4.7429827672   -2.8765529942
 H    0.5200918171    6.1372571595   -1.8897731239