16

 O   -0.0534265335    0.0192611526    0.1338551561
 C    0.0150487461    1.2086569340    0.0021728049
 N   -0.9564895521    2.2089961482   -0.0532783567
 C   -0.0592792333    3.3475562999   -0.2299145588
 C    0.4134703824    4.0857810490    1.0609205067
 C    1.5425058976    3.0403808823    1.2298229197
 C    2.8388285239    3.2292525185    0.3967364547
 O    2.3604867235    2.3420181886   -0.6600126421
 C    1.0994316333    2.2885662593   -0.0593888510
 H   -1.8945614312    2.1825008790    0.3212462793
 H   -0.2227477693    3.9193933552   -1.1438102687
 H    0.7593702936    5.1083517584    0.8862967738
 H   -0.3220668388    4.1000951662    1.8688332001
 H    1.6674064549    2.5337365294    2.1854093869
 H    3.0139292844    4.2440250558    0.0204668529
 H    3.7550949986    2.8379756335    0.8473192622