19

 C    0.0913580404    1.5243254529    0.2765089590
 O    1.5029814128    1.4075113314   -0.1109984163
 C    1.1277207485    0.2634339045   -0.9151830891
 C    0.5931128289    0.6614649270   -2.3261410736
 C   -0.7746461677   -0.0804596886   -2.4065707888
 C   -0.7354517894   -0.8928505301   -1.1115044082
 O    0.3810756534   -1.8474354481   -1.2318026791
 C    1.6586307242   -1.1558667408   -1.0109141685
 C   -0.1148067085    0.0230203159   -0.0644778257
 H   -0.0099648118    1.7996206315    1.3284460421
 H   -0.4391555311    2.2469541378   -0.3529811976
 H    0.4879889977    1.7450341627   -2.4003859518
 H    1.2847266063    0.3453227697   -3.1104576266
 H   -1.6238102047    0.6118108589   -2.4180469173
 H   -0.8584027700   -0.7347233492   -3.2767182578
 H   -1.6198099975   -1.4827144463   -0.8708961405
 H    2.3105605210   -1.3674460297   -1.8643325355
 H    2.1279802960   -1.5134238144   -0.0875013640
 H    0.1261461513   -0.5581375451    0.8280608293