20

 C   -0.0878860589    1.4907434473   -0.1742806898
 C    0.0002841618    0.0080682849    0.2021978691
 C   -1.3415597982   -0.6934797182    0.0930319165
 O   -1.9114245526   -0.6669211920   -1.2538212964
 C   -2.1517688984   -2.0832226985   -1.1978152314
 C   -3.4413948715   -2.5828515456   -1.7612765864
 C   -0.8475820010   -2.8141711171   -1.1237418531
 C   -1.4502516470   -2.2162105118    0.1375081862
 H    0.8906302610    1.9753045636   -0.1067691550
 H   -0.4562479588    1.6023150623   -1.1979546948
 H   -0.7743606481    2.0286519581    0.4890208733
 H    0.7305281017   -0.4975227853   -0.4389675899
 H    0.3556268816   -0.1022764803    1.2354429358
 H   -2.0622191321   -0.2309967737    0.7828755240
 H   -3.4802343711   -2.4068278080   -2.8424744167
 H   -3.5440514045   -3.6584926122   -1.5911962589
 H   -4.2949251592   -2.0718727748   -1.3047138099
 H   -0.9142513374   -3.8970233889   -1.1719390942
 H    0.0407870639   -2.3905718347   -1.5829497432
 H   -1.6972956511   -2.8081140052    1.0089901148