19

 C   -0.0351372865    1.3985705127    0.1118279803
 O   -0.1046328135   -0.0067455995   -0.0409508566
 C    0.6193448498   -0.5214492468   -1.1388130498
 C    2.1635115760   -0.6238974382   -0.9189748219
 O    2.1063315589   -2.0598433220   -0.8792021726
 C    0.6772138496   -2.0671002089   -1.0426980467
 C    0.1939401796    0.0311899292   -2.4197018456
 C   -0.1540160174    0.4800015061   -3.4823494475
 C   -0.5769303598    1.0157674796   -4.7679233112
 H    0.9984886980    1.7426171729    0.2648980746
 H   -0.4530305625    1.9216647588   -0.7575057023
 H   -0.6218115609    1.6442035781    0.9994598713
 H    2.7909453793   -0.2559753947   -1.7376174638
 H    2.4949906526   -0.1931592152    0.0340034293
 H    0.1516620034   -2.4458054645   -0.1590577632
 H    0.3624676888   -2.6117394123   -1.9383390764
 H   -0.2651348204    0.3604664471   -5.5885196170
 H   -1.6668135469    1.1135600553   -4.8171889684
 H   -0.1440391682    2.0053946721   -4.9501924524