13

 O    0.1015351925    1.3603424663   -0.0660223020
 C    0.0629873211    0.0020423377   -0.0003409121
 C    0.0111836109   -0.8341942370   -1.0951171926
 N   -0.0178428687   -2.1779144388   -0.6616638880
 C    0.0169393182   -2.1312659882    0.6852526566
 C    0.0664584634   -0.8449697378    1.1515085615
 N    0.0993248599   -0.8887105184    2.5443736427
 C    0.0682177537   -2.1523133205    2.8098199246
 O    0.0160448098   -3.0087661452    1.7111688727
 H    0.1336258416    1.7018047235    0.8329023987
 H   -0.0076272653   -0.5970766830   -2.1445041650
 H   -0.0556971142   -2.9841969941   -1.2575633764
 H    0.0772690771   -2.6422253245    3.7695860892