19

 C    0.1143356875    1.6597785667    0.0684164571
 C   -0.0813939698    0.1335927814    0.0135228789
 C    0.5907636209   -0.5105627644   -1.1940787872
 O   -0.0048180161    0.0194209197   -2.3639149450
 C    0.5419267856   -0.4916013433   -3.5514336646
 C   -0.1919505251    0.1388147197   -4.7223782130
 O    0.0679234329   -0.0896681293   -5.8730510651
 C    0.3878753013   -0.4993702443    1.3064270314
 O    1.1913414309   -1.3939135959    1.3865612716
 H    1.1767785653    1.9148715924    0.1449110257
 H   -0.2818143178    2.1159721308   -0.8403537738
 H   -0.4022554669    2.0954527936    0.9292259356
 H   -1.1634370154   -0.0616840895   -0.0480265676
 H    1.6727217332   -0.3038616598   -1.1824065599
 H    0.4727698844   -1.6032662915   -1.1592723401
 H    1.6180922858   -0.2674430331   -3.6434810760
 H    0.4370514868   -1.5880334573   -3.6168255593
 H   -1.0013412601    0.8377704496   -4.4153420256
 H   -0.0725010335   -0.0592044455    2.2212217168