16

 O    0.1364200626    0.0478909977    0.0376383455
 C    0.0609293585    1.2341160083    0.0467679815
 O   -1.1634098251    1.9094804531    0.0220605213
 C   -0.8435972531    3.2466803463    0.0408221245
 N    0.3742950366    3.5882034858    0.0723197521
 C    1.1330729897    2.3295685555    0.0890392887
 C    2.0498524748    2.2029047122    1.2861788174
 C    3.2141330575    1.2477717315    1.2294341711
 C    3.4566505705    2.7354111176    1.2128394063
 H   -1.6997100593    3.9107144683    0.0266712806
 H    1.7325041361    2.2589169036   -0.8275693296
 H    1.5386208749    2.2999528163    2.2392431466
 H    3.4547217322    0.6901592846    2.1268531407
 H    3.3680348440    0.6922295155    0.3110008004
 H    3.7762365393    3.1923820062    0.2824130832
 H    3.8660092407    3.2046842575    2.0998651097