19

 C   -0.2348568163    1.4880224056    0.1480913605
 C    0.1103314601    0.0303267757   -0.0348017930
 C   -0.7260979094   -1.0329675362    0.5937283518
 C    0.7063674227   -0.8050648461    1.0964469346
 C    1.7220969317   -1.7150967950    0.5087378607
 O    2.5400527526   -2.3862755213    1.0927530519
 C    1.5831475870   -1.6770363239   -1.0355362112
 O    0.8274080632   -2.8077588904   -1.4712738246
 C    0.8125551988   -0.3851430747   -1.3353508843
 H    0.6542681150    2.1221843684    0.0574888293
 H   -0.9555332751    1.8153654887   -0.6104189113
 H   -0.6817944260    1.6712583502    1.1300626722
 H   -1.5021454459   -0.7216350616    1.2851681686
 H   -0.9363532118   -1.9420445191    0.0429941424
 H    0.8507171183   -0.4384302685    2.1052692628
 H    2.5816671770   -1.6853448239   -1.4910208492
 H    1.2795173203   -3.5939478588   -1.1424376281
 H    0.1124233012   -0.5317910340   -2.1635457247
 H    1.5176639764    0.3997373447   -1.6301124185