15

 N   -0.0240701877    1.2053171680   -0.0237245083
 C   -0.0535832631   -0.0491705175   -0.0072625559
 O    1.0408728147   -0.9079431620   -0.0236521559
 C    0.3842068076   -2.2083525885    0.0089586305
 C   -0.7486932630   -2.0376596633   -1.0386861380
 C   -1.2261513005   -0.9960966615    0.0337622607
 C   -0.6953751685   -2.0107448286    1.1069526791
 C    1.3488750923   -3.2867837992   -0.0014633938
 N    2.0761598523   -4.1838305881   -0.0080549320
 H    0.9366802231    1.5517890090   -0.0519281267
 H   -0.4506295958   -1.6755419956   -2.0234156380
 H   -1.4013104872   -2.9079107100   -1.1080477000
 H   -2.2201789149   -0.5622182091    0.0530274038
 H   -1.3431937089   -2.8785811167    1.2304342736
 H   -0.3490089603   -1.6242378369    2.0662797808