22

 C   -0.0930213168    1.5187714517    0.2025467738
 C    0.0141484286    0.0269712859   -0.0709966528
 C   -1.3037355553   -0.7569424997    0.1062791024
 C   -1.2292437565   -1.8571312502   -0.9840008158
 C    0.0894799482   -1.5360606401   -1.7242531855
 O    0.3783687464   -0.1790023886   -1.4336553643
 N    1.2148537962    2.1585000251    0.2190763540
 C    1.7310440147    2.6089955410   -1.0695233322
 C    1.2369689723    3.5902401248   -0.0655081323
 H   -0.7746158444    1.9584019183   -0.5491090432
 H   -0.5513279861    1.6625682957    1.1888539743
 H    0.7953699195   -0.3959316245    0.5819441606
 H   -1.3991419280   -1.1637466371    1.1158772590
 H   -2.1597287255   -0.0967865734   -0.0660931466
 H   -1.2176986726   -2.8651695765   -0.5621942577
 H   -2.0846278377   -1.7951821501   -1.6609781265
 H    0.9030769720   -2.1866762089   -1.3641748558
 H    0.0244438342   -1.6414228484   -2.8103239717
 H    2.7967175480    2.4663515634   -1.2233595019
 H    1.1167626831    2.4315596121   -1.9484246926
 H    0.2890287958    4.0837151016   -0.2763097412
 H    1.9322870839    4.1786407378    0.5266595859