21

 C    0.0868934903    1.4906772812    0.1272748108
 C   -0.0307958518    0.0053675716   -0.0065559869
 C   -0.1076713251   -0.7472988720   -1.1178809541
 C   -0.0605339025   -0.3307509400   -2.5533499552
 C   -0.0369524660   -2.2101160866   -0.7142792217
 C    1.4261730453   -2.4777294285   -0.1773717492
 C    0.9299092471   -2.1164576140    1.2173249090
 C   -0.5090845426   -2.2552674816    0.7751025582
 C   -0.0279687616   -0.8962402177    1.1899139940
 H    1.0439495368    1.7746543918    0.5843514620
 H    0.0151500149    2.0000324929   -0.8372358951
 H   -0.6993372474    1.8949055319    0.7782910682
 H   -0.0619769778    0.7562173474   -2.6707479606
 H    0.8381215202   -0.7163006325   -3.0538715515
 H   -0.9187672822   -0.7296258760   -3.1099503591
 H   -0.4307655746   -2.9308597066   -1.4311116443
 H    1.6701840919   -3.5423665147   -0.2268473475
 H    2.2373234617   -1.8930763569   -0.6261064608
 H    1.3878015100   -2.4143977049    2.1534821795
 H   -1.3414310553   -2.8003020753    1.2036878502
 H   -0.2957477112   -0.5115351795    2.1687196141