23

 C   -0.0726209966    1.5321536362   -0.1447512420
 C    0.0476560309    0.0225636581    0.0038530320
 O    0.7091590217   -0.4530013851   -1.1721656264
 C    0.7806177041   -1.8507001462   -1.2058532310
 O    1.5031204968   -2.3804876292   -0.1274040450
 C    0.8938372862   -2.0215216827    1.1036777370
 C    0.7894359091   -0.4892686478    1.2720291269
 C    2.2008902846    0.1100817131    1.3838726101
 C   -0.0261001921   -0.1953011088    2.5387427283
 H    0.9119399911    1.9983606790   -0.2307708878
 H   -0.6359497070    1.7657011972   -1.0521487286
 H   -0.5965891965    1.9720476170    0.7077151694
 H   -0.9684725491   -0.4128029528    0.0264251149
 H   -0.2422848487   -2.2772575524   -1.2133570101
 H    1.3123913739   -2.1266517378   -2.1188204520
 H   -0.1130911152   -2.4704575982    1.1651086369
 H    1.5092596149   -2.4595074059    1.8953457435
 H    2.7760083800   -0.0788800995    0.4752558576
 H    2.1677240887    1.1900139832    1.5554281413
 H    2.7385853860   -0.3386424822    2.2263139722
 H    0.4312902615   -0.6764914523    3.4107787329
 H   -0.0734359210    0.8775416601    2.7473754771
 H   -1.0533412735   -0.5683369730    2.4547328129