19

 C    0.0231366619    1.4743051624   -0.0433360908
 C   -0.0418963602   -0.0247732005   -0.0054437076
 O    0.8964604040   -0.6313595728   -0.8732398617
 C    0.4590561141   -1.9411099845   -1.1296111092
 C    0.1488246766   -2.8121104959    0.0585784028
 C    0.3269594883   -2.1371472711    1.4116203526
 C   -0.3732157626   -0.7942133592    1.2506545483
 C   -1.3111276029   -0.8528146484    0.0400152638
 C   -0.9820445411   -2.1220940428   -0.7079534736
 H    1.0079840110    1.8288433764    0.2784514572
 H   -0.1583908765    1.8448793756   -1.0571433220
 H   -0.7280382469    1.9056544014    0.6240665880
 H    0.8863442229   -2.3525629640   -2.0362561630
 H    0.3084606193   -3.8809561107   -0.0337862585
 H   -0.1434172521   -2.7273112805    2.2066223718
 H    1.3864115698   -2.0160957914    1.6678832855
 H   -0.6500517087   -0.2280205718    2.1340186948
 H   -2.3035999445   -0.4224349589    0.0245437025
 H   -1.7213980025   -2.6459849632   -1.2979522712