23

 C    0.0830571957    1.6009695691   -0.2057721415
 C   -0.0071942938    0.0787331052   -0.0603369367
 C   -1.4385828896   -0.4691327997    0.1341287368
 C   -2.1321751780    0.1599723157    1.3465037046
 O   -2.2556595765   -0.0938413695   -0.9865905434
 C   -1.3986097296   -2.0280885294    0.1995357625
 C   -0.9280897310   -2.6157068335    1.5414706393
 C   -2.7662765738   -2.5965250990   -0.1454634268
 O   -2.9837023285   -3.3109050995   -1.0904289284
 H    1.0946504446    1.8982970647   -0.4975754215
 H   -0.6131704623    1.9547450715   -0.9708484334
 H   -0.1521142961    2.1164310297    0.7299817179
 H    0.4046973371   -0.3937016339   -0.9628552968
 H    0.6265897767   -0.2548927611    0.7700902540
 H   -2.2846388416    1.2262933781    1.1686043215
 H   -3.1143940206   -0.2872135126    1.5182555381
 H   -1.5330141360    0.0425353683    2.2529489438
 H   -1.9117195132   -0.5343192868   -1.7727140651
 H   -0.7282839047   -2.3765774670   -0.5963739277
 H    0.0327357325   -2.1922094103    1.8465116128
 H   -1.6497105565   -2.4205102751    2.3408114007
 H   -0.8033978574   -3.6995217026    1.4603786822
 H   -3.5796157874   -2.3320721321    0.5673523472