15

 O   -0.1119640811    1.3233124363    0.0450441805
 N    0.0427631126   -0.0725542987    0.0298231301
 C   -1.0815258109   -0.6461080843   -0.0613181280
 C   -2.5454075772   -0.2650758276    0.0300991451
 N   -2.9069944002   -1.7271807284    0.2106723752
 C   -2.4709542198   -2.4282240247   -1.0219659614
 C   -2.5290829158   -1.8430420448   -2.3318788536
 C   -2.6063142044   -1.3782655398   -3.4381619022
 C   -1.4345246543   -2.0840894827    0.0049899705
 H    0.7971753703    1.6284717417    0.1350402335
 H   -2.7803053315    0.2934577519    0.9389141178
 H   -3.0102724233    0.2120197493   -0.8348493919
 H   -2.7835989250   -3.4697699242   -0.9869027295
 H   -2.6619441723   -0.9667280809   -4.4157972600
 H   -0.9233922669   -2.8529390332    0.5736272740