23

 C    0.0290331516    1.3809481969    0.1402892620
 O    0.0016736316   -0.0243192387    0.1081180776
 C   -1.2993142749   -0.5471313698   -0.0621079544
 C   -1.2104546353   -2.0591066675   -0.0650610218
 C   -0.8758285805   -2.7700840048    1.2793219236
 C   -2.0193819841   -3.7919064095    1.0107438831
 C   -2.5160543426   -2.8755974597   -0.1167884773
 C   -3.9126108116   -2.3291512719   -0.2389401615
 C   -3.3494847517   -3.2406849066   -1.3063693985
 H    1.0695542351    1.6869057438    0.2756042714
 H   -0.3507240002    1.8203247704   -0.7964936260
 H   -0.5706016580    1.7845609233    0.9721607263
 H   -1.9614050206   -0.2052840815    0.7526688562
 H   -1.7376476541   -0.1802265635   -1.0084145335
 H   -0.5179204369   -2.3664462543   -0.8568331853
 H    0.1335484605   -3.1716995071    1.3827763929
 H   -1.0829945869   -2.1277683581    2.1399210331
 H   -1.6497934916   -4.7542061324    0.6418355798
 H   -2.7144322746   -3.9816983592    1.8335659285
 H   -4.6713208813   -2.7275805555    0.4278257017
 H   -4.0495772858   -1.2811217700   -0.4857459125
 H   -3.0940772352   -2.8007894165   -2.2658318862
 H   -3.7315517728   -4.2549520778   -1.3703951492