20

 C    0.1713265805    1.5587257605    0.0932736525
 N    1.2051712600    0.5367635641   -0.1493933054
 C   -0.1972355669    0.1248679434    0.0301940929
 C   -0.4705761762   -0.6755420871    1.2772727337
 O   -1.8558928754   -0.5401414328    1.6090469275
 C   -2.2453235048   -1.6658746651    2.3912392612
 C   -1.3901085302   -2.8212527957    1.9008874578
 C   -1.2800190301   -2.9591660672    0.4048200425
 C   -0.2392198727   -2.1764247746    1.1683720117
 H    0.2403262850    2.0546758107    1.0576274001
 H   -0.1347840645    2.2026854500   -0.7265735233
 H    1.4495493884    0.5153072527   -1.1353321735
 H   -0.7486092585   -0.2074251843   -0.8468485661
 H    0.1650737254   -0.2771975190    2.0855480438
 H   -2.0605006496   -1.4871040709    3.4631174848
 H   -3.3222552429   -1.8042306388    2.2461612429
 H   -1.2542597162   -3.6846573368    2.5411842776
 H   -0.9830887935   -3.9251645267    0.0123663967
 H   -1.9910505945   -2.4179704516   -0.2120251386
 H    0.7753779369   -2.5474504409    1.2408734512