15

 C    0.1186441709    1.5051297883    0.0253662812
 C    0.0032407695   -0.0007357459    0.0816821214
 C   -1.2335749927   -0.5957947809   -0.5576911846
 O    1.2105835297   -0.7168688979   -0.1609495111
 C    0.6805570627   -0.7920616759    1.1584344517
 C    1.4464176246   -0.1500623763    2.2695860524
 O    2.3171478987    0.6721012962    2.1356840489
 H    1.0430220537    1.8444759798    0.4924265481
 H    0.1164270331    1.8294696529   -1.0208658733
 H   -0.7353657149    1.9774361996    0.5220570578
 H   -1.2894653003   -0.2983372173   -1.6104449135
 H   -1.2141360652   -1.6870039349   -0.5107100922
 H   -2.1401069950   -0.2359795691   -0.0603765850
 H    0.2331372851   -1.7513752789    1.4264809540
 H    1.1267046003   -0.4969368397    3.2788352041