15

 C    0.2676342270    1.5573196476    0.0801615150
 C   -0.2418811580    0.1363674247   -0.1379280903
 N    0.4979436171   -0.4975819196   -1.2334110979
 C    1.7123311813   -1.2115637886   -0.8943584559
 C    0.4871045468   -1.9614278516   -1.3323364158
 C   -0.2171452284   -2.7708336084   -0.3664531582
 N   -0.8051684420   -3.4244973903    0.3855725191
 H    1.3204599098    1.5566011883    0.3807303522
 H    0.1767979917    2.1459883878   -0.8367388004
 H   -0.3078349723    2.0492577722    0.8695805844
 H   -0.1707733098   -0.4420576679    0.7969871810
 H   -1.2984950210    0.1507144571   -0.4259460574
 H    2.5442182072   -1.1132948563   -1.5857160080
 H    1.9850857091   -1.3002847515    0.1561321393
 H    0.4298746913   -2.3467054936   -2.3466251570