10

 O   -0.0151436328   -0.0544096633    0.0034457346
 C    0.0175681433    1.1353920824    0.0088702691
 O   -1.1916924610    1.8326940016    0.0293233772
 N   -1.2385432950    3.2494563677    0.0367680215
 N   -0.1799400630    3.8815591416    0.0248028170
 C    1.0586836727    3.1801865101    0.0038215501
 N    1.1830934091    1.9000244339   -0.0039322841
 C    2.1956947406    4.0317461594   -0.0078009425
 C    3.1454696415    4.7690228663   -0.0174897275
 H    3.9916688847    5.4135675202   -0.0261513953