18

 C   -0.1196333413    1.5018096248    0.1001581749
 C    0.0524757917    0.0214229149    0.0153621862
 C    0.0636102524   -0.7314553932   -1.1020062602
 C    0.3210321957   -2.1989540294   -0.7942981910
 C    0.1195177066   -2.2765559213    0.7374607729
 C    0.2988920338   -0.8259214580    1.2430180806
 C   -0.0873916975   -0.2625017856   -2.4289336173
 C   -0.2151287860    0.0949686411   -3.5738697965
 H    0.7568695499    1.9718432921    0.5654011110
 H   -0.2654277802    1.9456654388   -0.8871875545
 H   -0.9800315709    1.7619682902    0.7301279471
 H   -0.3505958852   -2.8645756128   -1.3455753389
 H    1.3424930347   -2.4728110084   -1.0910123598
 H   -0.8994928079   -2.6125318935    0.9533465964
 H    0.8013116135   -2.9821809396    1.2185040041
 H    1.3151316940   -0.6449578508    1.6249988384
 H   -0.3805549242   -0.5760091221    2.0668662205
 H   -0.3267878791    0.4195799928   -4.5783402740