22

 C    0.1707525914    1.4169238455   -0.4469717751
 C   -0.0464673414    0.1670035213    0.4255858327
 C   -1.4009527342   -0.3694709434    0.3299688872
 C   -2.5264953029   -0.7884395897    0.2270394621
 C   -3.8867210277   -1.3214946526    0.1315339985
 C   -3.8623459006   -2.7853572138   -0.3540890895
 C   -4.6313911715   -1.1495068251    1.4790175762
 C   -6.1213760113   -1.4975167255    1.4215906443
 H    1.1967014574    1.7832630892   -0.3433910920
 H   -0.0097424552    1.1900845990   -1.5013035583
 H   -0.5130969164    2.2181506774   -0.1537651041
 H    0.6755091763   -0.6082790099    0.1375753265
 H    0.1778397277    0.4099757380    1.4724585504
 H   -4.4304089664   -0.7292904494   -0.6199913537
 H   -3.3626219849   -3.4248756649    0.3806731944
 H   -4.8752747771   -3.1662616467   -0.5113300596
 H   -3.3175347400   -2.8688091167   -1.2980471313
 H   -4.1291904821   -1.7642715807    2.2361580579
 H   -4.5126190959   -0.1094934482    1.8018343055
 H   -6.6037295951   -1.2881466878    2.3814027288
 H   -6.6373542474   -0.9062383438    0.6562834712
 H   -6.2901292328   -2.5545230421    1.1949747779