17

 O    0.1355996370    1.4689685224   -0.0715708294
 C    0.0290446299    0.0763000076   -0.0295227866
 C   -0.0967281921   -0.6943637613    1.3238847200
 C   -1.4648174216   -0.0267174277    1.5683108956
 C   -1.4017951719   -0.5047324777    0.0889606452
 C   -2.4852237582   -0.6006812264   -0.9495604187
 C   -3.6864562274   -1.3917461458   -0.4624964359
 O   -4.8274254425   -1.0237023876   -0.5679457701
 O   -0.7683274572   -1.7670627646    0.5579014815
 H    1.0678523090    1.7065712771   -0.0824704428
 H    0.6505309323   -0.4406883466   -0.7691736292
 H    0.6704138301   -0.9957360067    2.0365905415
 H   -2.1456021621   -0.5889605775    2.2089622459
 H   -1.4822387725    1.0485389017    1.7470483632
 H   -2.8102299658    0.3965099797   -1.2591271782
 H   -2.0743141103   -1.1200418270   -1.8270696088
 H   -3.4313167866   -2.3669472596    0.0050640969