12

 O    0.0871198424    1.3041499806   -0.0433033874
 C    0.0551272389   -0.0207753423    0.0033906058
 N    0.0355506618   -0.7662233377   -1.0881610527
 N    0.0053514747   -2.0460471774   -0.6108980065
 C    0.0047334942   -2.1464425153    0.7213844605
 C    0.0370412621   -0.8366209320    1.1741610598
 N    0.0502439258   -0.3720922366    2.5060318098
 O    0.0317596023   -1.1810973446    3.4232729310
 O    0.0800774574    0.8632634537    2.6606216058
 H    0.0956020380    1.5973956180    0.8887785883
 H   -0.0140125794   -2.7979100685   -1.2796137418
 H   -0.0170490882   -3.0810933478    1.2561882174