16

 C   -0.0594239171    1.3751968179    0.0960143709
 O   -0.0214776770   -0.0477449158    0.0406161745
 C   -1.2187779809   -0.6594832391    0.0112019654
 N   -2.3698710263   -0.0079812406    0.0312564134
 N   -3.3121646807   -1.0111203869   -0.0123281154
 C   -2.7481160071   -2.2310688782   -0.0572491994
 O   -3.4763272481   -3.3570193995   -0.1045894526
 C   -1.3773606800   -2.0709236886   -0.0445700434
 N   -0.4732813447   -3.1667677731   -0.0831544458
 H    0.9808958762    1.7037137050    0.1137816073
 H   -0.5722628529    1.7880109511   -0.7789871003
 H   -0.5806907129    1.7186945852    0.9956436540
 H   -4.2888348695   -0.7795162644   -0.0075225204
 H   -2.8263952957   -4.0763599904   -0.1298311348
 H    0.1307023001   -3.1831914376    0.7334747828
 H    0.1388134066   -3.1192308549   -0.8924889660