16

 C   -0.0067232631    1.5127483015    0.0771348334
 C    0.0016357426    0.0009404001   -0.0721027497
 C    0.8400212798   -0.5029536831   -1.2455982802
 C    0.9895990282   -1.9944980701   -1.1603540610
 C    0.8870790398   -2.6165850544    0.0157335640
 C    0.7391650607   -1.8632705393    1.2828376829
 O    0.8930985983   -2.3590174227    2.3693002511
 O    0.4838977607   -0.5311231017    1.1812276407
 H    1.0093152993    1.8896668219    0.2275260638
 H   -0.4246536621    1.9807772840   -0.8192798829
 H   -0.6125613144    1.8055484006    0.9380008509
 H   -1.0270703176   -0.3634153178   -0.2058968663
 H    0.3564432733   -0.2133996547   -2.1852366466
 H    1.8298279678   -0.0233688465   -1.2455662473
 H    1.1980439708   -2.5527492465   -2.0690730959
 H    0.9984462458   -3.6877464013    0.1323779129