18

 N    0.6888017312   -1.1188645603   -0.2312734295
 C    0.4830694215    0.0169680762   -0.2249043542
 C    0.1826736090    1.4520873861   -0.2258876183
 O    1.3512743610    2.1643107519    0.0924857081
 C    1.1540377339    3.5757982558    0.1988770722
 C    2.4244412974    4.1598072462    0.8216596225
 C    3.2975972149    4.3773986057   -0.4157324569
 O    2.3943673726    4.8339423139   -1.4185926560
 C    1.1094463650    4.2710273861   -1.1820143581
 H   -0.2169676831    1.7197177468   -1.2167105639
 H   -0.6173551622    1.6433891496    0.5084788022
 H    0.2507066799    3.7714271373    0.7923158375
 H    2.1953678073    5.1175161841    1.2984162726
 H    2.8533376549    3.4831208253    1.5622991502
 H    4.0686812290    5.1412035934   -0.2863809706
 H    3.7799175500    3.4369749127   -0.7203082631
 H    0.8577804575    3.5478476282   -1.9704393602
 H    0.3651459603    5.0763088409   -1.2088002845