18

 O    0.0314135030   -0.1053552383   -0.0031535722
 C   -0.0024053623    1.1015687799    0.0588706779
 C   -1.2949172487    1.8980762994    0.0855568123
 C   -1.4090573231    2.7210810884    1.3882530569
 C   -0.1343781877    3.4974590267    1.7208996100
 C    0.9507579720    2.8459976814    2.5465744458
 C    1.1890208021    3.1135384513    1.0840970157
 C    1.2593952319    1.9566040249    0.0967724858
 H   -1.2835159138    2.5879119144   -0.7688636599
 H   -2.1385422743    1.2144058968   -0.0313013709
 H   -2.2495661258    3.4150104162    1.2918087742
 H   -1.6642789812    2.0463800075    2.2133138538
 H   -0.2803512659    4.5593330433    1.8912884877
 H    1.4827912482    3.4437855163    3.2783874632
 H    0.7910641094    1.8143321998    2.8492825483
 H    1.8661199519    3.9316020284    0.8568851295
 H    2.1186377541    1.3056440013    0.2836054744
 H    1.3760794703    2.3625892323   -0.9188939425