18

 C   -0.0299243422    1.3594522225   -0.1572897812
 O   -0.0291684543   -0.0397015116    0.0725924702
 C   -1.2989618698   -0.6066893848    0.0780104952
 O   -1.9202707182   -0.5590689562   -1.2218619606
 C   -1.9886403598   -1.9186312403   -1.5861311638
 C   -2.4360704918   -2.7817913049   -0.3736617014
 N   -1.6215747809   -3.9222721254   -0.9307210132
 C   -0.7435861012   -2.7045166061   -1.0916893110
 C   -1.1882588695   -2.1076541010    0.2858606483
 H    1.0080528819    1.6928780494   -0.0973444916
 H   -0.4346065323    1.5995611030   -1.1470111600
 H   -0.6208530242    1.8880086056    0.6058081242
 H   -1.9562592809   -0.0743363184    0.7832771954
 H   -2.4030168833   -2.0641472708   -2.5803988604
 H   -3.4365838781   -2.9164555368    0.0393509799
 H   -1.2656842212   -4.4862560225   -0.1541996659
 H    0.2576618836   -2.7466991372   -1.5186192650
 H   -0.7712163179   -2.4872440843    1.2180104310