16

 C   -0.1679291648    1.4865068084   -0.0490582704
 C    1.3880092036    1.7417020697    0.0960068003
 C    2.2006078909    1.7115532999    1.4313134452
 O    3.0274097816    0.4840400838    1.3458469553
 C    2.2086977818   -0.3698516716    0.6570836608
 C    1.4088059696   -1.4553801468    0.9780345273
 C    0.1171235973   -1.1923795115    0.3792606592
 C    0.2024082122   -0.0045335322   -0.3297904293
 N    1.5627718756    0.3426084496   -0.3050671575
 H   -0.7492185848    1.6131189844    0.8670188073
 H   -0.6296895796    2.0622371468   -0.8539623020
 H    1.7983180859    2.4691917174   -0.6090990343
 H    2.8865939537    2.5514742322    1.5474838582
 H    1.5565356620    1.6319385431    2.3146188309
 H    1.6532605680   -2.2794740532    1.6306543979
 H   -0.7677827530   -1.7840685900    0.5706332211