17

 N    0.0195545311    1.2723692226   -0.3579125665
 C   -0.1296956348   -0.0679743870    0.1789606404
 C    0.8831194834   -0.4526418921    1.2547330045
 O    1.7466458226    0.2712951528    1.6798610532
 O    0.6677210537   -1.7180193933    1.6779734966
 C    1.5470999979   -2.2087894753    2.6765733271
 C    1.3367504074   -3.6346735215    3.0625029654
 C    2.5642352329   -3.2302178410    2.2672600104
 H   -0.0157444917    1.9395982938    0.4081800993
 H    0.9557342262    1.3722468521   -0.7411407340
 H   -1.1329835650   -0.1915679724    0.6036782834
 H   -0.0601390440   -0.8054505993   -0.6292344244
 H    1.8057902905   -1.4639996111    3.4183077739
 H    1.4482392618   -3.9055648253    4.1061516714
 H    0.5610464319   -4.1752161305    2.5323354965
 H    2.5859210561   -3.5088200768    1.2199602182
 H    3.5315100198   -3.2141821057    2.7563639047