23

 C   -0.0724785428    1.5591980738   -0.0168254121
 C    0.0333573698    0.0392385463    0.0293135340
 C    1.1130615483   -0.6063725413   -0.8999984904
 C    1.4732589119   -1.5804829256    0.2551417781
 C    0.8035051819   -0.5790892491    1.2377601074
 C    0.7745617885   -2.9385129484    0.1205516650
 O   -0.4876596476   -2.9000274215   -0.5230951314
 C   -1.4603898000   -2.1040387172    0.1308111305
 C   -1.3520561996   -0.6023804003   -0.1748643239
 H    0.9129746361    2.0266719437    0.0834424494
 H   -0.5068421281    1.8981468297   -0.9651579480
 H   -0.7077466727    1.9395213034    0.7920240813
 H    0.7660003750   -1.0522737020   -1.8349163139
 H    1.9257034313    0.0945067121   -1.1111565626
 H    2.5382034404   -1.7626580826    0.4299862404
 H    1.5349611148    0.1276099849    1.6410259809
 H    0.2228208398   -0.9825623524    2.0735346707
 H    1.3840392016   -3.6031778966   -0.5010180575
 H    0.6779595915   -3.4059251896    1.1162457586
 H   -2.4334630988   -2.4683247359   -0.2161812698
 H   -1.4194766220   -2.2796996910    1.2174206472
 H   -2.0871249879   -0.0906121673    0.4620586617
 H   -1.6642534712   -0.4274716529   -1.2127693855