21

 C   -0.0038180378    1.3971999198    0.0097688431
 O    0.0166290160   -0.0166451026   -0.0367372865
 C   -1.2371937601   -0.5949870908   -0.0055243574
 C   -2.1428753896   -0.5458956837    1.2633963089
 C   -2.6647976039   -1.8981912287    0.7821172536
 C   -2.7251561581   -1.8500740301   -0.7587994104
 C   -2.2395213851   -0.4689558707   -1.1939398372
 C   -1.4315581393   -2.1688066034   -0.0470234748
 C   -0.4625412634   -3.3009254788   -0.1203529560
 H    1.0346483775    1.7340528207   -0.0203282069
 H   -0.5417953636    1.8248489286   -0.8484057738
 H   -0.4714811268    1.7672214565    0.9334176821
 H   -1.5438504870   -0.6508413696    2.1725911389
 H   -2.8450776006    0.2895175633    1.3681670963
 H   -3.2541106521   -2.6176804680    1.3366081398
 H   -3.3576962024   -2.5350727406   -1.3093262368
 H   -2.9458521292    0.3695479793   -1.1908981095
 H   -1.7138635250   -0.5152886836   -2.1520629309
 H    0.1487826955   -3.2498662456   -1.0284407156
 H    0.2199023099   -3.3032134767    0.7370879386
 H   -0.9912017350   -4.2605058455   -0.1280494254