16

 C    0.0187795103    1.4665369052   -0.1026046898
 C    0.0868159812   -0.0481416492   -0.1063835678
 C    1.4543611942   -0.7116688242   -0.1644795356
 C    0.6729198674   -0.7491558288    1.1096448155
 C   -1.0000040919   -0.8346182445   -0.7955941533
 N   -1.9972579008   -0.1045972652   -1.3767219782
 O   -1.0006424375   -2.0542414980   -0.8266261498
 H    0.8700799782    1.8858972829    0.4409326229
 H    0.0528598448    1.8807015233   -1.1179485307
 H   -0.8899429280    1.8332607502    0.3895755513
 H    1.5163623066   -1.6305402119   -0.7345343911
 H    2.3156816843   -0.0558432759   -0.2315133816
 H    0.9867293644   -0.1193246660    1.9350260475
 H    0.2169448106   -1.6926204977    1.3834653446
 H   -1.9847936111    0.8971246907   -1.4293349281
 H   -2.7069677929   -0.6091161907   -1.8813310555