13

 O    0.0939525414    1.3017339967    0.0868201726
 C    0.0562097229   -0.0398552847   -0.0205909200
 C    0.0247573630   -0.8667804141   -1.1332200559
 C   -0.0083157010   -2.2131510521   -0.6227989473
 C    0.0042820992   -2.1450431514    0.7404311599
 N    0.0439894692   -0.8026512855    1.1001317952
 C    0.0276065196   -0.3864699138   -2.4580741495
 C    0.0318356225    0.0800401525   -3.5717694753
 H    0.0967010758    1.6580522205   -0.8114454293
 H   -0.0376707768   -3.1101543274   -1.2201492252
 H   -0.0109344462   -2.9142225384    1.4937007225
 H    0.0613025758   -0.4336213589    2.0349149665
 H    0.0350220245    0.4685333765   -4.5593992742