18

 C    1.0611148691    1.1001190005    0.2193332872
 N    0.6573676369   -0.0372199216   -0.6248175905
 C   -0.2839538589    0.4900796508    0.3781031982
 C   -0.5884058903   -0.4373289907    1.4870345347
 O   -1.0112202501    0.0765074966    2.7556407440
 C   -0.7731769401   -1.2619972011    3.2788672346
 C   -1.9161997018   -2.1049013338    2.6566448808
 C   -1.2009841889   -1.8470057933    1.3311868668
 C    0.1337030544   -1.6156524574    2.0396683657
 H    1.8366269296    0.8738244411    0.9443877033
 H    1.1222917633    2.0881579910   -0.2283987535
 H    0.3923937213    0.2903179966   -1.5494549762
 H   -1.1329128829    1.0733105090    0.0249125505
 H   -0.5203277050   -1.2750354891    4.3368185361
 H   -1.8495301693   -3.1563325531    2.9486993347
 H   -2.9327972696   -1.7261666049    2.8031793883
 H   -1.3632793084   -2.2979124497    0.3612005752
 H    1.1247709009   -2.0216264408    1.8971440503