19

 O    0.0302556873    1.4953854022   -0.0874951850
 C    0.0257009581    0.0945537963    0.0172743169
 C    0.2570046032   -0.6387177906    1.3567746657
 C   -0.4107420390    0.0652533736    2.5500700217
 C   -1.9119312644    0.2619419926    2.3152563776
 C   -2.4693846002    1.3168996492    1.3921076146
 C   -2.4097137337   -0.1247188179    0.9382728041
 C   -1.3119362529   -0.6843702067    0.0560059108
 O   -0.5973678322   -1.6993314504    0.8454447606
 H    0.9225170042    1.7803794650   -0.3046361663
 H    0.6571374944   -0.3612691909   -0.7537294017
 H    1.2613195588   -1.0011889429    1.5960982412
 H   -0.2692330945   -0.5633105336    3.4351091142
 H    0.1054575179    1.0136882659    2.7442703013
 H   -2.5404797557   -0.0117072836    3.1557993257
 H   -3.4550949887    1.7021040044    1.6326512819
 H   -1.7979105635    2.0346154547    0.9453053650
 H   -3.3470240319   -0.6676105895    0.8681848147
 H   -1.6858734171   -1.0944081780   -0.8850180632