18

 C   -0.0150487964    1.5246230110   -0.1215897977
 C    1.3069870864    0.8126726860    0.0210665170
 C   -0.0089077780    0.0125432979   -0.0345020721
 C    0.3151615292   -0.7148699414   -1.3210092190
 C    0.0632011987   -1.7140886313   -2.4819651263
 C    1.4903173317   -1.1302713338   -2.7768017579
 C    1.8410421745   -1.0622601734   -1.2756275831
 N    2.1192198008    0.4362898462   -1.1808208416
 C    1.0705464745    0.2647506763   -2.2563840102
 H   -0.3585071544    2.0645990279    0.7560407119
 H   -0.2850717249    2.0057548582   -1.0545896526
 H    1.8749682529    0.9193712812    0.9371633684
 H   -0.4004114177   -0.5028031646    0.8334173236
 H    0.0112271300   -2.7758536533   -2.2236916975
 H   -0.7236992543   -1.4545032770   -3.1961022729
 H    2.1512114556   -1.3549462314   -3.6125270599
 H    2.3374867449   -1.7986819776   -0.6415812771
 H    0.6642665864    1.0933648489   -2.8365997530