20

 O   -0.0132358675    1.4009925783   -0.0417287681
 C    0.0123933717   -0.0248449112    0.1083984306
 C   -1.4217495823   -0.5314247134    0.0678262398
 C   -2.2703401365    0.0494525263    1.2058680743
 O   -2.5750392229    1.4181206021    1.0365792181
 C   -2.1669563082   -0.4386167600   -1.3183324675
 C   -2.3015096955   -1.9629114240   -1.3040976245
 N   -0.9186796078   -2.5040969539   -1.2759503289
 C   -1.5663284520   -2.0647721176   -0.0152380852
 H    0.8865883137    1.7343758885    0.0157788927
 H    0.5891543419   -0.4920162412   -0.6978537851
 H    0.4730581228   -0.3015809796    1.0705917358
 H   -3.2292526751   -0.4812752531    1.2536495008
 H   -1.7526259577   -0.1351134221    2.1647386558
 H   -1.7433969845    1.8493666522    0.7956837171
 H   -3.1100913503    0.1017702493   -1.2282030923
 H   -1.5894828509   -0.0323775277   -2.1516548408
 H   -3.1170335682   -2.5665825147   -1.6829546547
 H   -0.9934670095   -3.5209502798   -1.3055746905
 H   -1.6901790612   -2.7516754085    0.8145953925