21

 C    0.0019231458    1.4767274618    0.0197205095
 C   -0.0348847216   -0.0589789321    0.0528309992
 C    0.7022893076   -0.5866867810    1.2932115329
 C   -1.4870693515   -0.5734644738   -0.0683275765
 O   -2.1330171694   -0.0346213250   -1.2104142156
 C   -1.6928951104   -2.1176011214    0.0373743877
 C   -2.3414580047   -1.9661126306    1.4491934415
 C   -2.3573927255   -0.4528448276    1.2100938573
 O   -2.9430115277    0.4756678152    1.6931054555
 H    1.0332349244    1.8363909308    0.0877151197
 H   -0.4228558054    1.8615464494   -0.9106730920
 H   -0.5585400478    1.9032228609    0.8590749220
 H    0.4811709040   -0.4345636522   -0.8418120848
 H    0.7221417188   -1.6796299970    1.3373849442
 H    1.7408644197   -0.2423111328    1.2857877596
 H    0.2455534309   -0.2164442439    2.2185537080
 H   -2.4946090166    0.8231161761   -0.9583380433
 H   -2.4015265748   -2.4535932486   -0.7201708100
 H   -0.7903112629   -2.7271363968   -0.0139404622
 H   -3.3191109728   -2.4248417399    1.6154758485
 H   -1.6814560798   -2.2472795816    2.2760282086