15

 O   -0.0056128411   -0.0231962368   -0.3747664010
 C   -0.0353735633    1.1434465020   -0.1283247319
 C   -1.1646410909    2.1474032905    0.1884452023
 C   -0.0646774998    3.1443240252    0.6760581935
 C    1.0618574243    2.2321671930    0.1232349677
 O    2.0164656377    1.9752119685    1.1355844512
 C    1.4054785187    2.1707034326    2.4006527231
 C    0.1885223173    3.0827104590    2.1830237866
 O   -0.4461533207    3.6247838566    3.0467440201
 H   -1.6810333759    2.4893942836   -0.7136993053
 H   -1.9135527110    1.8229559821    0.9156320305
 H   -0.1477754142    4.1734606982    0.3292347741
 H    1.5874832715    2.5436274890   -0.7829482154
 H    1.0634067474    1.2210160369    2.8422350368
 H    2.1259017900    2.6256768696    3.0858529077