19

 C    0.1923716735    1.2590949530   -0.3478139704
 C    1.4649757852    1.8868072927    0.2714975018
 C    2.1243949191    0.7116484526    0.9794114021
 C    2.3284316843   -0.5667431148    0.1596676407
 C    3.0334766692   -1.6672991094    0.8773503158
 C    2.3288009048   -2.1224485882    1.9188016600
 C    0.9904385141   -1.4264910155    2.0583889146
 C    1.0658153844   -0.3532338150    0.9938258911
 O   -0.1290762385    0.1149959459    0.4438862224
 H   -0.6739584032    1.9254674922   -0.3457801275
 H    0.3823910519    0.9498595427   -1.3851842917
 H    2.0906953956    2.3621015902   -0.4902258058
 H    1.2040170501    2.6495812272    1.0127828003
 H    2.7748407940    0.8992587202    1.8273608155
 H    2.3593444478   -0.5064490141   -0.9238146391
 H    4.0130634118   -2.0274008979    0.5824692633
 H    2.6532041987   -2.8949114950    2.6062513179
 H    0.1520209860   -2.1092619110    1.8638638504
 H    0.8313195212   -1.0091210857    3.0600320586