17

 C    0.4218032210    1.4825694460   -0.0389828743
 C    0.1167695213    0.0076022728    0.0837479078
 O    0.8993453374   -0.8306128986   -0.8231729602
 C    1.3351109493   -1.6825408240    0.2529064575
 C    2.6271165695   -1.1379408292    0.8842611042
 O    3.8020222283   -1.2526950470    0.7700055484
 O    1.9408332835   -0.3089644761    1.7547030723
 C    0.6306278946   -0.7968434101    1.3010070690
 C   -0.2610646892   -1.1962429477    2.4393963696
 H    1.4652644422    1.6911379359    0.2051300776
 H    0.2254387704    1.8155228191   -1.0623793348
 H   -0.2201557240    2.0595875981    0.6351157845
 H   -0.9506235306   -0.1899784115   -0.0850977007
 H    1.2131520783   -2.7497613999    0.0662717527
 H   -0.5242151315   -0.3210728734    3.0428674973
 H   -1.1856395849   -1.6434064812    2.0634423978
 H    0.2388245144   -1.9182152833    3.0908471912