21

 C   -0.3467338692    1.4061338234    0.0281624333
 C    0.2316511398   -0.0026852707   -0.1551141867
 C    0.7993267061   -0.6137218104    1.1278031018
 C    2.0292389047    0.1235455494    1.6477630481
 O   -0.1990898957   -0.6787908025    2.2240351463
 C    0.1161415722   -2.0591729570    2.4516595082
 C   -0.3614551386   -2.8553715974    1.2936644496
 O   -1.5202899453   -2.5175651172    0.5978869779
 C    0.9784180403   -2.1363813901    1.1945400449
 H    0.4203543784    2.1386499647    0.2965645523
 H   -0.8181863925    1.7488137282   -0.8976073225
 H   -1.1054035889    1.4126812240    0.8166403595
 H   -0.5358166390   -0.6709526854   -0.5508572212
 H    1.0387256484    0.0152139524   -0.8988359972
 H    1.7900884089    1.1647576907    1.8779752042
 H    2.4043487647   -0.3505957869    2.5583986890
 H    2.8272576099    0.1097197496    0.8972436832
 H    0.2495364395   -2.3825838414    3.4784240062
 H   -0.2512820057   -3.9325559418    1.3896643983
 H   -1.8156770120   -1.6776944802    0.9752062446
 H    1.9101601541   -2.6575263215    1.0122899703