19

 C    0.0041397829    1.3578117390   -0.7226495091
 C   -0.0051686175   -0.0063090921   -0.0634531708
 C    1.2117723508   -0.8553844435   -0.1285822572
 N    0.8071920129   -0.2197924889    1.1418166551
 C   -1.3703523148   -0.6709689369   -0.0073050701
 C   -1.6816690068   -1.6868483157    1.0798890430
 C   -2.3068194560   -0.3281423503    1.1457570341
 C   -1.9722015972   -0.8912803368   -1.2988547308
 N   -2.4408327901   -1.0588751804   -2.3437573680
 H    1.0200331824    1.7621518215   -0.7691303580
 H   -0.3853291412    1.3030093230   -1.7439467558
 H   -0.6222108877    2.0631774237   -0.1650193436
 H    1.1183242368   -1.9373313294   -0.1427676172
 H    2.0795135251   -0.4654323396   -0.6532724647
 H    1.3774910221    0.6020397276    1.3235144753
 H   -2.3046404683   -2.5292164528    0.8047512351
 H   -0.8677443323   -1.8946363053    1.7633692185
 H   -1.9102310553    0.3696413672    1.8744800859
 H   -3.3625575458   -0.2240083302    0.9269123780