16

 C    0.1714328734    1.3882427397    0.0497983084
 O   -0.1694151703    0.0399289051    0.3568659130
 C    0.7369714017   -0.5708122672    1.2110803589
 C    0.3739041707   -2.0729870591    1.4789376428
 N    1.7424048764   -2.4070021179    1.0646511520
 C    2.0343843035   -1.1292730689    0.5907763056
 N    2.9377516198   -0.5809556168   -0.0976101137
 C    0.0190682618   -2.4645897835    2.8415602524
 N   -0.2692868899   -2.7749501465    3.9164562250
 H    1.1415980384    1.4464031092   -0.4546411324
 H   -0.6134259426    1.7638610149   -0.6090867326
 H    0.2012033832    2.0020382104    0.9619186168
 H    0.9072925522    0.0079231263    2.1294778085
 H   -0.4075814298   -2.3947026484    0.7825787848
 H    2.0568799253   -3.2967658915    0.7043594567
 H    3.6403357962   -1.2462320460   -0.4252420660