16

 O   -0.3621794035    0.3301660852   -0.5561980623
 C    0.0938139059    0.9890461461    0.3407485896
 C    1.2358878990    1.9660903735    0.1721036881
 C    1.1622218859    3.1165730128   -0.9067361791
 C    0.0037304511    3.2587491572   -1.7643802479
 C   -0.9672364286    3.3896302587   -2.4608382280
 C    1.2961401283    4.0661405652    0.2957027024
 C    0.2429989685    3.8160518975    1.2897404883
 N    1.4357157173    2.9367865368    1.2971775512
 H   -0.2808303245    0.9047180596    1.3868070678
 H    2.1496053070    1.3783362529    0.0376761854
 H    2.0750075652    3.1065050944   -1.5071792678
 H   -1.8226273562    3.4931594757   -3.0817420078
 H    1.9440447308    4.9351197074    0.3179193139
 H    0.2016897552    4.4649911358    2.1579159002
 H   -0.7196276114    3.4241618712    0.9675984859