18

 C   -0.0363749883    1.3715319514    0.0810057121
 O   -0.0842424360   -0.0314306487   -0.0208541081
 C    0.6727617329   -0.5272046431   -1.1022185079
 C    0.5969319724   -2.0484729309   -1.0744031945
 C    1.3782785555   -2.6784991985   -2.2385333556
 O    2.7355171520   -2.3282854637   -2.2030543942
 C    1.2237113717   -4.1853915724   -2.2209804610
 O    2.1795295035   -4.9217745782   -2.1823777496
 H    0.9924796717    1.7356385592    0.2295911277
 H   -0.4452933464    1.8616210218   -0.8171908592
 H   -0.6411976640    1.6581587380    0.9447445143
 H    0.2773632096   -0.1434665723   -2.0601782049
 H    1.7220821745   -0.2038320562   -1.0298685460
 H    1.0051393521   -2.4110005154   -0.1246309327
 H   -0.4548371506   -2.3554623443   -1.1243510011
 H    0.9204292978   -2.3338344206   -3.1861626687
 H    3.2216788178   -3.1681528524   -2.1877240292
 H    0.1853502537   -4.5746343837   -2.2436176913