18

 C   -0.1592392242    1.5828983304   -0.0138891098
 C    0.0152840814    0.0712885010    0.0165993667
 C    1.2377407599   -0.6007484408   -0.6616824468
 C    2.1479910374   -0.1845050585    0.5509089939
 N    3.1014413029   -1.2443081871    0.8553711106
 C    2.4105546556   -2.4149050501    0.5500839494
 O    2.8365617410   -3.5425028967    0.5045623041
 C    1.0194352010   -1.8692138438    0.2508465771
 C    0.7878818703   -0.6178415271    1.1743615571
 H    0.7643207673    2.1222417456    0.2157922487
 H   -0.4972085826    1.9125328207   -1.0023856355
 H   -0.9158462241    1.8990409638    0.7123887937
 H   -0.9318091027   -0.4264703741   -0.2178054625
 H    1.5050439331   -0.6093917980   -1.7207788994
 H    2.5386877767    0.8231861130    0.6669359149
 H    4.0829553840   -1.1694020142    0.6347634535
 H    0.2186887470   -2.5762431845    0.0460044847
 H    0.5436413360   -0.6447665096    2.2381143997