18

 C   -0.8259776579    1.2987503696   -0.0052141285
 C    0.0416525069    0.0624591815   -0.0458051696
 O    1.3006676525    0.2778362563   -0.7434836437
 C    2.0217137609   -0.4970754519    0.2247236283
 C    3.2816393374    0.1154460529    0.6359833125
 N    4.2702914031    0.5868827906    1.0058562719
 C    0.7925405190   -0.4597294373    1.2093347915
 C    0.9325015166    0.5002602144    2.3778677589
 O    0.3076096913   -1.7156011734    1.6037632322
 H   -0.3051714100    2.1450581017    0.4490861566
 H   -1.1114422735    1.5813972278   -1.0230331832
 H   -1.7430392047    1.0993788621    0.5586642538
 H   -0.5018775337   -0.7756072551   -0.5029768230
 H    2.2086252276   -1.5226718329   -0.1200900655
 H    1.3077619788    1.4749520378    2.0586824386
 H   -0.0348252146    0.6375631227    2.8694081846
 H    1.6459650882    0.1051700851    3.1105801335
 H    0.6643902220   -1.9303210920    2.4723149214