18

 O    0.3257887939    0.1775732058   -0.9755631644
 C    0.1701518175    1.2261223366   -0.3873131861
 N    1.0879001660    1.8133518724    0.4285694488
 C    2.4035140911    1.2370727821    0.6901209082
 C    3.5190006607    2.1601211311    0.3062374261
 C    4.4728251555    2.6650837126    1.0843137178
 C    5.4043999663    3.5178302688    0.2728055627
 O    4.8581441505    3.5175656435   -1.0435410370
 C    3.7376004844    2.6417838252   -1.1077714280
 H   -0.7581470310    1.8268145981   -0.4564908578
 H    0.8541725980    2.6940612487    0.8594033206
 H    2.4925055714    0.9617294312    1.7474003042
 H    2.4344739236    0.3141640776    0.1015312343
 H    4.5971037294    2.4916423183    2.1465248526
 H    5.4682032071    4.5522253064    0.6448129132
 H    6.4317384453    3.1171540984    0.2611390837
 H    3.9405065892    1.8029958034   -1.7943337915
 H    2.8689076108    3.1823268097   -1.5113805875