18

 C   -0.0674520171    1.5522382045    0.0077566611
 C   -0.0590301673    0.0260973119   -0.0042500147
 C   -1.4357959233   -0.5646834953    0.2967957637
 C    0.7484028566   -0.6208360304   -1.2121704275
 N    1.7428411953   -1.0548222835   -0.2413263860
 C    1.0632347321   -0.6069036354    0.8689803661
 O    1.2671766151   -0.6934132772    2.0484912179
 C    0.0643432488   -1.7208735069   -1.9832889196
 O    0.3042477417   -2.8935065794   -1.8477144549
 H    0.9232409446    1.9615614927   -0.2121012624
 H   -0.7752487039    1.9482384670   -0.7285738581
 H   -0.3697391501    1.9145336412    0.9952141972
 H   -2.1903721559   -0.1970206906   -0.4067815076
 H   -1.4304156789   -1.6579372502    0.2597117050
 H   -1.7410943728   -0.2696240684    1.3049557620
 H    1.1117426601    0.1293767852   -1.9287461005
 H    2.4304314551   -1.7896778387   -0.3273542390
 H   -0.6896548301   -1.3612974063   -2.7194842927