20

 C   -0.2054031794    1.4567746835    0.0303821729
 N   -0.1645026714    0.0211547927    0.2310400972
 C    0.7800085871   -0.5898103151    1.0017456029
 O    1.6412060974    0.0235447246    1.6104128877
 C    0.6973314474   -2.1164491951    1.0192235032
 C    1.2876711708   -2.7120214384    2.3150426894
 C    0.4313786395   -2.3680017305    3.5498248044
 C    1.4617438753   -4.1564651046    2.1771572215
 C    1.5814509939   -5.3472031915    2.0594659850
 H    0.5892389283    1.8907522584    0.6380557974
 H   -0.0366361694    1.7209699513   -1.0198208125
 H   -1.1676589619    1.8742529426    0.3462384691
 H   -0.8423122432   -0.5530748186   -0.2418170067
 H   -0.3352425270   -2.4574581854    0.8805608484
 H    1.2682976826   -2.4863342559    0.1593634379
 H    2.2705971815   -2.2452277840    2.4485352112
 H   -0.5797309913   -2.7754254952    3.4478911010
 H    0.8749966625   -2.7908392255    4.4545301102
 H    0.3701330424   -1.2836286004    3.6691795059
 H    1.7050525749   -6.3972866431    1.9634751839