22

 C    0.0981854731    1.3674037239    0.2302141200
 C   -0.0199547449   -0.1325553823    0.0160631088
 O    0.7155272460   -0.4764355842   -1.1449436440
 C    0.8254841046   -1.8725465013   -1.4108662904
 C   -0.4645374732   -2.4627965812   -1.9810251466
 C    1.9887086261   -2.0141678023   -2.3933608541
 N    3.1996356154   -1.4192434818   -1.8639663020
 C    4.3765554019   -2.0860051529   -1.7561679480
 O    4.5790425358   -3.2231755069   -2.1300325986
 H    1.1435620777    1.6576965792    0.3710709482
 H   -0.2941992534    1.9100765766   -0.6344470848
 H   -0.4674728177    1.6711727631    1.1160118908
 H    0.3741970262   -0.6818040901    0.8870393769
 H   -1.0776862154   -0.4153994305   -0.0932936577
 H    1.0915014959   -2.3937742817   -0.4764634058
 H   -1.2935266055   -2.3777527097   -1.2736035894
 H   -0.7457811236   -1.9445065080   -2.9031646892
 H   -0.3293965765   -3.5253728387   -2.2063804196
 H    2.2044971827   -3.0656915347   -2.5916130631
 H    1.7112678337   -1.5355331006   -3.3420308932
 H    3.1135252294   -0.4933958462   -1.4753172010
 H    5.1581026216   -1.4599377397   -1.2807274771