14

 C   -0.0903217745    1.0435989344    0.9849022816
 C    0.2412355537    0.3086987721   -0.3118154871
 N    1.0643076705   -0.8648611141   -0.0286513190
 C    1.9240779080   -1.2274829942   -0.8513871128
 O    2.7521872554   -2.3216088444   -0.6516310793
 C    3.5388804957   -2.3615858341   -1.7420136285
 N    3.3325519619   -1.4574035124   -2.6187003872
 O    2.2645205787   -0.6943761181   -2.0698667049
 H   -0.5928830596    0.3730319772    1.6874672387
 H    0.8203049448    1.4141450734    1.4650154574
 H   -0.7457499947    1.8970051033    0.7850753628
 H   -0.6883723295   -0.0313289977   -0.7874562737
 H    0.7284713896    0.9909025010   -1.0213553582
 H    4.2838995300   -3.1385389063   -1.8129459795