17

 C   -0.1476002590    1.3727013709   -0.0685734729
 O   -0.2703545039   -0.0216399201   -0.2367868051
 C    0.7985953555   -0.5840997299   -0.9567005096
 C    0.6394815532   -2.0903732330   -0.9599940819
 C   -0.3559634660   -2.7094386110   -1.9279123081
 C    1.1113913063   -2.8707632818   -2.1795997262
 C    0.7940315442   -2.7223587444    0.3270507377
 N    0.9322328458   -3.2348401573    1.3547863593
 H    0.7693510449    1.6370428285    0.4801819489
 H   -0.1359579964    1.9012596794   -1.0349916510
 H   -1.0137310527    1.7064953256    0.5065734458
 H    0.8072082663   -0.2212421285   -1.9988856313
 H    1.7641678075   -0.3063450915   -0.5033637092
 H   -0.9170870706   -3.5695350202   -1.5842992374
 H   -0.9185437579   -2.0136572754   -2.5395090412
 H    1.5720977832   -2.2951162986   -2.9746988232
 H    1.5621261095   -3.8394072927   -2.0020031346