18

 C   -0.0496701064    1.5031588970   -0.0192809431
 C   -0.0236226658   -0.0050036611    0.0142951935
 C   -0.8406429669   -0.7917678815    0.9909582938
 C    0.6827426680   -0.7947194765    1.1102086675
 C    1.5014586917   -1.8743550171    0.4547008331
 O    2.3758197968   -2.5189335811    0.9803166938
 C    1.2044652862   -1.8726592328   -1.0359567751
 N   -0.2272566162   -2.1067037601   -1.3764045652
 C    0.2905360517   -0.7318216962   -1.3010205762
 H    0.8802203072    1.9111713390   -0.4319396043
 H   -0.8789600606    1.8704339776   -0.6354414259
 H   -0.1761589231    1.9142333930    0.9865510314
 H   -1.3523807834   -0.2363709127    1.7702641305
 H   -1.3401045473   -1.6881340455    0.6498168856
 H    1.1224481282   -0.3275987242    1.9839703045
 H    1.9776333771   -2.2196918656   -1.7118636568
 H   -0.2741084273   -2.4030902130   -2.3489918646
 H    0.3602440602   -0.1403160192   -2.2078084724