17

 C   -0.5623678296    1.3167969675    0.0353883086
 C    0.1928487686    0.0066764644   -0.0531224618
 N    1.5556388565    0.0564179478   -0.6390062850
 C    2.0186319885   -1.0072710538    0.2765432259
 C    0.8434877380   -0.6153511207    1.2389800955
 N    1.1333974588    0.3861742267    2.2552741092
 C    0.1221209374   -1.7321088405    1.8424759841
 N   -0.4335975812   -2.6353330229    2.3020852912
 H    0.0225986512    2.0866660868    0.5421487308
 H   -0.8012245786    1.6757129655   -0.9715538062
 H   -1.5019127029    1.1816456375    0.5796361468
 H   -0.4412010164   -0.7598709124   -0.5229258910
 H    1.6143959666   -0.1617405265   -1.6278861832
 H    1.9142000973   -2.0301732374   -0.1094609664
 H    3.0283708028   -0.8695487579    0.6776227671
 H    1.6580956860   -0.0325007077    3.0176914954
 H    1.7216682269    1.1053209734    1.8441179289