20

 N    0.0400964957   -1.1097949322    0.0159343798
 C    0.0135162427    0.0462977421    0.0124831204
 C   -0.0173133446    1.4991503894    0.0126689336
 C   -0.8117926708    2.1143056729    1.2016993761
 C   -1.1119935245    3.5635333062    0.7058774375
 C   -0.4541878963    3.6072020866   -0.6917439488
 C    1.0809088105    3.6102212660   -0.5144187198
 C    1.3911423484    2.1611793646   -0.0242613007
 C   -0.7082510065    2.1753839438   -1.2030526376
 H   -1.7309448442    1.5500998823    1.3769979932
 H   -0.2276928278    2.0842812182    2.1246333931
 H   -2.1901054007    3.7332855790    0.6351982149
 H   -0.7048162102    4.3275034345    1.3738676542
 H   -0.8262143741    4.4106356720   -1.3295411626
 H    1.5830824667    3.8137000737   -1.4644454220
 H    1.4090957243    4.3724638386    0.1975757859
 H    1.8686892869    2.1288241921    0.9579715431
 H    2.0423108852    1.6304221735   -0.7229596595
 H   -0.2104170964    1.9478159957   -2.1494791488
 H   -1.7670041541    1.9146932011   -1.2832484019