12

 C    0.0247697978    1.4180204860    0.0034541676
 N    0.0500353054   -0.0336097815   -0.0194195375
 C   -1.0743352360   -0.6218891347   -0.0317904711
 N   -2.3936090225   -0.1797645906   -0.0287771759
 N   -3.2852825680   -1.2174010735   -0.0469427908
 N   -2.6246559535   -2.2962083008   -0.0618690882
 N   -1.3029305965   -1.9897283268   -0.0540366888
 H    1.0498039717    1.7961277273    0.0196882546
 H   -0.4673344840    1.8511751282   -0.8835237669
 H   -0.4852326283    1.8234833599    0.8934864109
 H   -2.7315541033    0.7651993696   -0.0148163438
 H   -0.6074926028   -2.7149682330   -0.0619165103