18

 C   -0.2257617966    1.2824950464   -0.0206717423
 O    0.2268721469   -0.0422047860    0.1571470957
 C    0.7129806570   -0.6256097767   -1.0129221006
 C    1.2923000505   -2.0099140205   -0.8963333389
 C    0.2749969457   -3.1164217453   -1.0102400967
 C   -1.1648237129   -2.8274887669   -0.7674771811
 C   -1.4998730293   -1.7495574137   -1.4769452666
 C   -0.2532062012   -1.2179764165   -2.1247183326
 N    0.7059946633   -2.4105107279   -2.2368672122
 H    0.5660239476    1.9311318454   -0.4267647000
 H   -1.0931154684    1.3338746485   -0.6959914255
 H   -0.5231210095    1.6592389940    0.9604864686
 H    1.4419778063    0.0333420512   -1.5064905239
 H    2.3227387853   -2.2261223748   -0.6320252520
 H    0.6646618343   -4.1240288719   -0.8994807226
 H   -1.7920429703   -3.4068641780   -0.1035639636
 H   -2.4533679329   -1.2379229050   -1.4807240777
 H   -0.3627259258   -0.6486548425   -3.0464234879