14

 N   -0.0308282428    1.4348652924    0.2651437358
 C   -0.0178541898    0.0446682357    0.0807364926
 C   -1.0629512974   -0.8103065181   -0.1001514330
 O   -2.3665652716   -0.5252351409   -0.2783711728
 C   -3.3095861932   -1.3908689894    0.2220368531
 N   -4.5175243535   -1.1501890560   -0.0190885955
 O   -0.6541922452   -2.0903150806   -0.1419858380
 N    0.7366969484   -2.1100223536    0.0127106593
 C    1.0852024162   -0.8513915516    0.1456833166
 H    0.6367133667    1.9124022829   -0.3288820716
 H   -0.9515121589    1.8221422281    0.0958521481
 H   -2.8743821925   -2.2150862139    0.7910962610
 H   -5.1091525558   -1.8557326961    0.4150906765
 H    2.1299351396   -0.6113055289    0.2886269678