14

 N   -0.1475563470    0.9587832446   -0.6971373513
 H    0.0734251988    0.0269815777   -0.3651960073
 H    0.6994096300    1.5034918258   -0.7850773495
 C   -1.1199258569    1.6135362518    0.0625411868
 C   -1.0347419998    2.8903059774    0.5244370739
 H   -0.1221025554    3.4569983857    0.3803492101
 C   -2.1316873035    3.5378084535    1.2363570940
 O   -2.0796772487    4.6901946306    1.6573211746
 C   -3.3064046087    2.6718723135    1.4262684077
 C   -3.3339630646    1.4110800481    0.9521370633
 N   -2.2568342674    0.8724502766    0.2842530350
 H   -4.1554542254    3.0773940892    1.9618796051
 H   -4.1814842286    0.7452324592    1.0636630564
 H   -2.3614867628   -0.0008692837   -0.2054877288