20

 C    0.0300806521    1.6135629131   -0.0508889188
 C    0.0233770298    0.0870871680    0.0676882073
 C   -1.3937024490   -0.5335682978    0.0487228307
 C   -1.3620029036   -2.0605695458   -0.0944094232
 N   -0.8685212328   -2.6795928516    1.1320261481
 C   -1.3720018134   -2.2260073410    2.3132866391
 C   -2.0285112060   -1.0450028417    2.4448293887
 C   -2.1630237872   -0.1281156842    1.3213237250
 O   -2.7674478170    0.9309179005    1.3797766907
 H    1.0532982247    1.9996856418   -0.0053397596
 H   -0.4076193846    1.9347018314   -1.0023764582
 H   -0.5523103845    2.0784601945    0.7478040413
 H    0.5949937054   -0.3464433528   -0.7638220619
 H    0.5390495336   -0.2201252228    0.9853758988
 H   -1.9439209049   -0.1212405502   -0.8035115985
 H   -2.3794164832   -2.4254129978   -0.3110149446
 H   -0.7137636680   -2.3574146422   -0.9249797323
 H   -0.6191373064   -3.6539055863    1.0835158106
 H   -1.1978284331   -2.8738074059    3.1680185901
 H   -2.4127860518   -0.7348084792    3.4078847869