20

 C   -0.0152257779    1.4700339844    0.0758024750
 C   -0.0757601082   -0.0448793896   -0.0862245332
 N    0.7858093695   -0.4782218255   -1.1801123062
 C    0.8856357498   -1.8382388586   -1.4421120656
 N    0.4463053423   -2.7531420016   -0.5812152107
 N    0.7861942142   -3.9346280054   -1.1593321896
 C    1.4053656255   -3.7777307716   -2.3516959163
 C    1.4997390575   -2.4233868709   -2.5883840601
 C    2.1111846619   -1.7104482182   -3.7523686123
 H    1.0096405822    1.8017465735    0.2671860286
 H   -0.3735802845    1.9820180582   -0.8256691287
 H   -0.6461637588    1.7923132461    0.9090612525
 H    0.2736954114   -0.5414577705    0.8240518143
 H   -1.1175765199   -0.3742111400   -0.2309516284
 H    0.6683113905    0.0728631265   -2.0198238582
 H    0.5589983296   -4.7893397770   -0.6846990998
 H    1.7370737589   -4.6218511655   -2.9371106042
 H    1.3696931855   -1.1372333147   -4.3254017372
 H    2.8827741828   -1.0004667269   -3.4304241130
 H    2.5783317777   -2.4143396826   -4.4467932169