22

 C    0.0451369982    1.5181397454   -0.0243972397
 C    0.0039676112    0.0046397235    0.0266621642
 C   -1.2208447936   -0.6350251387   -0.6360760441
 C   -1.8409946317   -1.7893100559    0.1666906746
 C   -0.7693045349   -2.7407719117    0.7049828425
 C    0.1514173547   -2.0132630149    1.6931149491
 O    1.2825366978   -2.8031887521    2.0516445406
 C    0.6812633905   -0.7025165995    1.1563004947
 N    1.3240701237   -0.6298087462   -0.1658016099
 H    0.9774864505    1.8924126017    0.4052281784
 H   -0.0136413181    1.8716246320   -1.0604705577
 H   -0.7962935485    1.9527976234    0.5273620028
 H   -1.9797017519    0.1371266107   -0.8017990493
 H   -0.9346391242   -0.9897940762   -1.6358690847
 H   -2.4064341922   -1.3787014409    1.0138635477
 H   -2.5627268085   -2.3308799164   -0.4540777997
 H   -1.2302306551   -3.5978956926    1.2111387344
 H   -0.1683424125   -3.1540647640   -0.1155023305
 H   -0.4398732759   -1.7750446545    2.5948237444
 H    0.9586144413   -3.6167217969    2.4522178117
 H    1.1876394977   -0.1039603297    1.9118371951
 H    1.2292223914   -1.5224492964   -0.6450740148