13

 O   -0.0589370239    1.3414937197    0.0114975681
 C    0.0245044869   -0.0112279217    0.0028398323
 C    1.1905239183   -0.6959286413   -0.0082951241
 O    1.2638512411   -2.0457783721   -0.0168979884
 C    0.1091910070   -2.7488412332   -0.0142282316
 C   -1.1150116784   -2.1746014472   -0.0034110042
 O   -2.2777610825   -2.8709489675   -0.0006729767
 C   -1.2714836632   -0.7104062659    0.0064302711
 O   -2.3489466464   -0.1429010100    0.0162229456
 H    0.8255665802    1.7240837233    0.0084130036
 H    2.1738327413   -0.2407981427   -0.0114540553
 H    0.2900574945   -3.8171483647   -0.0217896930
 H   -2.0929600949   -3.8167460569   -0.0075803072