23

 C    0.4284131344    1.3838276350    0.3181690918
 C   -0.0694154503   -0.0637736946    0.1538238158
 C    0.1989528180   -0.8512429723    1.4514189536
 C   -1.5895488103   -0.0430954678   -0.1026035990
 C    0.5909863211   -0.7453329538   -1.0737334741
 C    2.1260372298   -0.6523922106   -1.2116870467
 O    2.8426757531   -1.2230921982   -0.1174039248
 C    2.5543037431   -1.2452722607   -2.4846552592
 C    2.8864797294   -1.7749939596   -3.5117121210
 H    1.4845702241    1.4214212329    0.6021469127
 H    0.3021979108    1.9591374008   -0.6064949275
 H   -0.1379495805    1.8945026857    1.1043375244
 H   -0.3236114008   -0.3854091987    2.2944989094
 H   -0.1679180733   -1.8810302254    1.3664779488
 H    1.2648478455   -0.8885442613    1.6812916924
 H   -1.8384662765    0.5540835990   -0.9869491596
 H   -1.9783717560   -1.0550887664   -0.2619696436
 H   -2.1215685414    0.3872134041    0.7527947135
 H    0.3084701733   -1.8066151670   -1.0957839885
 H    0.1727476841   -0.3043113768   -1.9874863964
 H    2.4202763545    0.4029128221   -1.2056691731
 H    2.7180406332   -2.1781557423   -0.1572770470
 H    3.1947129248   -2.2257722244   -4.4226576817