15

 C    0.0861361790    1.5136721770   -0.1477267172
 C    0.0355788321    0.0673641914    0.0111055702
 C   -0.0100716645   -1.1274556847    0.1416474002
 C   -0.0584650382   -2.5832042757    0.3018993799
 C   -1.4001239070   -3.1509305879    0.1442110209
 C   -2.4991706251   -3.6224363649    0.0157657018
 C   -3.8312377421   -4.1888162752   -0.1404463410
 H    0.7524845480    1.8023130422   -0.9681490672
 H   -0.9062022439    1.9222531348   -0.3683882261
 H    0.4502759114    2.0029587566    0.7624524015
 H    0.6229831600   -3.0522508098   -0.4221403633
 H    0.3378569664   -2.8542109148    1.2908858584
 H   -3.8636315531   -4.9126612965   -0.9622892222
 H   -4.1544378214   -4.7063039069    0.7695939818
 H   -4.5696384317   -3.4090138756   -0.3573287276