15

 C    0.2587586557    1.5100254124   -0.0216413935
 C    0.0515337540    0.0165671239    0.0796150977
 O    0.8647062276   -0.7527024367   -0.8622498467
 C    1.3824007314   -1.5899289160    0.1842183365
 C    2.6772904755   -1.0459594631    0.8025680071
 O    1.9216613940   -0.2163147629    1.7269563625
 C    0.6702901230   -0.7557342798    1.2648714183
 H    1.2832686065    1.7744659201    0.2491835646
 H    0.0596421879    1.8473337114   -1.0432402011
 H   -0.4276584904    2.0348657807    0.6514981697
 H   -1.0069449087   -0.2469571727   -0.0602751320
 H    1.2774285125   -2.6569558327   -0.0186680376
 H    3.2820498739   -1.7847347445    1.3438046540
 H    3.3080898023   -0.4623044717    0.1243926391
 H    0.0292268448   -1.1035245384    2.0767615014