18

 C   -0.2153988792    1.4876865948   -0.0250736599
 N    0.0633179781    0.0601226030    0.0500074379
 C    1.3982819876   -0.5130605483   -0.1913360651
 C    2.5930717514    0.3870664530   -0.0940641627
 C    2.7308204398    0.9054017576    1.1347085872
 C    1.6601034143    0.3738111874    2.0238369371
 O    1.5046328961    0.5973019167    3.2017809142
 C    0.7828441344   -0.5534500376    1.1721400265
 C    0.1564218837   -1.7421285843    1.8525129606
 H    0.6078127239    2.1475266616    0.2798394239
 H   -0.4889507873    1.7309286798   -1.0565007001
 H   -1.0781507689    1.6985803439    0.6133870501
 H    1.4208069973   -1.3666208749   -0.8626763384
 H    3.2247296025    0.6095234120   -0.9470823068
 H    3.4666821338    1.6252430483    1.4699325754
 H   -0.4476784936   -1.4090858116    2.7021033872
 H   -0.4844102478   -2.2837271560    1.1535810007
 H    0.9219292441   -2.4229643854    2.2385752521