14

 O   -0.9309022465    1.1470117706    0.2761924371
 C    0.2072694914    0.8267463280    0.0190406226
 C    1.3402321705    1.7737678533    0.0094416942
 C    1.3155222650    3.0815504734    0.3299262297
 C    2.6786788151    3.6470065681    0.2355370108
 C    3.7310125675    3.0771535552    1.1413138630
 N    3.5669766256    2.5731319028   -0.2316749514
 C    2.7465916511    1.3755313739   -0.2924916819
 O    3.1732743714    0.2781554601   -0.5305140041
 H    0.4803439177   -0.2153247255   -0.2383265277
 H    0.4319965492    3.6487849372    0.5953580173
 H    2.8266561497    4.6346232848   -0.1902901649
 H    4.6397116743    3.6446922514    1.3183703378
 H    3.4040664080    2.4421559466    1.9607649076