20

 C   -0.0694556874    1.5490259663    0.0324642354
 C    0.0231379832    0.0266713591    0.0012376180
 C    0.9947379525   -0.5983390847   -1.0358028186
 C    2.3466038184   -0.1179800655   -0.4568740092
 O    2.1433598427   -0.1343081413    0.9723529259
 C    0.7919405544   -0.6061244426    1.1757754413
 C    0.8305826546   -2.0942401947    0.8178701732
 N   -0.2895095916   -2.5670729133   -0.0294762351
 C    0.9581431794   -2.0859208837   -0.6625364249
 H    0.8849014389    2.0170439733    0.2857739903
 H   -0.3988159578    1.9407489742   -0.9360124601
 H   -0.8016294930    1.8693934227    0.7812260130
 H   -0.9686267601   -0.4122896978   -0.1008223884
 H    0.8278934312   -0.3461149985   -2.0841615964
 H    3.1777412274   -0.7840767347   -0.7192927828
 H    2.6048558573    0.8984859987   -0.7765683877
 H    0.4903135424   -0.3377960129    2.1886598829
 H    1.3693014936   -2.7895107488    1.4512609916
 H   -0.2759263935   -3.5842393908   -0.0360163752
 H    1.5926954775   -2.7892303352   -1.1918734933