23

 C   -0.7008714710    1.3035628746   -0.0370049196
 C    0.0996371860    0.0031828007   -0.0825278748
 C    1.3437313076    0.0440444346   -1.0077614154
 C    2.2525893805   -0.9917614306   -0.3923224597
 C    1.8583630615   -1.3293502413    0.8345186289
 C    0.6364996694   -0.5480297236    1.2813256518
 C    0.9846393413    0.5354158207    2.3229861833
 C    1.5201599669   -0.0310995017    3.6321136186
 O    1.6966324042    1.0546207523    4.5319002612
 H   -0.0971979693    2.1416976337    0.3254103239
 H   -1.0607531541    1.5661143073   -1.0377466048
 H   -1.5772651743    1.2160764626    0.6143539739
 H   -0.5546347927   -0.7822530777   -0.4811131170
 H    1.0880914815   -0.1698724448   -2.0521009335
 H    1.8205234205    1.0359079087   -1.0066144055
 H    3.1288171055   -1.3826061965   -0.8985717528
 H    2.3659213603   -2.0417012316    1.4761199441
 H   -0.1154334420   -1.2084801735    1.7352439878
 H    1.7279116810    1.2304629466    1.9149995786
 H    0.0921344082    1.1252968473    2.5598650379
 H    0.8066743210   -0.7695150421    4.0359531426
 H    2.4714148614   -0.5576327701    3.4592525842
 H    2.0704708668    0.7099984042    5.3479813264