14

 C   -0.0320417289    1.5514360669    0.0215075742
 C   -0.0086177873    0.0511929059    0.0004799996
 C   -0.0363656402   -0.6936777832   -1.1260142000
 O   -0.0153787956   -2.0245964906   -1.1407592919
 C    0.0399625129   -2.7700070558    0.0841025687
 O    0.0552752428   -3.9583742579   -0.0231377852
 N    0.0689493234   -2.0417106653    1.2417523424
 C    0.0463709610   -0.7424470908    1.1971021729
 O    0.0762648876   -0.0711937230    2.3505337874
 H    0.8596872667    1.9564289068    0.5107143415
 H   -0.0752303192    1.9502754601   -0.9954313168
 H   -0.8987063677    1.9280372644    0.5742862312
 H   -0.0785076222   -0.2704126712   -2.1252020879
 H    0.1118558266   -0.7382407562    3.0545030640