19

 C   -0.0345718751    1.5292156461   -0.0686894262
 C    0.0063461082    0.0103521219    0.0100086274
 O    0.8228123571   -0.5014206299   -1.0592059336
 C    1.8719892440   -1.2287533640   -0.3850219998
 O    2.1045773127   -0.4732253251    0.7795839119
 C    0.7492385091   -0.5751053309    1.2764996070
 C    0.5706150634    0.1099911373    2.6072477285
 C    0.5084419177   -2.0833690422    1.1949034035
 C    1.2338677235   -2.5052204514    0.1604068931
 H    0.9639028925    1.9452304576    0.0887727750
 H   -0.3820729993    1.8364245770   -1.0589510732
 H   -0.7205664467    1.9448531383    0.6766219789
 H   -1.0035033405   -0.4096138417   -0.0741267801
 H    2.7472229338   -1.2858092984   -1.0288840384
 H    0.8552956813    1.1631229659    2.5513162178
 H   -0.4744222680    0.0511932082    2.9277327203
 H    1.1896699276   -0.3751445064    3.3667567380
 H   -0.2078231373   -2.6260922705    1.7969521921
 H    1.2687711359   -3.4796164920   -0.3060470821