18

 C   -0.0534052083    1.5181408017   -0.0238323513
 C    0.0641796156    0.0111298436   -0.0074854631
 C    1.4156511852   -0.6691395360   -0.1428810060
 C    0.6752044420   -0.7018480448    1.1668017255
 O    1.1471198987    0.0732919720    2.2386977576
 C    0.0581516231   -2.0087053180    1.6592433428
 O    0.9120240026   -2.6823132039    2.5589188866
 C   -1.2664300542   -1.7558753259    2.2759281145
 N   -2.2949744151   -1.5560528160    2.7627344362
 H    0.7661081718    1.9804740844    0.5311579911
 H   -0.0353508898    1.8976403821   -1.0504274304
 H   -0.9909337472    1.8396869244    0.4402889703
 H   -0.7673546896   -0.5117497197   -0.4748370037
 H    1.5002664859   -1.5826283359   -0.7220319645
 H    2.2866158523   -0.0221305923   -0.1911990604
 H    2.0922757076   -0.0874582421    2.3262100549
 H   -0.0931321620   -2.6835859091    0.8107530103
 H    1.0701339315   -2.0675859943    3.2872575995