17

 O   -0.5770914582    0.6537122688    0.5920400588
 C    0.1640012903    0.9817506603   -0.3013965619
 C    1.2780536280    1.9893555239   -0.1828143895
 C    1.2268900085    3.1579703710   -1.2280709720
 C    1.3944301457    4.3564627850   -0.2680541307
 O    0.1562034824    4.5887017095    0.3902767586
 C    0.1012926144    3.5758567299    1.4162934108
 C    1.3931121661    2.7865352652    1.1396751947
 O    2.2611236404    3.8630397876    0.7355145127
 H    0.0744269165    0.5201662146   -1.3115938724
 H    2.2078541636    1.4263722797   -0.3356664096
 H    2.0429484694    3.0990918059   -1.9513514471
 H    0.2790280703    3.2208007640   -1.7670181952
 H    1.7707036293    5.2863775446   -0.6931915410
 H    0.1301338777    4.0515511327    2.4027403899
 H   -0.8063115840    2.9789621397    1.3209730601
 H    1.8146262295    2.2504121874    1.9868571537