20

 C   -0.0003242867    1.6097598029   -0.0075508277
 C    0.0961599645    0.0888964908   -0.0043313476
 C    0.8110451981   -0.6662769522   -1.1250601797
 C    2.2989588327   -0.7985410476   -0.7350710708
 C    2.4870693679   -0.1291704186    0.6225347627
 C    1.0684150810   -0.6605874113    0.9605235200
 C    1.2655448245   -1.7541007443   -0.1817569856
 C    1.1337688522   -3.2404184283   -0.2052065356
 H    0.9683014151    2.0846933530   -0.1858171578
 H   -0.6805298131    1.9503072696   -0.7965441729
 H   -0.3901719807    1.9829420355    0.9467466884
 H   -0.9049342286   -0.3413621253    0.1215349369
 H    0.5031003216   -0.7797681893   -2.1581394485
 H    3.0471734808   -1.0064505294   -1.4904573952
 H    3.2506293785   -0.6469263396    1.2106598722
 H    2.6642193464    0.9506827979    0.6767707304
 H    0.7787053789   -0.8529776693    1.9926698632
 H    0.1181813268   -3.5625928365    0.0546910461
 H    1.3572187102   -3.6319350829   -1.2040583019
 H    1.8229928500   -3.7213866152    0.4992845134