25

 C   -0.0232597133    1.5822697073    0.0910552974
 C   -0.0836386885    0.0562661115   -0.0230231776
 C    0.6630454295   -0.5476555535   -1.2376071750
 C    0.5719155092   -2.0825068262   -1.1726321597
 C    0.0749522109   -0.0155910936   -2.5586508943
 C    0.7017476851   -0.5912780029   -3.8326653172
 O    0.1839844845    0.0276769297   -5.0034779779
 O    2.0301801278   -0.0993940981   -1.2702438753
 C    2.8987059711   -0.5486370251   -0.2546994345
 H    1.0100781515    1.9361889643    0.0384715669
 H   -0.5852289405    2.0756533365   -0.7072447168
 H   -0.4501419131    1.9131051432    1.0427382210
 H    0.3255762668   -0.3904036747    0.8912447695
 H   -1.1275824625   -0.2769291378   -0.0693114137
 H   -0.4560740002   -2.4052138073   -1.3638748108
 H    1.2205785070   -2.5517496887   -1.9171385326
 H    0.8556208090   -2.4625378452   -0.1868652010
 H   -1.0057107264   -0.1962702755   -2.5761910488
 H    0.2198832358    1.0709618431   -2.5770204297
 H    1.7947485381   -0.5023468974   -3.7761808416
 H    0.4614953278   -1.6530958767   -3.9425168261
 H    0.4422204096    0.9546073328   -4.9792480710
 H    2.5641803230   -0.2622280604    0.7524103221
 H    3.0454008470   -1.6372257054   -0.2734527096
 H    3.8639173810   -0.0701999698   -0.4416847739