21

 C   -0.1432652744    1.4684312508    0.2537147802
 O   -0.0483094031    0.0655907333    0.3329870102
 C   -1.1359452145   -0.5758704925   -0.3052971602
 C   -0.9981014003   -2.0220274264   -0.2094355935
 C   -0.8990583235   -3.2197319679   -0.1542948872
 C   -0.7955955684   -4.6744199502   -0.0481558100
 C   -2.1570310110   -5.3067971696    0.2864023799
 O   -0.2664278050   -5.1731775572   -1.2738160288
 C    0.3540827794   -6.4336204944   -1.1609533621
 H    0.7287482004    1.8806453568    0.7661023453
 H   -0.1433282228    1.8215645954   -0.7900880092
 H   -1.0557134334    1.8467334282    0.7424101455
 H   -2.0897825635   -0.2591027106    0.1527072168
 H   -1.1872306285   -0.2803541397   -1.3681424659
 H   -0.0884499967   -4.9062578807    0.7669660059
 H   -2.8720622446   -5.0906261376   -0.5111499092
 H   -2.0644155193   -6.3910683160    0.3938556031
 H   -2.5428872980   -4.9008237940    1.2253935052
 H    1.1650793670   -6.4223645255   -0.4157005208
 H   -0.3499302303   -7.2347120297   -0.8913482517
 H    0.7805707404   -6.6651795825   -2.1399008633