16

 O   -0.7228069235    0.9502408106    0.7608630345
 C    0.2535678292    0.7643529027    0.0866312166
 C    1.4130343366    1.7531185253    0.0090462538
 O    2.6111139416    1.0475627738   -0.2429870170
 C    3.4419842674    1.7605039201   -1.1688583842
 C    2.7695659909    3.1208791460   -1.3890130753
 C    1.2779984038    2.7930755275   -1.1412728416
 C    0.6471305309    2.2347742220   -2.3404073677
 N    0.1653124063    1.7954451926   -3.2947075895
 H    0.3969528261   -0.1400107916   -0.5408422996
 H    1.4590745982    2.2987113937    0.9620892405
 H    4.4477257319    1.8531134951   -0.7477488370
 H    3.5070171161    1.1875586090   -2.1018524897
 H    3.0967619265    3.8459174186   -0.6388376038
 H    2.9552615978    3.5361732319   -2.3805715604
 H    0.7000519801    3.6610826826   -0.8163735596