21

 C   -0.1313505093    1.4472341778   -0.7448428501
 O   -0.1973786965    0.0608274593   -0.9827486961
 C    0.8038337779   -0.6653041136   -0.3026507865
 C    0.6425485823   -2.1546787458   -0.6291299021
 C   -0.7276410761   -2.6844236226   -0.2261416270
 C    1.0174534182   -2.4413654313   -2.0983366554
 O    2.4154070227   -2.6903372230   -2.0386181199
 C    2.5848920474   -3.3902760887   -0.8345350641
 O    1.6766757515   -2.8414136252    0.1024224355
 H   -0.2642863957    1.6833076601    0.3225194410
 H    0.8305603050    1.8716650209   -1.0722292748
 H   -0.9374844478    1.9166446035   -1.3138885134
 H    1.8085100616   -0.3385273269   -0.6146005406
 H    0.7267911199   -0.5218785324    0.7870944438
 H   -1.5133132213   -2.1450196605   -0.7613253576
 H   -0.8083376034   -3.7519492740   -0.4490906100
 H   -0.8866020461   -2.5448033389    0.8471779227
 H    0.4770999524   -3.3220432153   -2.4779045139
 H    0.8360229660   -1.5912637380   -2.7569781968
 H    2.3740635619   -4.4666961352   -0.9721846533
 H    3.6129679595   -3.2527562001   -0.4844953213