21

 C    0.1569759743    1.4614313786   -0.1751201317
 O    0.0712259133    0.0564298674   -0.1088543691
 C    0.7870735033   -0.4931948081    0.9723502269
 C    0.5810823047   -2.0110712031    0.9502342388
 C    1.1985732444   -2.6543675666   -0.2860774802
 O    1.1535358112   -2.4412587997    2.1897525524
 C    1.2267423525   -3.8417794074    2.3992357569
 C   -0.9283524080   -2.2902938516    1.0551770620
 O   -1.5367140690   -3.0812467402    0.3849376736
 H    1.1972849464    1.7980168486   -0.3031966122
 H   -0.4294814624    1.7830901906   -1.0385887363
 H   -0.2496437540    1.9364391926    0.7309535565
 H    1.8625740316   -0.2653043639    0.9065904808
 H    0.4213335051   -0.0979359805    1.9339001933
 H    2.2900652139   -2.6098061754   -0.2250038749
 H    0.8807217316   -3.6919786779   -0.4015386908
 H    0.8733392457   -2.1042667961   -1.1716236471
 H    1.5594635265   -3.9780235508    3.4307744250
 H    0.2544502157   -4.3363195815    2.2725227459
 H    1.9507139800   -4.3221269442    1.7291297742
 H   -1.4159832767   -1.7279510306    1.8839922562