18

 C    0.0783640131    1.3224874509   -0.3448882338
 C    0.0614630273   -0.1075462563    0.1965287697
 O    0.6195698666   -0.1849231615    1.5066697641
 C   -1.3398921976   -0.6943565900    0.1634150273
 C   -1.9851045155   -1.1448718657   -1.1363480012
 O   -1.2462818175   -1.1234214878   -2.3214971162
 C   -1.5890084183   -2.1608956927   -0.0896994848
 O   -0.4561781972   -2.9328304966   -0.4084269364
 H    1.0857481265    1.7417491113   -0.2715050669
 H   -0.2400006988    1.3341840213   -1.3910432210
 H   -0.6037028952    1.9656088694    0.2262737985
 H    0.7239950693   -0.7275282014   -0.4117156543
 H    0.1104574471    0.4043451076    2.0741385401
 H   -2.0185442800   -0.2353333620    0.8813326370
 H   -3.0329878588   -0.9197253987   -1.3106137861
 H   -0.5607562471   -1.7991324026   -2.2189422290
 H   -2.3428950325   -2.6775716489    0.5002412276
 H   -0.7648249412   -3.7582130862   -0.7981522445