15

 O   -0.0762400096    1.3388870249   -0.2232217382
 N    0.0371355936   -0.0293659302   -0.0861333844
 C   -1.0797194268   -0.6307866207    0.0635057716
 C   -1.1535918966   -2.1382659699    0.1855982039
 N   -2.5263931306   -2.4774104861    0.6348237200
 C   -2.8783513352   -1.8391297232    1.8923538443
 C   -3.3303484757   -1.2336056460    0.5982538853
 C   -2.4913370736   -0.0861325975    0.1233255882
 O   -2.8793811700    1.0120271566   -0.1871035502
 H    0.8438424158    1.6140181799   -0.3148129932
 H   -0.9982567869   -2.6078665150   -0.7924145107
 H   -0.4141211350   -2.5519827261    0.8761817754
 H   -3.6093060851   -2.3688050072    2.4953359323
 H   -2.1025319817   -1.3229065695    2.4558655108
 H   -4.3675688827   -1.2895872000    0.2880946249