23

 C   -0.2134881482    1.5933106356   -0.0561192361
 C    0.0589988082    0.0891603830   -0.0115611435
 C    0.8428017277   -0.5063178603   -1.2117564911
 C    2.1861291165    0.2178567526   -1.4480786618
 C    3.0302208593   -0.3286704863   -0.2582104236
 C    2.0048036971   -1.2588052945    0.4260548913
 O    1.2676849990   -1.7759231848   -0.6925447327
 C    0.9142375932   -0.4649418231    1.1940518943
 C    1.4102630606    0.5409233796    2.2336950815
 H    0.6981516358    2.1959424342   -0.0219546614
 H   -0.7492416688    1.8597107811   -0.9741900482
 H   -0.8400335276    1.9031394600    0.7863394178
 H   -0.9111827452   -0.4178670753    0.0048761742
 H    0.2412300641   -0.6623380854   -2.1086610468
 H    2.6102838162   -0.0854917704   -2.4080560645
 H    2.0985209323    1.3060681907   -1.4545824603
 H    3.8846733819   -0.9103812264   -0.6117740799
 H    3.4129688993    0.4549053582    0.3986268367
 H    2.4395482911   -2.0858721494    0.9896378617
 H    0.3072305949   -1.2074493729    1.7220954857
 H    1.9884580759    1.3597703678    1.7971117525
 H    0.5719485513    0.9882690355    2.7772043011
 H    2.0491923854    0.0454550503    2.9733792131