15

 C   -0.0191172830    1.4489040302    0.0085911431
 C    0.0067868677   -0.0059026872    0.0169577347
 C    0.0370913661   -1.2101265389    0.0222533596
 C    0.0621729634   -2.6527291401    0.0091527345
 C   -0.5316320451   -3.3736387327    1.1921752432
 N   -1.2445371662   -3.3786765307   -0.0799623675
 C    1.1545488916   -3.2608864560   -0.7136689715
 C    2.0789675255   -3.7606940495   -1.2954931406
 H    0.8972903023    1.8519793314   -0.4359638222
 H   -0.8650138241    1.8296419682   -0.5743462061
 H   -0.1025969576    1.8540753874    1.0229852043
 H   -0.1000274271   -4.3276606651    1.4788044277
 H   -0.8928704415   -2.7553445440    2.0086989885
 H   -1.9867582211   -2.6823815022   -0.0653382129
 H    2.8897404791   -4.2031169607   -1.8192067848