15

 C   -0.3280953289    1.1803513030   -0.1611994374
 C    1.1222952662    1.1117954867    0.2442267293
 C    0.3520849924   -0.1545734213   -0.0078551183
 N    0.0188104496   -0.9589657914    1.1318844246
 C   -1.0912728468   -1.7409594840    1.1353602788
 N   -2.0877062325   -1.6964421601    0.2867719920
 O   -2.9516876848   -2.6519949940    0.7707422614
 N   -2.4121101762   -3.2303702168    1.8891806223
 N   -1.2957740632   -2.6963839071    2.1227926356
 H   -1.0497082671    1.4539712384    0.5986360136
 H   -0.5767976362    1.5025192886   -1.1651957179
 H    1.8826443824    1.3901353562   -0.4759490445
 H    1.3643049774    1.3475189940    1.2744783337
 H    0.5677840878   -0.7058996398   -0.9213909058
 H    0.7774455198   -1.3167102625    1.6930991727