20

 C   -0.3005466401    1.3867681148   -0.0181972799
 C    1.1495006204    0.9868451154    0.0877868244
 C    0.0802453488   -0.0716779984    0.0704411539
 C   -0.2484565673   -0.8633527091    1.3057526208
 C    0.8284669250   -1.4310587204    2.1339659849
 O    0.1238929293   -0.2500854993    2.5469837827
 C   -1.6098109664   -1.5070507613    1.3067773555
 C   -2.2756990820   -1.8846502749    2.5736572294
 N   -2.7785801336   -0.7449534630    1.7823553614
 H   -0.7485123997    1.8415549565    0.8580658999
 H   -0.6752534531    1.7625999270   -0.9632573082
 H    1.7837331245    1.0861580595   -0.7857991645
 H    1.6399394636    1.1807930330    1.0349194447
 H   -0.0221649921   -0.6484442912   -0.8449841616
 H    0.6351235809   -2.3157991446    2.7372291502
 H    1.8653621184   -1.2674192077    1.8469169872
 H   -1.8146219859   -2.0953348370    0.4139571506
 H   -2.9319148117   -2.7497141868    2.6022997360
 H   -1.7512408512   -1.6653103470    3.4985967849
 H   -2.4469133979    0.1134141246    2.2187477977