18

 C    0.0516575661    1.3134867308    0.0062951058
 O   -0.0037468785   -0.0958985108    0.0169855208
 C   -1.3216852451   -0.5959611575   -0.0272908581
 C   -1.2476904435   -2.0886020212   -0.0109264696
 N   -2.2572748805   -2.9371653169   -0.0400230688
 C   -1.6371057160   -4.1579439490   -0.0062820194
 C   -2.3824577952   -5.4497389580   -0.0217766586
 N   -0.3133463609   -4.0995299201    0.0415179892
 N   -0.0850884935   -2.7618984746    0.0376408876
 H    1.1055085426    1.5971543133    0.0430348231
 H   -0.3996872684    1.7288856475   -0.9073376460
 H   -0.4662049968    1.7450111304    0.8761196178
 H   -1.9124488336   -0.2426144020    0.8334100709
 H   -1.8468671525   -0.2587380396   -0.9356640941
 H   -2.9946946799   -5.5332546597   -0.9252567780
 H   -1.6832894084   -6.2868916532    0.0117114867
 H   -3.0595344940   -5.5169332142    0.8356190281
 H    0.8465995981   -2.3830976653    0.0682899625