21

 C   -0.0518012172    1.4984378791    0.0395525043
 C    0.0210634317   -0.0099909506    0.0529248940
 C    0.9710825221   -0.8189604585   -0.8853412768
 C    0.7182391300   -1.9399495020    0.1480867366
 O    1.6158436718   -3.0056928959    0.1946115049
 C    0.6619596717   -0.8129765521    1.2268680895
 C   -0.7767198954   -2.2450863106   -0.0787909075
 C   -1.3042211556   -0.7762238485   -0.1492546668
 O   -2.2101877654   -0.4232928505    0.8841257218
 H    0.9309223327    1.9470362133    0.2163735492
 H   -0.4184761104    1.8654870650   -0.9267896293
 H   -0.7375163577    1.8566550865    0.8132298974
 H    0.6634285134   -0.9923556841   -1.9217419448
 H    1.9976491835   -0.4476391787   -0.8492071735
 H    1.3151145423   -3.6256068042    0.8678289741
 H    1.6592632247   -0.4471443994    1.4811377857
 H    0.0586553321   -0.9694986583    2.1240660003
 H   -0.9442394046   -2.8171510317   -0.9963055645
 H   -1.2300770931   -2.7817228855    0.7621885365
 H   -1.7408566719   -0.5460657126   -1.1323736583
 H   -3.0293403948   -0.9078352804    0.7448599272