11

 C   -0.0105804643    1.5116165743    0.0424774185
 C   -0.0073330683    0.0261346731   -0.0196144581
 N   -0.0862510964   -0.6476703654   -1.1197826740
 O   -0.0496557714   -2.0122708364   -0.7304293828
 C    0.0530350401   -2.1163072690    0.6313310851
 O    0.1054743837   -3.1348015908    1.2574940166
 N    0.0789568855   -0.7990642136    1.0719576521
 H    0.9107002085    1.8857408206    0.5008284735
 H   -0.0896999900    1.9088250711   -0.9701198054
 H   -0.8558659879    1.8762733699    0.6351969735
 H    0.1502109303   -0.5411968340    2.0407864310