16

 N    0.0949852728    1.3197540684    0.1300089881
 C   -0.0294726284   -0.0415382183    0.0370212623
 C   -1.1314150751   -0.8155716773    0.0224294788
 C   -0.7656335622   -2.2332188778   -0.0044266680
 N   -1.4745901280   -3.2892643870   -0.0249776883
 N    0.6612871256   -2.2564012975   -0.0100025645
 C    1.2058377399   -0.9036915272    0.0258183281
 C    1.5057579307   -3.3468592770   -0.0437879212
 O    1.1999909281   -4.5092793769   -0.0754365280
 H    0.9433491699    1.7313897234   -0.2272499750
 H   -0.7287908113    1.8672910005   -0.0661725521
 H   -2.1600540803   -0.4826755002    0.0305255773
 H   -2.4616392095   -3.0318594980   -0.0146337995
 H    1.8358271704   -0.6939516326   -0.8509018657
 H    1.8179113753   -0.7295051241    0.9212935775
 H    2.5643415121   -3.0045625784   -0.0384517499