18

 C   -1.1150723520    1.0998432656   -0.4331820348
 C   -0.1198963261   -0.0483159205   -0.3713313947
 C    0.8776579675   -0.3066386128   -1.5453580177
 O    1.0699195116    0.9003889099   -2.2542081617
 C    2.0210241712   -0.6063885539   -0.5090336746
 C    3.4215974747   -0.0564533482   -0.7284588610
 C    1.1164299909    0.0723649457    0.5364052107
 O    1.3276487380    0.6124775921    1.5837815615
 H   -0.6243876668    2.0176267460   -0.7621011600
 H   -1.9318419166    0.8812999870   -1.1276183134
 H   -1.5443338107    1.2733777683    0.5578916166
 H   -0.6249467746   -0.9921466270   -0.1274531432
 H    0.6181937063   -1.1298545833   -2.2215284298
 H    1.7992888541    0.7762843088   -2.8697089802
 H    2.0482045099   -1.6835562550   -0.2989289753
 H    3.3789555471    0.9950087509   -1.0257588866
 H    3.9997127582   -0.1167912414    0.1979133847
 H    3.9616027372   -0.6166708524   -1.4995235906