14

 O   -0.6182989332    0.7817667778    0.7011564703
 C    0.1202137954    0.9945707354   -0.2243380752
 C    1.3004130482    1.9513472580   -0.1881244745
 C    1.2393822177    3.0436604988   -1.2840243178
 C    1.4291469589    4.3741050471   -0.5268438019
 O    1.5102667350    5.4640509142   -1.0386208291
 C    1.4875901796    4.0465025491    0.9169466704
 C    1.4100677753    2.7256136060    1.1041779218
 H   -0.0174628824    0.4829276113   -1.2040962469
 H    2.1912461856    1.3205240429   -0.3355490835
 H    2.0071750090    2.9379624174   -2.0536132089
 H    0.2723591881    3.0689606118   -1.7982292053
 H    1.5807242065    4.8090545831    1.6792615044
 H    1.4113574062    2.2187578771    2.0614313262