19

 C    0.1201861532    1.3932303755    0.1131472377
 C   -0.0248255135   -0.0773704203   -0.1094079418
 C    0.5657641302   -1.0021553813   -1.1940923177
 C   -0.0607877654   -1.8996210445   -0.1085842839
 C    0.1006395633   -3.3663067581    0.1534184502
 O    1.4636783123   -3.7145040963    0.3126127616
 O    0.5448303505   -1.0011289321    0.9344409814
 C   -1.3084380510   -0.9680053604   -0.0795853804
 O   -2.0877752409   -0.9473939122    1.0682984475
 H    1.1713286577    1.6659473843    0.2451548229
 H   -0.2763095015    1.9425422982   -0.7465226411
 H   -0.4376279374    1.7003334067    1.0032420496
 H    0.1001839995   -0.9949368181   -2.1833213554
 H    1.6541613228   -1.0290667471   -1.2340401642
 H   -0.4979407647   -3.6376201079    1.0378803494
 H   -0.2841440977   -3.9399717945   -0.6966013399
 H    1.8392867867   -3.0693957594    0.9236920810
 H   -1.9616992562   -0.9566805825   -0.9549231451
 H   -1.4502723079   -0.9559071900    1.7982802581