14

 C   -0.0261937172    1.4446700954   -0.0243392720
 N   -0.0501667273   -0.0079865837   -0.0521084945
 C    0.5166800537   -0.6185029276   -0.9906247135
 N    0.5824429325   -2.0006726066   -1.1529074973
 C    1.3021439649   -2.3107952623   -2.2775881711
 C    1.6827512171   -1.1443373080   -2.8385354632
 O    1.2057031422   -0.0857438682   -2.0702003016
 C    2.4286777475   -0.8746842966   -3.9973976949
 N    3.0458824813   -0.6615946886   -4.9557779527
 H    0.8343697282    1.8808630748   -0.5462769863
 H   -0.9378382657    1.8516660845   -0.4805734775
 H   -0.0086902332    1.7790908587    1.0168810805
 H    0.1735467751   -2.6377618819   -0.4925072256
 H    1.4898657709   -3.3207619201   -2.5991826701