14

 C   -0.0498608061    1.5677749905   -0.0084833688
 C    0.0106731866    0.0402311959   -0.0266567273
 N    0.6581625248   -0.4854253181   -1.2216356888
 C    0.1185370239   -0.8132610072   -2.4308149922
 N    0.9915813462   -1.2154529227   -3.2911303603
 O    2.2285314053   -1.1436127887   -2.6003704405
 C    2.0300666724   -0.6897368682   -1.3249989463
 O    2.8786398576   -0.5179017859   -0.4942519008
 H    0.9580972937    1.9885696506   -0.0488237890
 H   -0.6229845704    1.9533091602   -0.8571154243
 H   -0.5294193433    1.9107947186    0.9128272316
 H    0.5922580601   -0.3283495500    0.8222804854
 H   -0.9897918130   -0.3981373572    0.0347416962
 H   -0.9370327277   -0.7535279480   -2.6527249149