18

 C   -0.0671132261    1.6017734215   -0.1357695626
 C    0.0015842853    0.0866485995   -0.0462891941
 O   -1.2668174949   -0.5204460881   -0.2278823295
 C    1.1349429774   -0.6420834063   -0.8717999990
 C    1.6723529150   -1.2273351377    0.4361160172
 N    2.0209207566   -0.1144916699    1.3070024561
 C    0.5993608930   -0.5167098908    1.2385363162
 C   -0.0708699955   -1.0819838426    2.4162616462
 O    0.5370693450   -1.4636893526    3.3956428267
 H    0.8990438690    2.0402349660    0.1232650922
 H   -0.3241311144    1.9168833434   -1.1548336449
 H   -0.8302058511    1.9891402172    0.5464634656
 H   -1.6397095380   -0.1916694216   -1.0527951415
 H    0.6957590894   -1.3950926542   -1.5282850700
 H    1.8393992539   -0.0133699897   -1.4220881313
 H    2.0576043362   -2.2238618238    0.6153607613
 H    2.3605962117   -0.4995014048    2.1915322403
 H   -1.1719053023   -1.1603084254    2.3432810509