16

 N    0.1800382828    1.3742941842    0.1627324798
 C    0.0616024511   -0.0261321871    0.0809462643
 C   -1.0842893772   -0.7853132862   -0.0139125328
 N   -0.7020380394   -2.1040608885   -0.1605048316
 C    0.6580037470   -2.1978814833   -0.1458595129
 C    1.1701207965   -0.9260208942   -0.0072516539
 C    2.6226138943   -0.5371743529    0.0026672986
 C    3.0077090527    0.1815507790    1.2242232785
 N    3.2694939270    0.7754484590    2.1811687807
 H    0.8321961958    1.6633072994    0.8845434383
 H   -0.7100519260    1.8237574292    0.3369258241
 H   -2.1236605522   -0.5012422187    0.0077512724
 H   -1.3338437982   -2.8785766737   -0.2523102646
 H    1.1598772531   -3.1477820230   -0.2392221873
 H    3.2582881807   -1.4234599677   -0.0932576143
 H    2.8614442718    0.1177180845   -0.8461327094