19

 C   -0.0298265545    1.4782663491   -0.0274885253
 N    0.0177356290    0.0405238565    0.0999472690
 C   -1.2214206811   -0.6940988762    0.4215625477
 C   -0.4033587748   -1.6115892472    1.3506488540
 O    0.0926893560   -2.7898793370    0.7203138944
 C    1.4126608273   -2.6631499880    0.3572008823
 N    2.0532641343   -3.5319087163   -0.2938082506
 C    1.9756033755   -1.3537190916    0.8801353389
 C    0.7313649690   -0.5606082878    1.2494515588
 H    0.9797439303    1.8719779760   -0.1851800690
 H   -0.6333092977    1.7526860837   -0.8989668294
 H   -0.4609976112    1.9829004205    0.8587426220
 H   -1.9543215636   -0.0995611457    0.9913827369
 H   -1.7199048033   -1.1655967462   -0.4313539261
 H   -0.8319477478   -1.8783555142    2.3169100202
 H    1.4527833344   -4.3273655595   -0.5175343958
 H    2.6051349697   -1.5531338781    1.7545267987
 H    2.5897906009   -0.8687493836    0.1204858456
 H    0.8459906977    0.1064011056    2.1131315077