17

 C    0.0618006825   -1.2274933203    0.0874656482
 C   -0.0103247967   -0.0289091737    0.0494607353
 C   -0.0666002905    1.4290566324    0.0190390746
 C    1.3140886518    2.0524886876   -0.0692261967
 C    2.3246351229    1.8791493335    1.0804472794
 O    2.6574425804    3.2938008164    1.0411695761
 C    1.7036809829    3.5480878191   -0.0006350657
 C    2.2685375113    3.3292178764   -1.4112060957
 O    1.9297318628    1.9172468686   -1.3654724519
 H    0.1182370494   -2.2876596734    0.1108680421
 H   -0.6633417265    1.7666910606   -0.8363101445
 H   -0.5634530967    1.7998181395    0.9248041245
 H    1.8923439807    1.6000692297    2.0492116041
 H    3.1768795331    1.2338954865    0.8478596317
 H    1.0566960093    4.4035205427    0.2037819163
 H    1.7261816475    3.8393049038   -2.2172440675
 H    3.3444569859    3.5050926406   -1.5099966401