21

 C    0.1651027357    1.6057128010   -0.1526171844
 C    1.6893540667    1.3443924194   -0.0027468255
 C    1.3483083644    0.0064183725    0.6860258656
 C   -0.0753321106    0.0895332174    0.0819731326
 O    2.1375450248   -1.1665762418    0.3987953611
 C    2.1912198286   -1.5418483114    1.7912531778
 C    3.4988673987   -1.0951664730    2.4780455866
 C    2.8253912302    0.2671606357    2.8381398882
 C    1.4897025498   -0.2178824295    2.2050188293
 H   -0.2285076595    2.2169710586    0.6637461085
 H   -0.1798973538    2.0263867268   -1.0986921737
 H    2.1652887416    1.1519012215   -0.9688075049
 H    2.2927945508    2.0703392193    0.5480950945
 H   -0.9152457553   -0.2190236377    0.7105684507
 H   -0.1095038352   -0.4674160418   -0.8587566048
 H    1.8114835407   -2.5523948643    1.9644901227
 H    3.7564368319   -1.6944712642    3.3558235128
 H    4.3594614230   -1.0578279919    1.8067834009
 H    2.7516670482    0.4457999230    3.9130768283
 H    3.2659211367    1.1550570231    2.3780008046
 H    0.5839847527   -0.1501235127    2.8073394691