18

 C   -2.3167047992   -0.2707290649   -0.5530343673
 C   -1.3598170975   -1.0868908949    0.1732327676
 C   -0.5714205732   -1.7586327010    0.7937646677
 C    0.3869065941   -2.5560043128    1.5294916975
 O    0.4506915257   -2.5225985394    2.7466163075
 C    1.2696194365   -3.4192105488    0.6796309392
 C    2.6008770250   -3.8338009396    1.2411766159
 N    1.5701566527   -4.8202823167    1.0409249643
 C    0.9484180751   -5.4312898297    2.2135154106
 H   -2.3598786779   -0.5465881550   -1.6115945034
 H   -3.3211122423   -0.3795248860   -0.1299148734
 H   -2.0450746271    0.7887932867   -0.4899487845
 H    1.1643800357   -3.2609503168   -0.3898922438
 H    3.4568537127   -3.8849833918    0.5728416767
 H    2.8055122955   -3.4992811452    2.2567736535
 H    0.8415031418   -4.7567830276    3.0702272879
 H   -0.0406327333   -5.8062362988    1.9328268575
 H    1.5659344157   -6.2871363478    2.5031469365