15

 C    0.1869025784    1.5874055468   -0.1641605879
 C    0.0272737955    0.1439301455   -0.0745338350
 C   -0.1129203018   -1.0502855108   -0.0020837267
 C   -0.2711480394   -2.4901433937    0.0872433945
 C    0.2894103339   -3.2081903782    1.3472960202
 C   -1.1589055524   -3.6933692181    1.5412475137
 O   -1.6226530538   -2.9152360885    0.4178163666
 H    0.8739516077    1.9617591461    0.6027569133
 H    0.5815785086    1.8865934567   -1.1412917538
 H   -0.7734542737    2.0957829568   -0.0243488221
 H    0.0509379950   -2.9589900175   -0.8529349688
 H    1.0398598645   -3.9754240150    1.1539663061
 H    0.6512395113   -2.5247735563    2.1152349481
 H   -1.3166767861   -4.7681388761    1.3851771902
 H   -1.6500241877   -3.3951854277    2.4745975114