19

 C   -1.4022499468    0.9969386743    0.1671794565
 C   -0.1194373968    0.1859500788    0.1078213983
 O    0.7206612841    0.2525165018    0.9773109553
 C    0.0303387624   -0.7406645226   -1.0829235286
 C    1.3997878922   -1.4436872689   -1.3077533686
 C    0.6929376068   -2.8229797181   -1.2952232686
 O    0.7467410887   -3.4816459696   -0.0187298191
 C   -0.4993871499   -2.8734075688    0.3959572839
 C   -0.6621471511   -2.1447937468   -0.9555147644
 H   -1.4099221077    1.7353129457   -0.6433594892
 H   -2.2772133098    0.3544357700    0.0174080979
 H   -1.4766389153    1.5115531558    1.1258222754
 H   -0.3376904130   -0.2377751380   -1.9825438067
 H    1.8946400954   -1.1770265987   -2.2442096392
 H    2.0925917183   -1.3201897915   -0.4739423260
 H    0.8657345710   -3.5069693523   -2.1298563622
 H   -1.2662529832   -3.6330801676    0.5908891447
 H   -0.3783777217   -2.2474273739    1.2875910913
 H   -1.5940421037   -2.2991170296   -1.4976507008