20

 C    0.0045616333    1.5218513715   -0.3243402516
 C   -0.1218296423    0.0179298893   -0.2018747495
 C   -0.1539111619   -0.6322276627    1.1576659533
 C   -1.3989332383   -0.6043767539    0.3064755030
 C    1.4316347764    2.0232334966   -0.1680122814
 C    1.6669573261    3.5501237564   -0.1240388191
 C    2.3217824623    3.2639598630    1.2411497461
 O    1.9406252491    1.8748669427    1.1836215999
 H   -0.3670993755    1.8530046520   -1.3050585381
 H   -0.6199434089    2.0119955875    0.4337549296
 H    0.3974965129   -0.5360877250   -0.9806725842
 H    0.3591530028   -1.5784597843    1.2885221398
 H   -0.1048931224    0.0211924681    2.0206838379
 H   -2.2035145244    0.0620099422    0.6012614236
 H   -1.7370275459   -1.5303418445   -0.1458104539
 H    2.0914687954    1.5035056304   -0.8791118105
 H    2.3128230921    3.9668500974   -0.8981979237
 H    0.7458625415    4.1351511022   -0.0699585104
 H    3.4127149079    3.3871628053    1.2645593908
 H    1.8920878898    3.7731372859    2.1118071985