21

 C   -0.4358155617    1.5404055880   -0.0529361163
 C   -0.0361316846    0.0621339153    0.0172218755
 C    0.6072391346   -0.4471124540   -1.2686028752
 O    1.8264280866    0.2362166574   -1.4163609737
 C    0.6105498069   -2.0247291846   -1.4686334993
 C   -0.8372571284   -1.8686351096   -2.0273886327
 C   -0.2424023811   -0.5584949565   -2.5730473476
 O    0.7594099908   -1.0099179355   -3.5162398216
 C    1.3802596306   -2.1122218424   -2.7856451522
 H    0.4222184594    2.1529298488   -0.3394508810
 H   -1.2316590193    1.7069429828   -0.7871172022
 H   -0.8015428290    1.8915960513    0.9165816132
 H    0.7063437174   -0.0761332612    0.8126835800
 H   -0.8988251298   -0.5500912485    0.2925508233
 H    2.0202726600    0.2353763599   -2.3635677747
 H    0.8735067996   -2.7205864530   -0.6728750711
 H   -1.1657688056   -2.5929864760   -2.7752376898
 H   -1.6030815845   -1.7318727048   -1.2664008864
 H   -0.8125424231    0.2555236556   -3.0182570484
 H    2.4533241210   -1.9263794568   -2.6782878195
 H    1.2257656601   -3.0503405765   -3.3288031202