13

 N    0.0408447017    1.4310179950    0.1261248378
 C   -0.0144708939    0.0282682806    0.0269119536
 C   -1.1407988730   -0.7147262485    0.0041017821
 O   -1.1249680109   -2.0617860736    0.0174814660
 C    0.0812049355   -2.7561495491   -0.0188006690
 N   -0.0138824939   -4.0174678117   -0.0804660303
 N    1.2672971325   -2.0249033360    0.0238785233
 C    1.2096123997   -0.7373540496    0.0525406384
 H    0.6880592050    1.8456784097   -0.5345218705
 H   -0.8646629672    1.8710174873    0.0184619087
 H   -2.1512649060   -0.3215454756   -0.0006926686
 H    0.9280487427   -4.4043509434   -0.0876983975
 H    2.1563921877   -0.1954676751    0.1021238460