19

 C   -0.0681233558    1.5437438361    0.0036502283
 C   -0.0439103373    0.0316042005    0.0305628683
 C    1.2754078069   -0.7239275667   -0.1727590760
 C    0.6511689961   -0.6980221200    1.1701377030
 C    1.1859429770   -0.0944249617    2.4661780405
 O    0.7339409341   -1.2459615268    3.2099822598
 C    0.1636411840   -1.8609568560    2.0360395365
 C   -1.2377438058   -0.6453864045   -0.5338983955
 O   -2.2094420386   -0.0746128832   -0.9650743625
 H    0.8515198175    1.9633522820    0.4208701189
 H   -0.1768850060    1.9070325334   -1.0221155492
 H   -0.9157113974    1.9294929554    0.5775025106
 H    1.2441195561   -1.6516952189   -0.7376652884
 H    2.1564762675   -0.1159423283   -0.3523357193
 H    2.2746240513    0.0327082681    2.5217590948
 H    0.6967488296    0.8289520842    2.8018327303
 H   -0.9238307569   -1.9785720724    2.1251068093
 H    0.6154616333   -2.8378656113    1.8208734918
 H   -1.1764959856   -1.7595205899   -0.5419482010