17

 C    0.0408015356    1.5314934242    0.0573784200
 C   -0.0201995103    0.0256920688   -0.0102597415
 C   -0.8531877734   -0.7893502498    0.9296547974
 N    0.6051702951   -0.7870854054    1.0695288944
 C    1.2819513455   -1.9292027299    0.4292909739
 C    0.9805448758   -1.7949222565   -1.0610515391
 C    0.2746222028   -0.6780426241   -1.2889315135
 C    1.3948774104   -2.7479160737   -2.0259677637
 N    1.7585365780   -3.5461645129   -2.7834821042
 H    1.0108307366    1.9033069667   -0.2880117883
 H   -0.7384416942    1.9789169356   -0.5691265084
 H   -0.1081216097    1.8715074433    1.0847723919
 H   -1.3795335320   -0.2945116758    1.7419713568
 H   -1.3431528630   -1.6768707590    0.5347905255
 H    2.3602511958   -1.8747539205    0.6199778846
 H    0.9249383824   -2.8777528707    0.8459709708
 H   -0.0480222854   -0.3224272301   -2.2593442467