20

 N   -0.8044140369    0.8608572276   -0.9401444484
 C   -0.7485495043   -0.3820642616   -0.7271703971
 O   -1.0418386131   -0.8635366983    0.4995259176
 C   -1.1519828479   -2.2758291433    0.6320638099
 C   -2.5488889602   -2.7643841481    0.2919706260
 O   -2.7371796700   -2.6183749583   -1.1027260674
 C   -4.0559997730   -2.8135381048   -1.5162546783
 C   -5.0376308217   -1.6766581795   -1.3951025306
 C   -4.4797449523   -2.0814189239   -2.7461816925
 H   -0.5194781167    1.0571481220   -1.8974922413
 H   -0.4612454616   -1.1595736258   -1.4448973252
 H   -0.4147195342   -2.7839967210   -0.0033178457
 H   -0.9242527872   -2.5019649941    1.6771943550
 H   -2.6514591671   -3.8200255316    0.5941033124
 H   -3.2912054702   -2.1756252578    0.8488160558
 H   -4.4245048116   -3.8283091454   -1.3613581394
 H   -6.0728720135   -1.9029148429   -1.1648804100
 H   -4.6644560542   -0.7512559763   -0.9705718205
 H   -3.7437233243   -1.4209300319   -3.1896508943
 H   -5.1251575201   -2.5887963751   -3.4539767259