18

 C    0.1718841482    1.4246902211   -0.4073097787
 C   -0.0053623684   -0.0104073469    0.0823362623
 C   -1.4602050103   -0.4487000040    0.1097021802
 O   -2.3878478929    0.2460972000   -0.2294603978
 N   -1.6578030808   -1.7303761915    0.6581167521
 C   -1.2384019460   -2.9686017821    0.0520265983
 C   -2.7048810936   -2.6092373280    0.1783272807
 C   -3.5249936805   -3.2853740445    1.2274427898
 O   -4.6301794950   -3.7215664810    1.0409986461
 H    1.2303959692    1.6986624507   -0.4138306550
 H   -0.2243458603    1.5452093961   -1.4185024012
 H   -0.3641645537    2.1252126656    0.2375413911
 H    0.5524904456   -0.7140698128   -0.5499106084
 H    0.4021914737   -0.1448762665    1.0916341127
 H   -0.8285724960   -2.9460591251   -0.9553011496
 H   -0.7967270024   -3.7078983255    0.7158827878
 H   -3.2333412990   -2.3239920058   -0.7270777126
 H   -3.0100606879   -3.3628310497    2.2118488323