17

 C    0.1374863337    1.2522963728   -0.2510626555
 N    0.1461215897   -0.1838687834   -0.0540157309
 C    0.6496350367   -0.7230419208    1.0680815703
 O    1.1134264423   -0.1033702470    2.0079552725
 N    0.6057430479   -2.1732213649    1.1179690378
 C    0.1237881873   -3.0287716863    0.1333047530
 N   -0.3624977055   -2.6389154842   -0.9794636114
 C    1.1179364904   -2.7536090736    2.2965034002
 N    1.1409032715   -4.0101734011    2.4698748291
 H    0.9876985527    1.5859405025   -0.8586908303
 H   -0.7867577361    1.5477691160   -0.7548934051
 H    0.1943183502    1.7440694170    0.7205247741
 H   -0.1897816482   -0.8256786333   -0.7727600773
 H    0.2233312345   -4.0670455380    0.4497352635
 H   -0.6488197690   -3.4363615548   -1.5410137842
 H    1.4653691105   -1.9838363902    2.9823192954
 H    1.5456728913   -4.2284916607    3.3775251088