17

 O    0.0337210506    1.4427903590    0.0801253736
 C    0.0676282159    0.0263957241    0.0110473528
 C    0.5886547888   -0.5577258517    1.3264012725
 C   -0.4028681624   -0.9915890729    2.1264699809
 C   -1.6742323558   -0.7756981805    1.4512327334
 C   -2.9365638880   -0.4215583255    1.6842797608
 C   -3.5177057760    0.1148271427    0.3897004043
 O   -2.3920252457    0.2659941184   -0.4993985444
 C   -1.3601212591   -0.5742268298   -0.0090359388
 H   -0.8546499755    1.6920271283   -0.2120059653
 H    0.6688093847   -0.2869257639   -0.8527562243
 H    1.6388741179   -0.5265001510    1.5928202954
 H   -0.2842433480   -1.3649358256    3.1361902923
 H   -3.4717460031   -0.4032865942    2.6242704552
 H   -4.2627299373   -0.5595809224   -0.0637859167
 H   -3.9928596756    1.0954528306    0.5138607290
 H   -1.3442259112   -1.5321513257   -0.5535797807