21

 C    0.2144860416    1.5760763213    0.0053257252
 C    0.0885060232    0.0457247149   -0.0751020953
 C    0.7280662877   -0.6091877414    1.1572705742
 C    0.8331264887   -2.1257990975    1.0641492496
 O    1.4930763913   -2.5830284411    2.2389461350
 N   -1.2661244372   -0.5094180675   -0.2417701147
 C   -2.4351580279    0.1795125692    0.2868284060
 C   -2.2050162658    0.0736591765   -1.1832001110
 H    1.2721173245    1.8551395945   -0.0196514518
 H   -0.2736253184    2.0812141775   -0.8334490941
 H   -0.2047234493    1.9706886916    0.9365251827
 H    0.6388176975   -0.2873320922   -0.9663391978
 H    1.7342218360   -0.1997586898    1.3047781380
 H    0.1482670632   -0.3481001372    2.0515184347
 H   -0.1697177021   -2.5603025359    0.9659606972
 H    1.4004685343   -2.4019924387    0.1590834596
 H    1.4880200575   -3.5442365229    2.2267214689
 H   -3.1698146311   -0.4510460554    0.7808440674
 H   -2.3177115642    1.1654412849    0.7304093328
 H   -1.9359997798    0.9897959920   -1.7055636646
 H   -2.7675057998   -0.6362151928   -1.7847404521