21

 C   -0.4182229359    1.5346928889   -0.0402539040
 C   -0.0148218184    0.0580297759   -0.0064976844
 C    0.8443250911   -0.3671276047   -1.2634479738
 C    2.0397870146   -1.2501767068   -0.7774516190
 C    2.1974969294   -0.7171636191    0.6151037958
 C    2.8106263467   -0.8445023463    2.0285246151
 C    1.9049783036    0.4301738722    1.9554559587
 O    2.5255065938    0.7508734007    0.6614912260
 C    0.8183359355   -0.3981151901    1.2137354470
 H    0.4704240812    2.1704735936   -0.0381251858
 H   -1.0024068576    1.7605460024   -0.9393548581
 H   -1.0333799562    1.7972777368    0.8273634317
 H   -0.9323527695   -0.5414467429   -0.0000869145
 H    0.2376169962   -0.8893654264   -2.0090510208
 H    1.2434239038    0.5309627326   -1.7419240491
 H    1.7714443300   -2.3118113647   -0.7392791358
 H    2.9270135212   -1.1408472469   -1.4064901104
 H    2.4870673344   -1.6820716519    2.6520685860
 H    3.8779345768   -0.6360152095    2.1086916823
 H    1.8141751851    1.2359391967    2.6856977697
 H    0.3473432543   -1.1871865206    1.8073519333