23

 C    0.8072440995    0.8721973958    0.4267857639
 C   -0.3904089467    0.1751283334   -0.1973050777
 O   -1.5052192555    0.3378045040    0.2497300625
 C   -0.1970839314   -0.6675804107   -1.4465409387
 C   -1.1629565511   -0.2266151510   -2.5387456082
 C    1.1675008263   -1.2044874642   -1.8235759683
 C    0.1370439582   -2.1535213571   -1.2571899136
 C    0.3343032320   -2.6844641950    0.1538692013
 C   -0.4958912869   -3.1879049247   -2.1718863177
 H    1.2896354429    1.5154693354   -0.3184208231
 H    0.4709901412    1.4723639570    1.2731122580
 H    1.5683444409    0.1621023552    0.7636489063
 H   -0.9878147140    0.8227941939   -2.8023840000
 H   -1.0469273762   -0.8139871447   -3.4510032626
 H   -2.1954353621   -0.3124921526   -2.1912823521
 H    1.3960246825   -1.2711272208   -2.8832599897
 H    2.0252666682   -0.9502494923   -1.2095117868
 H    0.8442204566   -1.9735194517    0.8078246756
 H   -0.6279148280   -2.9273950840    0.6183661901
 H    0.9357822439   -3.6006007176    0.1337447893
 H    0.0985825352   -4.1090827064   -2.1572898874
 H   -1.5080065201   -3.4447190615   -1.8385881222
 H   -0.5577045653   -2.8585038105   -3.2106581489