16

 C    0.0104581897    1.5052645063    0.0040135266
 C   -0.0071298182    0.0068507035   -0.0306714580
 C    0.5433819803   -0.9680595923   -1.1409233866
 C    0.0074355014   -1.9562728447   -0.0505238076
 C    0.6484447476   -0.9938750060    1.0170452782
 C    2.0976158080   -0.9736301427    1.1214310571
 N    3.2486669953   -0.9434442887    1.2303319555
 C   -1.1860777479   -0.9870857819    0.0149468213
 O   -2.3753895652   -0.9900405115    0.0368396324
 H    1.0351943792    1.8890528887   -0.0080268631
 H   -0.5170532038    1.9118778757   -0.8643125573
 H   -0.4863537529    1.8801071950    0.9041818652
 H    0.0309575553   -0.9625306144   -2.1037060428
 H    1.6284310549   -0.9593188074   -1.2549275902
 H    0.0411797259   -3.0419275861   -0.0470022276
 H    0.2006498704   -1.0085377933    2.0132325068