21

 O    0.1322515349    1.4277400061   -0.0284499351
 C    0.0189431595    0.0198398972   -0.0214938513
 C   -1.4209639822   -0.4221025954    0.0284446270
 C   -2.4225878240    0.4691915410   -0.0092891236
 C   -3.8629787710    0.2398227914    0.0563091133
 C   -4.5817573469   -0.8912121149   -0.0202295372
 C   -4.1226532255   -2.3031709517   -0.2482805397
 C   -2.6995351799   -2.4976848360   -0.7789230220
 C   -1.5931902823   -1.9191248495    0.1205000633
 H    1.0637690089    1.6523826459   -0.0992635971
 H    0.4891361704   -0.4224334292   -0.9197493456
 H    0.5509320717   -0.4194124608    0.8430746429
 H   -2.1312711078    1.5133784499   -0.0607900734
 H   -4.4364546111    1.1541816744    0.1995498104
 H   -5.6602621233   -0.7893927650    0.0904726760
 H   -4.2453293439   -2.8703530329    0.6877383860
 H   -4.8214515865   -2.7787125374   -0.9512473213
 H   -2.5290021033   -3.5735833451   -0.9017556955
 H   -2.6155971752   -2.0518664208   -1.7764751606
 H   -0.6402730196   -2.3982453832   -0.1394745668
 H   -1.7872326030   -2.2040798939    1.1648214805