16

 C   -0.0953654909    1.5645611269    0.0599794835
 C    0.0075719550    0.0576561865    0.0473202735
 C    1.3308511490   -0.6533200373   -0.2240055213
 C    2.5481587889    0.0871002243   -0.3680911974
 N    3.5441055635    0.6668115869   -0.4752459200
 C    0.6676938848   -0.6825112196    1.1808557964
 O    1.2189305319    0.1315771708    2.1644377368
 C    0.1426006840   -1.9477718765    1.6244552763
 C   -0.2723322662   -3.0102042193    2.0052110979
 H    0.7815227262    2.0218635714    0.5191119131
 H   -0.1915017749    1.9444157009   -0.9616741493
 H   -0.9785876777    1.8770886125    0.6249842775
 H   -0.8427209471   -0.4604921476   -0.3845625858
 H    1.2914329348   -1.5741956273   -0.7947586781
 H    1.9963275286   -0.3079629533    2.5289949761
 H   -0.6490945698   -3.9430191093    2.3462954807