13

 O    0.4199689365    0.8695433824   -0.6848406439
 C   -0.0331095568    0.0026949258    0.3320240440
 C   -1.4488545126   -0.4190418611    0.0966096992
 C   -2.2859021065   -0.3581425686   -0.9759715642
 N   -3.5100359376   -0.8972657790   -0.6328339797
 C   -3.3653414014   -1.2560621305    0.6061966308
 O   -2.1328256458   -0.9928073555    1.1244444452
 C   -4.3182411308   -1.8703798058    1.4574579851
 N   -5.0912666546   -2.3708677380    2.1576723720
 H   -0.0682613187    1.6968649308   -0.6128148979
 H    0.6302082400   -0.8700285313    0.3069597069
 H    0.0551504940    0.4383318148    1.3387941125
 H   -2.0868064758    0.0282237361   -1.9616338099