14

 O   -0.1417514547    0.0506930792   -0.2892765570
 C   -0.0655988581    1.1958029299    0.0127148778
 O   -1.2340312479    1.9978332310    0.1919315695
 C   -0.6306576882    3.0800362031    0.8154952916
 N   -0.5931714013    3.1726031883    2.0794012670
 C    0.8033492145    3.5360539948    2.4058141922
 C    1.5707028852    3.2658579913    1.1079757985
 C    1.1673534310    2.0941280952    0.0891880389
 C    0.6028906493    3.4857820679    0.0185526424
 H    0.9379180609    4.5797195533    2.7207942171
 H    1.0972510831    2.8955984556    3.2430688550
 H    2.6105261472    3.5623502213    1.0160717922
 H    1.9918109014    1.7578024015   -0.5294705353
 H    0.6133536976    4.1600168078   -0.8280732397