17

 C   -0.0814017022    1.5456308069   -0.0081213608
 C    0.0427958760    0.0267929397    0.0154575943
 C    1.1008512103   -0.5982775473   -0.9251858644
 O    2.3492494012   -0.0652607359   -0.3509385870
 C    2.1767984562   -0.0812236421    1.0043292400
 O    3.0126109129    0.2679439757    1.7846466312
 C    0.7524565093   -0.6202154922    1.2502510327
 C    0.8223466924   -2.0756812855    0.7903721650
 C    1.0192968243   -2.0662885885   -0.5309001311
 H    0.8874131514    2.0421452070    0.0899856382
 H   -0.5364660560    1.8764806883   -0.9473885377
 H   -0.7229609640    1.8899298130    0.8092519755
 H   -0.9318467094   -0.4420012182   -0.1388964376
 H    1.0919913983   -0.3363592687   -1.9807692559
 H    0.3777070662   -0.4196145450    2.2507764848
 H    0.7898688880   -2.9241780290    1.4601470337
 H    1.1801128150   -2.9032219382   -1.1957799809