23

 C    0.7892457901    1.4776417172   -0.9840630486
 C    0.4241287103    0.1468630481   -0.5192121952
 C    0.1257306955   -0.9572910974   -0.1388857041
 C   -0.2525036811   -2.2713330130    0.3401883067
 C   -0.1343672910   -2.5778167012    1.8683537470
 C   -1.5018853306   -3.3290609320    1.8081569678
 C   -1.3199709917   -4.8416694312    1.6524954837
 C   -2.4887574281   -3.0134366780    2.9275980525
 C   -1.7711876694   -2.6276260710    0.4393759482
 H    1.5728070703    1.4337582550   -1.7489852238
 H   -0.0701269602    1.9975136293   -1.4226524919
 H    1.1650612590    2.0988590409   -0.1630870128
 H    0.2737628239   -3.0398293361   -0.2358142747
 H    0.7405180045   -3.1487721059    2.1907018093
 H   -0.1959811542   -1.6602394368    2.4588520907
 H   -0.9388618527   -5.2877880725    2.5784133968
 H   -2.2727550658   -5.3283727068    1.4139312102
 H   -0.6136101272   -5.0863349789    0.8518947832
 H   -2.6236933258   -1.9330534851    3.0445230881
 H   -3.4723563211   -3.4537165022    2.7243920928
 H   -2.1401155376   -3.4131931447    3.8874166778
 H   -2.3793375496   -1.7266580731    0.5527032504
 H   -2.1882856073   -3.2378979445   -0.3661811841