15

 C   -0.0173470047    1.5424378857    0.0013908970
 C   -0.0077480280    0.0469552446    0.0244151846
 C   -0.0343630176   -0.7984495881   -1.0494515514
 O   -0.0164113009   -2.1306910387   -0.7128849769
 C    0.0236720318   -2.1388871775    0.6465375463
 C    0.0306440324   -0.8511510360    1.1457251194
 N    0.0710715219   -0.9878206805    2.4962582773
 N    0.0899392464   -2.2955155104    2.8704725897
 C    0.0611671479   -3.0130944730    1.7444165761
 H    0.8769985820    1.9582328895    0.4798137188
 H   -0.0499254648    1.9166195471   -1.0251792768
 H   -0.8867694136    1.9477019405    0.5319484438
 H   -0.0667804573   -0.5951090606   -2.1084214438
 H    0.0881122716   -0.2857379698    3.2139749379
 H    0.0690100130   -4.0902382227    1.7914685579