21

 C   -0.0954234647    1.6549245515   -0.0421380455
 C   -0.1161791569    0.1249204056   -0.0870825372
 C    0.6321984266   -0.5064197777   -1.2498010145
 C    0.9611468416    0.2487407170   -2.4668513257
 O    1.9732491655   -0.0238663858   -1.4771240933
 C    0.5446607960   -2.0315009300   -1.3642856848
 O    1.4613716950   -2.5112144692   -2.3428639389
 C    0.8227728983   -2.7677725471   -0.0433799361
 O    0.8702866845   -4.1591691147   -0.2637361404
 H    0.9300948697    2.0283165397   -0.1124016725
 H   -0.6801063976    2.0960975681   -0.8549073090
 H   -0.5220754886    2.0108014718    0.8995709748
 H    0.3173063406   -0.2635123129    0.8420429472
 H   -1.1519028454   -0.2382410781   -0.1133836934
 H    1.0843422479   -0.2859346046   -3.4047831174
 H    0.6813717988    1.2949101305   -2.5512211266
 H   -0.4543592878   -2.3138210768   -1.7185633783
 H    2.2671710349   -1.9879753076   -2.2108927076
 H    1.7679670707   -2.3897435872    0.3855802225
 H    0.0280360925   -2.5819632134    0.6856375758
 H    1.3703548182   -4.2662698788   -1.0840221792