19

 C    0.2320431057    1.4444425720    0.4727383857
 C    0.1312935177   -0.0428118895    0.2993519871
 C   -0.7865159174   -0.9245486219    1.0912566507
 C    0.7017026436   -1.1775637459    1.1436983417
 C    1.3063990769   -1.8391894436   -0.1264688210
 C    0.3273835456   -2.1905221585   -1.2069177872
 C   -0.9933184370   -2.9058537063   -1.0949917876
 O   -1.8404580433   -2.8713108336   -1.9519727386
 C    0.6925447354   -0.7332379658   -0.9764114838
 H    1.2328105309    1.8112496028    0.2160199505
 H   -0.4872020911    1.9683733255   -0.1690533704
 H    0.0257190948    1.7324415542    1.5083697599
 H   -1.1727532252   -0.4581231217    1.9943036458
 H   -1.5021000070   -1.5984210449    0.6338071889
 H    1.2531051881   -1.1111864340    2.0730563521
 H    2.3287179046   -2.1957904132   -0.1436517643
 H    0.8302732825   -2.5341615622   -2.1121729665
 H   -1.1169346301   -3.5421577012   -0.1905992854
 H    1.1592714252   -0.1617504021   -1.7693405376