12

 O    0.0374087922   -0.0074807831   -0.0589205783
 C   -0.0053671085    1.1974711763   -0.0036724268
 C   -1.2178134825    2.0645975318    0.0816912451
 C   -0.8734469826    3.3575003082    0.0126403767
 C    0.6149993506    3.5178544548   -0.0618487415
 N    1.2720899444    2.9983699215    1.1698920079
 C    1.1800160194    2.1523559312   -0.0567947446
 H   -2.2127965915    1.6563207247    0.2005233717
 H   -1.5530790635    4.2003233864    0.0579685896
 H    1.0683517784    4.3423975046   -0.5992215778
 H    2.2232043508    3.3666246591    1.2150702711
 H    2.0834031328    1.8628648945   -0.5792070532