21

 C    0.1314213957    1.5474498037    0.1050344563
 C    0.0766595862    0.0312176683    0.0407831121
 C   -1.2648832891   -0.4901508439   -0.4467924406
 C    1.2817827802   -0.7922689239   -0.3710129293
 C    2.6580153483   -0.1589571581   -0.3854713980
 C    2.9171372919    0.3325790509    1.0493587179
 O    3.8251453406    1.0443127044    1.3900180191
 C    1.8262882293   -0.2290349306    1.9778663897
 C    0.7739576871   -0.8350622882    1.0719741514
 H    1.0886164007    1.9417143286    0.4535351865
 H   -0.0560223765    1.9800125520   -0.8847177312
 H   -0.6420848637    1.9306053567    0.7808569286
 H   -1.4893605434   -0.1177382397   -1.4532113924
 H   -1.2808452410   -1.5838408848   -0.4848482974
 H   -2.0766404014   -0.1672349732    0.2155797707
 H    1.1053325618   -1.6331214921   -1.0330352784
 H    3.4287274039   -0.8999666094   -0.6330478501
 H    2.7864279282    0.6714648286   -1.0869502564
 H    2.2860783368   -0.9962381648    2.6137735955
 H    1.4720214090    0.5607204803    2.6479001336
 H    0.2376816755   -1.7062359948    1.4323983026