18

 C    0.1589258573    1.4426871687    0.1179571542
 C   -0.0580584357   -0.0731180424    0.0213778769
 O    0.4872937852   -0.6364913455    1.1965275805
 C   -1.5210719009   -0.3510268401   -0.0399154234
 N   -2.6550392940   -0.5675457773   -0.0934366818
 C    0.5805103445   -0.6322549797   -1.2586774125
 C    2.0347053867   -1.0515564617   -1.2510759038
 C    0.9426767613   -2.0820375678   -1.3895731768
 O    0.6310942457   -2.9227507357   -0.3030251716
 H    1.2328150956    1.6426482445    0.1372929097
 H   -0.2898142040    1.9589036878   -0.7339979844
 H   -0.2895271442    1.8204251557    1.0391355479
 H    0.4558382474   -1.5998656535    1.0812868914
 H    0.1998801278   -0.1609110508   -2.1595368233
 H    2.6566675812   -0.8209943379   -2.1085601993
 H    2.5304949710   -1.0067351324   -0.2873581924
 H    0.7926290480   -2.5508017619   -2.3599118390
 H    1.3377822272   -3.5707946300   -0.2088350624