16

 C   -0.0878583309    1.5262921157   -0.0246018273
 C    0.0058047798    0.0026943611    0.0133463604
 O    0.6227979036   -0.4043231107   -1.1957362749
 C    0.9248375871   -1.7839674457   -1.2549359372
 C    1.8203825769   -2.2464447882   -0.1066944369
 O    2.5548511526   -3.2061412385   -0.2148080594
 C    1.6484179709   -1.4916803764    1.1488006544
 C    0.7611945831   -0.4926660874    1.2190502732
 H    0.9127341136    1.9667001489   -0.0467084355
 H   -0.6254939275    1.8399713884   -0.9224369818
 H   -0.6207088882    1.9024090177    0.8533832547
 H   -1.0210433542   -0.4128753695    0.0615573598
 H    0.0055107329   -2.3978609866   -1.2372686821
 H    1.4320709150   -1.9672133221   -2.2044077154
 H    2.2176740709   -1.8327698605    2.0076657833
 H    0.5507258643    0.0041036936    2.1637579446