15

 C    0.0042472475    1.4715909153    0.0924878876
 N   -0.0412936194    0.0287062185    0.0255326632
 C   -1.1681404606   -0.7954770154    0.0976708620
 C   -0.7434415588   -2.0621192809   -0.0072924941
 C   -1.4263936143   -3.3763957213   -0.0038068494
 O    0.6340966676   -2.0601773746   -0.1450628676
 C    1.0821773327   -0.7528598563   -0.1253378950
 O    2.2355618470   -0.4237713041   -0.2244432569
 H    1.0511080694    1.7650931639    0.0017977928
 H   -0.5682147358    1.9240190408   -0.7243682683
 H   -0.3901478042    1.8362366773    1.0470305498
 H   -2.1625189036   -0.4001177203    0.2167617479
 H   -1.2450535559   -3.9214943713   -0.9370660958
 H   -1.0698020312   -4.0079237578    0.8177788242
 H   -2.5038295604   -3.2363340340    0.1106949998