16

 C   -0.0597738139    1.5712665555   -0.0573990296
 C    0.0394001320    0.0597777534    0.0411431083
 O    0.7522320794   -0.4709844646   -1.0787639769
 C    1.3701719687   -1.6942631892   -0.6921430133
 C    1.8012873697   -1.4991930907    0.7730956218
 C    0.8161478427   -0.4342018430    1.2682697770
 O    0.6787743598   -0.0473760778    2.3957633173
 C    0.4373498791   -2.8326618561   -0.8461779071
 N   -0.2951751286   -3.7187207169   -0.9611201980
 H    0.9349381633    2.0149642457   -0.1530991610
 H   -0.6587764616    1.8632197363   -0.9228227596
 H   -0.5305957295    1.9565862215    0.8505677344
 H   -0.9681645243   -0.3866718620    0.0902623997
 H    2.2141022216   -1.8541317450   -1.3674929418
 H    1.7623981394   -2.3976552481    1.3899031382
 H    2.8153301124   -1.0903627091    0.8207058507