17

 C    0.0603340788    1.4861813789    0.0601610677
 C    0.0183491890   -0.0012655936   -0.0414285902
 N    0.0123530771   -0.6645287620   -1.1272930609
 C   -0.0583949213   -2.0945826792   -0.7985349981
 C   -0.0211173775   -2.1536792816    0.7265186425
 C    1.1556248029   -1.5441122455    1.4141253604
 N   -0.0538599411   -0.7354449774    1.2054923818
 C   -0.8833985855   -3.1117171981    1.4698716271
 O   -1.4817330857   -4.0175020517    0.9467880649
 H    0.9248871487    1.8058543038    0.6525087157
 H    0.1151691796    1.9284373909   -0.9345071001
 H   -0.8321628460    1.8514747731    0.5784691956
 H   -0.9923572039   -2.5280851218   -1.1712484591
 H    0.7619894795   -2.6341034939   -1.2829171867
 H    1.3656751804   -1.7913947708    2.4512231869
 H    2.0262810459   -1.3313448277    0.7983521436
 H   -0.9333452608   -2.9265790634    2.5652969090