15

 O    0.0339862656   -0.0439110977    0.0517700915
 C   -0.0226006003    1.1648660919    0.0657974591
 C   -1.2823328407    1.9454604916    0.0965230174
 C   -1.2210527072    3.2833101070    0.1157962458
 C    0.1285107218    3.9580092185    0.1172997849
 C    0.7699576927    3.8994547721   -1.2913708461
 O    1.3160917838    2.5831059103   -1.3301768298
 C    1.2324683068    2.0574421331   -0.0008190526
 O    1.0711940584    3.1640445348    0.8490979066
 H   -2.2144542296    1.3904552268    0.1036981123
 H   -2.1125274449    3.9035447321    0.0969151447
 H    0.1059558111    4.9572235237    0.5525583862
 H    0.0532580481    4.0253598499   -2.1072929621
 H    1.5699134826    4.6436914056   -1.3804371099
 H    2.1406919518    1.5075030904    0.2526828122