16

 N   -0.0237798907    1.3116522754    0.0744705697
 C   -0.0065459823   -0.0713717281    0.0895399809
 O    0.9535872091   -0.7401911900    0.4041367676
 N   -1.2216216691   -0.6414135732   -0.2970014038
 C   -1.5086271596   -2.0769297774   -0.2575657499
 C   -2.0770486557   -2.4661024645    1.0648904840
 C   -2.9669774878   -1.7559162295    0.0448215963
 C   -2.5860199272   -0.3039225902    0.0069681648
 N   -3.2372313185    0.7587888963    0.1806615376
 H    0.8915963183    1.7185694728    0.1995918886
 H   -0.5853600067    1.7565001210   -0.6358709790
 H   -1.0816339962   -2.7445169159   -0.9920264831
 H   -2.3021998477   -3.5205508498    1.1929988318
 H   -1.7569064183   -1.9534828869    1.9661477302
 H   -3.8732411026   -2.1890352922   -0.3505960303
 H   -2.6487822048    1.5904820623    0.1365893544