19

 C   -0.0124544320    1.5057555633   -0.0010990186
 C   -0.0887219491    0.0186802540   -0.0474609573
 C   -0.0760629889   -0.8276461248   -1.0811429886
 C    0.0156034645   -2.2119943566   -0.4628527494
 C    1.4476136841   -2.3148925116    0.1553768712
 O    1.3669895537   -1.3711438735    1.2248084425
 C   -0.0167225326   -0.9014473166    1.1861772969
 C   -0.4343295943   -0.4083111559    2.5420537597
 O   -0.7242629558   -2.0467174000    0.7596808278
 H    0.9049227645    1.8309042571    0.5059539101
 H   -0.0138993934    1.9367845659   -1.0057958461
 H   -0.8515152731    1.9385540580    0.5570275762
 H    0.0123481745   -0.6018600202   -2.1354734443
 H   -0.3345145302   -3.0714658440   -1.0308747274
 H    1.6345781520   -3.3167274797    0.5574080316
 H    2.2415510784   -2.0412061944   -0.5472508730
 H    0.2056259488    0.4208877814    2.8533726771
 H   -1.4717731350   -0.0655741733    2.5179121415
 H   -0.3397854761   -1.2163434192    3.2703724903