12

 N   -0.1802093035    1.3948764455    0.1393948270
 C   -0.0545748239    0.1416387446   -0.0169575852
 C    1.2340988498   -0.5844809205   -0.1407567476
 N    1.6091393564   -1.5715574150   -0.8615748572
 O    0.7594932426   -2.1083761223   -1.8431467591
 C   -0.5886163881   -1.9703223398   -1.9267062015
 N   -1.4692731556   -1.4948602230   -1.1560543441
 C   -1.2621141717   -0.7798928968    0.0208828499
 O   -1.9770973388   -0.8601089229    0.9824606436
 H    0.7277665455    1.8688261348    0.1172182020
 H    2.0327305045   -0.2490138104    0.5219533039
 H   -0.8794695370   -2.4430849243   -2.8642294418