16

 O   -0.0282666956    1.3783312215    0.0560184233
 C    0.0483473494   -0.0296042560   -0.0280577619
 C   -1.3315646163   -0.6019776134   -0.1496023825
 C   -1.9635694798   -2.0074639359    0.0268961672
 C   -3.0950925962   -1.3308071988    0.7839355578
 N   -2.4582048118    0.0462437759    0.6235889466
 C   -2.5309150580   -0.1090646520   -0.8783374257
 C   -3.2016023941   -1.5131546743   -0.7115774526
 O   -4.0260307029   -2.2642111796   -1.4962413752
 H   -0.7339253359    1.5653752114    0.6912459332
 H    0.6556957677   -0.2724405588   -0.9075043253
 H    0.5491652356   -0.4691111842    0.8516798521
 H   -1.5640724190   -3.0090547820    0.0906816517
 H   -3.6991350521   -1.6448068238    1.6259739943
 H   -2.6765325106    0.7372823231   -1.5394506257
 H   -4.9197990203   -1.9051066330   -1.4399530871