19

 O    0.0368772708   -0.1033788720    0.3052906882
 C    0.0127395748    1.0775463199    0.0557639253
 C   -1.3121061648    1.8341968705   -0.0954151148
 C   -1.2284504663    3.0411327048   -1.0494161982
 C   -0.7324912259    2.6269203675   -2.4440710238
 O    0.6985170332    2.5701044234   -2.3476647931
 C    1.1021212178    3.0735194129   -1.0648028582
 C   -0.0686228990    3.9542064535   -0.6163030036
 C    1.2969750827    1.8956699025   -0.1002964675
 H   -2.0729264984    1.1110011322   -0.4029064289
 H   -1.5963629941    2.1836347851    0.9074187917
 H   -2.1917357712    3.5548532220   -1.0968597342
 H   -1.1105611036    1.6481479032   -2.7613874473
 H   -1.0172544584    3.3670279111   -3.2045528990
 H    2.0383183731    3.6214290885   -1.2038828414
 H   -0.0778753002    4.8981843751   -1.1692309695
 H   -0.0609991133    4.1767786842    0.4539379771
 H    1.5928922679    2.2643320635    0.8920212894
 H    2.0851824050    1.2215749921   -0.4446594620