21

 O    0.1510446183    1.3743517472   -0.6548593569
 C    0.1514397096   -0.0195769309   -0.3802869911
 C   -1.1979391658   -0.5182474953    0.1230143507
 C   -2.3430262258   -0.4477158923   -0.9331924451
 C   -2.2943634029   -1.9980879150   -1.0861091384
 C   -1.3677374946   -2.0468807784    0.1344869816
 C   -0.3608233192   -3.1045376749    0.5225741427
 C   -1.5872495136   -2.8577893395    1.3692095461
 O   -1.4573049212   -2.1791223194    2.5854243332
 H   -0.0780787506    1.8306824478    0.1614469066
 H    0.4050407457   -0.5059577103   -1.3292328408
 H    0.9422436578   -0.2839241209    0.3400270248
 H   -1.4237701904   -0.0447306978    1.0851127306
 H   -3.2873231926   -0.0916194216   -0.5156972145
 H   -2.1136395499    0.1399867097   -1.8244375778
 H   -3.2461251581   -2.5289421970   -0.9922758970
 H   -1.8083125261   -2.3259056697   -2.0102256380
 H   -0.3101219233   -4.0140550307   -0.0687464143
 H    0.5887416932   -2.7716429366    0.9300364523
 H   -2.3812468836   -3.6061446062    1.3430604487
 H   -1.0277816669   -2.7699245083    3.2127046667