10

 O    0.0027498029   -0.0505033212    0.0030155796
 C   -0.0137438913    1.1642779621    0.0098827971
 N   -1.1116685842    2.0180264293    0.0286643034
 C   -0.7175225223    3.3537452851    0.0309580223
 C    0.6303237607    3.3721459720    0.0132904365
 N    1.0605860714    2.0476809124    0.0003087316
 H   -2.0523348648    1.6671899841    0.0391210272
 H   -1.4266405306    4.1627538125    0.0445893563
 H    1.3172106894    4.2002120628    0.0086208332
 H    2.0104346458    1.7226513709   -0.0135521471