14

 O   -0.0568468359    1.4290857091    0.0411079547
 C   -0.0111284829    0.0455493618    0.0508950920
 C   -0.2898476383   -0.7803247331   -1.1726993386
 C   -1.1875078687   -0.9194384771    0.0402568779
 C   -0.4933535978   -1.7966493926    1.0891043423
 C    0.7011414059   -0.7831902522    1.1272664895
 H    0.6588585329    1.7523018315   -0.5170530090
 H   -0.7295000541   -0.2195352318   -1.9916344092
 H    0.3660393352   -1.5949693785   -1.4757420655
 H   -2.2485867232   -0.7113734003   -0.0182505851
 H   -1.0281404806   -1.8480037258    2.0397154529
 H   -0.2524531323   -2.8148612967    0.7665411869
 H    1.6981086936   -1.1645238333    0.8805743977
 H    0.7495722461   -0.2479365710    2.0781949835