19

 C   -0.3788646596    1.2613531675   -0.0711419926
 C    0.1236666170   -0.1702838392    0.0951033644
 C    0.9102237483   -0.7067382700   -1.1145003506
 O    1.8945830801   -1.6234328180   -0.5992499118
 C    1.8300658795   -1.6631137738    0.7926221889
 C    1.1395209299   -0.3806753440    1.2339447816
 O    1.0076820076   -2.7642722912    1.2359556741
 C    1.5437342309   -3.9971314738    1.1354143390
 O    0.9309634494   -4.9892777651    1.3938078654
 H    0.4534237264    1.9541904430   -0.2399704002
 H   -1.0630049707    1.3462948178   -0.9218679025
 H   -0.9188315523    1.5951664914    0.8202099121
 H   -0.7271537999   -0.8353967845    0.2777107685
 H    0.2781831874   -1.2323459341   -1.8366513693
 H    1.4396976186    0.0988098179   -1.6401883152
 H    2.8444357722   -1.8106374632    1.1777304578
 H    1.8728246708    0.4332321268    1.2540567608
 H    0.6865821003   -0.4727622860    2.2218593707
 H    2.5995109539   -3.9847324215    0.8050208090