16

 O   -0.1384361692    1.5360928030    0.1470563164
 C   -0.0337010162    0.1630499408   -0.0025103693
 C    0.4437615194   -0.4299681336   -1.3546040227
 C   -0.8143602742   -1.3593745477   -1.3847895188
 C   -1.2649819073   -0.7881692963   -0.0238904600
 O   -0.7406224900   -1.5493817023    1.0927218375
 C    0.3770526346   -0.6559839069    1.2655095548
 C    1.6737808914   -1.3296989398    1.2698053070
 N    2.7137751396   -1.8340020825    1.2375008878
 H    0.6262610084    1.9543319995   -0.2633827775
 H    0.4328073690    0.3264870051   -2.1431702500
 H    1.4192905244   -0.9202217863   -1.3434272979
 H   -1.4999926098   -1.1350358266   -2.2047757245
 H   -0.6191062838   -2.4323177558   -1.3606438379
 H   -2.3000699904   -0.4808341270    0.1316453755
 H    0.2722472642   -0.0520105036    2.1753164997