18

 C   -0.0032153778    1.5633605764   -0.0365462634
 C    1.3050083606    0.8147421578   -0.0625444088
 C   -0.0433253141    0.0527933368   -0.0643849800
 C    0.2421997059   -0.5954740832   -1.4092109325
 C    1.7385148447   -1.0848463128   -1.1843901514
 N    2.0653633904    0.3951683516   -1.3225800317
 C    0.8879041067    0.4452698513   -2.2860804676
 C    0.4402686340   -0.5584054321   -3.4047464096
 O   -0.4795988803   -1.2290308352   -2.4671627843
 H   -0.2278798649    2.0140081044    0.9261966740
 H   -0.3683339046    2.1522119485   -0.8684506819
 H    1.9464937688    0.8358093930    0.8094925384
 H   -0.3729016523   -0.5240636564    0.7907021180
 H    2.0010042737   -1.5163916854   -0.2170833046
 H    2.1727831000   -1.6705223507   -1.9949573085
 H    0.4894985310    1.4409747466   -2.4579359433
 H   -0.1204884410   -0.0753722746   -4.2082545959
 H    1.1729155694   -1.2509687360   -3.8255814169