19

 C   -0.1332566405    1.5514158923   -0.0618934053
 C   -0.0060122603    0.0466041563   -0.0075210510
 C    1.3501926199   -0.6471851827   -0.1898580342
 C    2.5553704495    0.1090784563   -0.3546808148
 C    3.5729527240    0.7408683877   -0.4751658764
 C    0.6373063533   -0.6392461921    1.1494168900
 C    1.1484704560   -0.0611100685    2.4634846991
 O    0.6945689855   -1.2360628664    3.1753775222
 C    0.1731454734   -1.8365279959    1.9709740841
 H    0.7514591580    2.0398234050    0.3545881245
 H   -0.2459123056    1.8968632645   -1.0944624115
 H   -1.0083712281    1.8879635601    0.5041263790
 H   -0.8310352104   -0.4967598715   -0.4639190729
 H    1.3252781975   -1.5908869777   -0.7296430555
 H    4.4714604979    1.2942576839   -0.5921866269
 H    2.2347546930    0.0739336814    2.5312780395
 H    0.6473034889    0.8497205003    2.8161226189
 H   -0.9143294390   -1.9846699345    2.0221530046
 H    0.6567433669   -2.7957676584    1.7436366466