18

 C   -0.0485570226    1.4095460748   -0.1359143262
 N   -0.0297117111   -0.0182661926    0.0556178289
 C   -1.0782028707   -1.0376172412    0.0184237313
 C   -1.5932736744   -1.5346021362   -1.3645463668
 C   -0.5128722815   -1.4997862733   -2.4087465481
 C   -0.4882736171   -2.5977307635   -1.3882076575
 C    0.0379402407   -2.1105331885   -0.0088257337
 C    1.0256552240   -0.9142281750   -0.0071808760
 O    2.2147433734   -0.7374764694   -0.0638262359
 H    0.9888033066    1.7510853173   -0.1830107000
 H   -0.5548272578    1.6837507689   -1.0701734832
 H   -0.5511727187    1.9197596376    0.6938369624
 H   -1.8192278009   -0.9846818042    0.8172245755
 H   -2.6405185425   -1.6346890888   -1.6210920800
 H   -0.8347849995   -1.8074140689   -3.3983453146
 H    0.2440570630   -0.7211296760   -2.4144270262
 H   -0.5554883902   -3.6414256759   -1.6656259282
 H    0.1345325792   -2.8614290453    0.7718954384