15

 C   -0.2191140993    1.4893348955   -0.0638443936
 N    0.1186858475    0.0716811126    0.0530850972
 C    0.7422659387   -0.4900155578   -1.1351909422
 C    1.2018039727   -1.9462315553   -0.8587659915
 C    2.2259355261   -1.9844572347    0.1817606265
 N    3.0276240844   -1.9789781126    1.0140128583
 C   -0.2167623274   -0.5056263285   -2.2543853749
 N   -0.9495644119   -0.5238908199   -3.1467651763
 H    0.6358214639    2.1298837254   -0.3378340197
 H   -0.9982115959    1.6197249207   -0.8207918825
 H   -0.6187499766    1.8350004496    0.8921902185
 H    0.7509292768   -0.0669577907    0.8355861099
 H    1.6207741628    0.0855356023   -1.4825679365
 H    0.3385148685   -2.5376437973   -0.5396334429
 H    1.5984884796   -2.3919496893   -1.7752665305