19

 C    0.0061508032    1.5114912786    0.1937380448
 C   -0.0410092323    0.0032726382    0.0740030350
 O    0.9504379519   -0.4289634779   -0.9236750952
 C    1.2966969123   -1.7792211988   -0.6344892190
 C    2.1465452437   -2.3290371745    0.5718822368
 C    2.6879475146   -1.4962883576    1.7350259922
 C    1.5600869908   -0.4972951542    1.9309943225
 C    0.4799601049   -0.8443152561    1.2159413271
 C    0.6450909065   -2.2341442527    0.6101997522
 H    0.9975887433    1.8523264282    0.5003450275
 H   -0.2274208019    1.9699426940   -0.7710609795
 H   -0.7321237768    1.8558787237    0.9243979937
 H   -1.0323551669   -0.3199428408   -0.2718258429
 H    1.3570431604   -2.3802927871   -1.5363430393
 H    2.6285630890   -3.2767317836    0.3436851889
 H    2.9193582976   -2.1327478216    2.6018582523
 H    3.6093755200   -0.9484677210    1.4965663890
 H    1.7518097047    0.5020573798    2.3069371545
 H   -0.0827786949   -3.0283903365    0.7361189394