11

 C    0.0119955358    1.4462816643    0.0635661213
 N   -0.0892938421    0.0055401724   -0.0992420512
 C    0.5875685390   -0.6217543851   -1.0889372810
 N    1.1885602462   -0.0513484479   -2.1037060440
 O    1.6596237546   -1.1222382288   -2.8291730361
 N    1.3234169623   -2.2864308531   -2.1919384200
 N    0.6796946116   -2.0070265971   -1.1462418797
 H    1.0271604534    1.7721946762    0.3257604021
 H   -0.2724525381    1.9387567372   -0.8696960706
 H   -0.6789170138    1.7597978144    0.8477223205
 H   -0.2490865488   -0.5565879526    0.7210867088