20

 C   -0.0160786512    1.5600808114   -0.0037568547
 C    0.1094273719    0.0366677861    0.0340641795
 C    0.7857908220   -0.5219271698   -1.2372495426
 C    1.0284801205   -2.0046766224   -1.1510125235
 C    1.1026473739   -2.6592441755    0.0058193825
 C    1.0167167013   -1.9924577398    1.3529244339
 C    0.8118862757   -0.4987074348    1.2629389883
 N    1.1747880915    0.3366863601    2.1578069588
 O    1.7805953479   -0.2920397096    3.2614705037
 H    0.9696070005    2.0343946168   -0.0159087232
 H   -0.5585533940    1.8690771455   -0.9031597008
 H   -0.5488342768    1.9377471169    0.8715620167
 H   -0.9025230892   -0.3983970492    0.0543991890
 H    0.1548604899   -0.2933556187   -2.1048787064
 H    1.7341039094    0.0081494537   -1.4126740250
 H    1.1436465496   -2.5464784766   -2.0864228387
 H    1.2676718816   -3.7338402833    0.0145844824
 H    0.2026923743   -2.4346641308    1.9483173454
 H    1.9237987214   -2.1898267289    1.9348519254
 H    2.0236811299    0.4609458188    3.8097956493