24

 C   -0.1972927848    1.5133324817    0.1109048214
 C    0.0123213300    0.0036495523   -0.0454304189
 C    0.8308864942   -0.4063915939   -1.2826585646
 C    2.2726758245    0.1135904512   -1.2373780402
 C    0.8001644265   -1.9382321160   -1.4448440522
 N    1.3799609976   -2.3601687008   -2.7056228945
 C    2.3051906507   -3.2109364413   -2.6714145141
 O    2.8715515460   -3.6603045956   -3.8096180695
 C    3.9485281964   -4.5728205355   -3.6403368581
 H    0.7471172876    2.0446921267    0.2625063620
 H   -0.6785716219    1.9385834286   -0.7770328548
 H   -0.8374786509    1.7316388453    0.9715920876
 H    0.4995290954   -0.3921737076    0.8569942693
 H   -0.9694009409   -0.4852790138   -0.0975132047
 H    0.3429657727    0.0133958636   -2.1731018466
 H    2.7966071068   -0.2654700391   -0.3501116429
 H    2.8282404408   -0.2101933777   -2.1214256751
 H    2.3095139188    1.2059059900   -1.2031991029
 H    1.2958524997   -2.4085171746   -0.5745367677
 H   -0.2478753433   -2.2660666663   -1.4310290185
 H    2.7158647757   -3.6572580179   -1.7509494127
 H    4.8047186676   -4.0975911146   -3.1458613918
 H    3.6434493705   -5.4547845041   -3.0636557133
 H    4.2453027504   -4.8877044908   -4.6414596572