18

 C   -0.2350399999    1.4282442623   -0.0541394888
 N    0.0423729309    0.0028179875    0.0399067464
 C    1.3947342610   -0.4600241453   -0.1949986650
 C    0.8058459544   -0.5258316089    1.1908154928
 C    1.3587508608    0.3834318682    2.2805983333
 C    0.3201660599   -1.7920183101    1.6806514511
 C   -0.0656737944   -2.8479058141    2.1311978344
 C   -0.5027544542   -4.0376815338    2.6241072236
 C   -0.8900656826   -5.0934466132    3.0650575811
 H    0.6113026186    2.0834641703    0.2013410409
 H   -0.5291191213    1.6487443878   -1.0851643584
 H   -1.0775359408    1.6779209947    0.5977785392
 H    1.4991782404   -1.3627665534   -0.7902558065
 H    2.1789457259    0.2835690544   -0.3416589494
 H    1.7979814930    1.2936230137    1.8683173076
 H    0.5723078369    0.6639507101    2.9881121517
 H    2.1374937971   -0.1431656087    2.8392573320
 H   -1.2320671857   -6.0223064915    3.4485526438