19

 C   -0.0453384139    1.3399461118    0.0019913314
 O    0.0194325020   -0.0876244673    0.0548457040
 C    0.6812781667   -0.5888262409    1.0924726328
 N    1.2388143677    0.0862099112    2.0226591725
 C    1.8298188350   -0.8904092255    2.9455578476
 C    1.4420056350   -2.2665268950    2.3887942156
 C    0.0059423992   -2.6145110047    2.2425357982
 C   -1.1192007622   -1.9045938044    2.9557692790
 N    0.7569780013   -2.0111174408    1.0934664622
 H    0.9598374830    1.7681111523   -0.0405278431
 H   -0.6038784315    1.5781852824   -0.9036596859
 H   -0.5551552230    1.7360433985    0.8847443143
 H    2.9202080108   -0.7762315305    2.9671858885
 H    1.4728016582   -0.7183896916    3.9689228835
 H    2.1843193220   -3.0588695871    2.3861110901
 H   -0.2061067060   -3.6615228600    2.0361084166
 H   -0.8964061121   -0.8539812199    3.1525930992
 H   -2.0410207546   -1.9564810430    2.3672226997
 H   -1.3090071576   -2.3978000657    3.9151662738