18

 C   -0.2207431942    1.6127171544    0.0684136251
 C    0.0257546414    0.1164033091    0.0066049017
 C    0.8245099012   -0.5667625898   -1.1348171117
 C    2.0910296313    0.2068382546   -1.5389522624
 C    2.8747521605    0.5622051796   -0.2919548598
 C    2.3955290293    0.1797537441    0.8919832790
 C    1.1051958698   -0.6114521571    0.8639216191
 O    1.2100345863   -1.6118606883   -0.1978430375
 H    0.7067927331    2.1868126249    0.0040014506
 H   -0.8762176896    1.9281783386   -0.7511897060
 H   -0.7184517892    1.8851878712    1.0057400610
 H   -0.9140194070   -0.4316546617    0.1204812883
 H    0.2779607474   -0.9610717646   -1.9966053117
 H    2.7001428951   -0.4103513098   -2.2121926838
 H    1.8271856365    1.1111248012   -2.1050341036
 H    3.8052291082    1.1130703956   -0.3955654506
 H    2.8839970472    0.4092670578    1.8330099838
 H    0.8246506425   -1.0524403797    1.8228666585