15

 N    0.0584644956    1.0088191622   -0.7348846240
 C   -0.0485076144    0.0221563067    0.2117368010
 O    0.8315880854   -0.2350841833    1.0092452311
 C   -1.3210130110   -0.7484381045    0.1860548473
 C   -1.9821291439   -1.2880008872    1.4146191549
 C   -1.4734386264   -2.2631538867    0.3724134680
 C   -2.3190588324   -2.2012525743   -0.8905255636
 O   -2.7380466327   -2.9991888712   -1.6749801194
 N   -2.3399025935   -0.7788055748   -0.9059874691
 H    0.8566962773    1.6190427373   -0.6399909680
 H   -0.7684359539    1.4144131990   -1.1421390130
 H   -1.3787653480   -1.2595438680    2.3157253996
 H   -3.0472356385   -1.1204752868    1.5348650426
 H   -0.7091334291   -2.9961421940    0.5851964299
 H   -2.1833211344   -0.3193671644   -1.7943393673