19

 O   -0.1155969661    1.3499726016    0.0739736931
 C    0.0240137498   -0.0214383651    0.0170963910
 C    0.6479819530   -0.9815057730    1.0791662602
 C    0.0945972110   -1.8871444023   -0.0613162798
 C    0.1605359846   -3.3975449595   -0.1134253245
 C   -0.5185283105   -3.9635629538   -1.3434618567
 O    0.0103994313   -4.6837324806   -2.1498480948
 C   -1.1823129523   -0.9808043916   -0.0629357914
 C    0.7186149667   -0.8843685566   -1.0819468907
 H    0.7614967076    1.7478500128    0.0936905188
 H    1.7361088420   -0.9567348404    1.1931781109
 H    0.1384908307   -1.0438435493    2.0446940745
 H    1.1965678369   -3.7496647482   -0.0965006033
 H   -0.3552502106   -3.8078656466    0.7673280233
 H   -1.5843630954   -3.6590774731   -1.4601896707
 H   -1.8224955943   -1.0371780305    0.8217447838
 H   -1.7670826450   -0.9485762591   -0.9859944562
 H    0.2745034212   -0.8567276145   -2.0805955038
 H    1.8116729297   -0.8527664803   -1.1227634435