17

 C    0.0050996452    1.5156401997    0.0629842096
 C   -0.0211855637    0.0167321662   -0.0373217729
 C   -0.0680390515   -0.6496017001   -1.1916772765
 C   -0.0397326284   -2.1539846947   -1.2542921283
 C    0.4337206546   -2.7200700031    0.0853644033
 O   -0.2592092023   -2.1144043552    1.1631747377
 C    0.0184187137   -0.7337991677    1.2741027378
 H    0.8959566207    1.8638135009    0.6022910759
 H    0.0069247576    1.9816029033   -0.9258633483
 H   -0.8623710942    1.8952601591    0.6184190750
 H   -0.1206343399   -0.1027981410   -2.1307288277
 H   -1.0358294485   -2.5483107680   -1.4992616305
 H    0.6300174509   -2.4925706597   -2.0554693112
 H    0.2397653191   -3.7936498341    0.1617707312
 H    1.5200318817   -2.5614654555    0.1930141923
 H    1.0016509401   -0.5732281694    1.7576554325
 H   -0.7352021452   -0.3284293405    1.9612245800