23

 C    0.1361124275    1.3854036976    0.2972330779
 C   -0.1089190671   -0.1032098012    0.0167813533
 C    0.6108233275   -0.5805390538   -1.2298512170
 C    2.0198828237   -1.1392828947   -1.2243419355
 C    2.8045445854   -1.3575185595    0.0611832226
 C    2.2731244392   -2.4436946479    0.9560361803
 C    1.2394238252   -3.2294461843    0.6636213504
 C    0.4414843082   -3.1570331544   -0.6090777058
 C    0.8456248573   -2.0392757428   -1.5587949376
 H    1.2003299049    1.5897678567    0.4550152903
 H   -0.1952340064    2.0055741777   -0.5434128378
 H   -0.4056943118    1.7168767940    1.1888326283
 H    0.1929382777   -0.6952796543    0.8856751577
 H   -1.1875834519   -0.2713740779   -0.1062290685
 H    0.3854792258    0.0361177324   -2.0988398615
 H    2.6404894523   -0.8347432194   -2.0619305762
 H    3.8426681731   -1.6067811454   -0.2011808595
 H    2.8795605226   -0.4206482898    0.6332863516
 H    2.7974552829   -2.5795031307    1.8994829160
 H    0.9335688415   -3.9959416176    1.3723997154
 H    0.5449554339   -4.1173687232   -1.1340148487
 H   -0.6288663127   -3.0864158691   -0.3640288610
 H    0.7270891013   -2.2991054025   -2.6066803345