19

 C    0.4702151748    0.8058124735    0.9207795967
 C   -0.2327227420    0.0127320254   -0.1923540173
 O   -1.4677849520    0.5948529861   -0.5076278584
 C    0.6208961213   -0.0435047542   -1.4718925262
 O    0.2440833753    0.5352380280   -2.4773777299
 N    1.7782779556   -0.7638740639   -1.3689238280
 C    2.7868209219   -1.0103073959   -2.3187253357
 C    2.6391475722   -0.3901759852   -3.6821755951
 N    3.7382910849   -1.7498795283   -1.9060593568
 H    1.3983608129    0.3274276502    1.2503871051
 H    0.6997705858    1.8182231297    0.5757107855
 H   -0.2020249546    0.8798766226    1.7789606396
 H   -0.3940598127   -1.0215855429    0.1528456760
 H   -1.3744396209    0.9034580334   -1.4244302342
 H    1.9697415676   -1.2217027865   -0.4875440580
 H    2.5648052645    0.6975509074   -3.6133591514
 H    3.5010030575   -0.6617171118   -4.2950436896
 H    1.7206503946   -0.7265535518   -4.1685298305
 H    4.4303337632   -1.8858305760   -2.6404428317