16

 N   -0.0027677077    1.1759146093   -0.4053684777
 C   -0.0480226380   -0.0182129295   -0.0396573598
 O    1.0117622969   -0.8788019565    0.3647578727
 C    0.0189417330   -1.8276249971    0.8462301841
 C   -0.6717106260   -1.7377479841    2.2061030222
 C   -1.7884158675   -2.0078866028    1.1761482130
 C   -0.8755642556   -2.9923061446    0.2905194227
 C   -1.1656536337   -2.2283917877   -1.0063577482
 C   -1.0965312996   -1.1136599921    0.0675505454
 H    0.9528521799    1.5377189097   -0.3937270290
 H   -0.4604234048   -2.5237914426    2.9347149036
 H   -0.6893622891   -0.7498479657    2.6741913652
 H   -2.8573536884   -2.1428396396    1.3505132395
 H   -0.7686107749   -4.0674545488    0.4583275126
 H   -0.3676954210   -2.2292363756   -1.7533449748
 H   -2.1387965134   -2.3868248424   -1.4772420215