22

 C   -0.4378664653    1.4582425283   -0.7176756207
 C   -0.1046625684    0.1393100162   -0.0519230753
 C   -1.2534887923   -0.5314593387    0.6644932710
 O   -1.8184088723    0.3916903400    1.5817524032
 C   -2.8759541458   -0.1373915162    2.3155996943
 C   -2.5778947786   -0.9452616708    3.5536518708
 C   -3.1201948844    0.4679851216    3.6583575462
 C    0.9535606481   -0.7217286172   -0.6387792768
 N    1.1945270918   -0.0093379065    0.6306159351
 H    0.4344404938    1.8646950029   -1.2399298588
 H   -1.2424890903    1.3363944417   -1.4517693137
 H   -0.7752994585    2.1862604327    0.0248852693
 H   -2.0163674056   -0.8511593259   -0.0665648387
 H   -0.8899696237   -1.4245889728    1.1905744130
 H   -3.7383885535   -0.4293015899    1.7134740631
 H   -3.2264613790   -1.7767659237    3.8068947388
 H   -1.5317506475   -1.0865617749    3.8009594394
 H   -2.4256844521    1.2395350235    3.9700685151
 H   -4.1442305718    0.6163084909    3.9818381456
 H    0.8992491708   -1.8041072662   -0.5507418771
 H    1.4447253203   -0.3699702206   -1.5427198102
 H    1.7685517144    0.8131701554    0.4600722566