18

 O    0.0176831496    0.1601940014    0.6322170814
 C    0.0865705615    1.3342357438    0.3348991485
 N    1.2086066039    1.9654132687   -0.0991089574
 C    1.3138094450    3.3842162753   -0.4191633728
 C    2.6986532693    3.7812817522    0.1092311629
 C    2.8381921351    3.8947667028    1.6411005749
 O    3.5061719653    2.6200655727    1.7275602679
 C    3.4714906547    2.4426193972    0.2972712034
 C    2.5206854313    1.3276423134   -0.1375816456
 H   -0.7789703734    2.0252393645    0.3891406868
 H    1.2623601827    3.5487928261   -1.5052171770
 H    0.4951262581    3.9439968227    0.0430332248
 H    3.1694755427    4.5714435524   -0.4742045237
 H    3.4780036760    4.7146000031    1.9894361774
 H    1.8989525973    3.9070951003    2.2084944550
 H    4.4758264057    2.3447695237   -0.1260318176
 H    2.5330278236    0.4677588241    0.5338054630
 H    2.7661501016    0.9863878256   -1.1535396819