18

 C   -0.1837207919    1.5184794301   -0.0446631142
 C    0.0116660419    0.0085914037   -0.0464250860
 C    1.2192350839   -0.4908887208   -0.8834795180
 N    2.0095915644   -0.6052794993    0.3654991249
 C    0.7804947722   -0.5909858255    1.1987446618
 C    0.8939318409    0.2095485035    2.4939483267
 C    0.2848500575   -1.9486746491    1.4923950393
 N   -0.0748398063   -3.0265745966    1.7103585650
 H    0.7616278183    2.0456038630    0.1136811436
 H   -0.5857575757    1.8388623279   -1.0115497327
 H   -0.8896932999    1.8357604888    0.7292845186
 H   -0.9320533159   -0.4970708830   -0.2553788848
 H    1.0193397819   -1.4450162483   -1.3869263493
 H    1.6399111590    0.2141112409   -1.6079647633
 H    2.5912306002   -1.4317229409    0.4570036515
 H    1.2670283197    1.2118439115    2.2786446083
 H   -0.0746283476    0.2828009171    2.9977513992
 H    1.5952441774   -0.2784728132    3.1773951294