15

 O    0.0354704772    0.0497448455    0.1713539396
 C   -0.0038802530    1.2368523029   -0.0094059018
 C   -1.2701137994    2.0746524826   -0.2673006772
 C   -0.7248766815    3.3524944605   -0.9499394111
 C   -1.4283106940    4.5747577898   -0.5592904939
 N   -1.9981252174    5.5255536426   -0.2340213875
 N    0.7398339880    3.4658686507   -0.6604143000
 C    1.0508244251    3.3972987787    0.7606208171
 C    1.1667574446    2.1695752635   -0.0885227960
 H   -1.9665822999    1.5229800923   -0.8992564138
 H   -1.7780899827    2.2781316729    0.6799448244
 H   -0.8065338213    3.2492625749   -2.0367664618
 H    1.9619079275    3.9103606260    1.0500361060
 H    0.2446500934    3.4568586527    1.4874591967
 H    2.1343246935    1.7729064442   -0.3733336409