20

 C   -0.0087444089    1.3915223629   -0.1190484468
 O    0.0080224190   -0.0066473894    0.0545788930
 C    0.7093814378   -0.5340492955    1.1845624857
 C    2.1634096043   -0.0472462145    1.2464096052
 C   -0.0367102621   -0.2022015247    2.4870742571
 C    0.6505833440   -2.0665712603    0.9568514100
 C    1.3668509569   -2.5315477794   -0.2239306110
 C    1.9642051760   -2.9336844551   -1.1862784394
 H    0.9872672261    1.8039103096   -0.3307918276
 H   -0.6498782694    1.5850137945   -0.9829960182
 H   -0.4285751588    1.9258325895    0.7454284336
 H    2.2190476514    1.0222049074    1.4676723569
 H    2.7025282692   -0.5745048032    2.0396460791
 H    2.6726864587   -0.2406134372    0.2994057377
 H   -1.0780845351   -0.5316869245    2.4243564565
 H    0.4346158582   -0.6977178002    3.3415223485
 H   -0.0283116202    0.8726386754    2.6884507608
 H    1.0451136694   -2.5698305640    1.8477209179
 H   -0.4062355292   -2.3462054297    0.8742906837
 H    2.4832319728   -3.2852596117   -2.0430014127