20

 C   -0.0473207351    1.6255893431    0.0032905752
 C   -0.0246371830    0.0954670508   -0.0072831728
 C    0.7546024403   -0.4859700372   -1.2037932374
 C    0.7732336210   -1.9837855226   -1.2532827874
 C    1.7626765113   -2.8532420900   -0.8394146822
 N    1.3262008557   -4.1073115719   -1.0936688298
 N    0.0884151594   -4.1318518863   -1.6483589513
 C   -0.2426563357   -2.8486222474   -1.7502601256
 N   -1.4361958372   -2.4605862226   -2.3677184306
 H    0.9677749871    2.0353057486    0.0549390058
 H   -0.5151103433    2.0220439500   -0.9049562024
 H   -0.6057513202    2.0118609252    0.8616858206
 H    0.4206237921   -0.2800318479    0.9221369509
 H   -1.0537759356   -0.2882170626   -0.0188078022
 H    0.3163026285   -0.0995329161   -2.1340466013
 H    1.7829417539   -0.1051227863   -1.1723823959
 H    2.7318686921   -2.6656439800   -0.4025930113
 H    1.8026487990   -4.9759082708   -0.9307499362
 H   -2.0465657885   -3.2562030811   -2.5085328240
 H   -1.9270419418   -1.7338339747   -1.8633522520