19

 C   -0.8945467293    1.1267030086    0.2927299815
 C    0.0963512482    0.0042763797    0.0138097367
 C    0.8925405229   -0.0262094945   -1.3295603238
 C    2.2015728329   -0.3544041978   -0.5644080101
 C    2.8529234198   -1.7602986389   -0.6049366277
 C    4.1493306412   -0.9773367253   -0.8917835378
 O    3.4282857999    0.2752215907   -0.9290590737
 C    1.4632814814    0.0733942479    0.7267190653
 O    1.8208223194    0.4528261040    1.8036700939
 H   -0.4435053183    2.1041723317    0.0941146882
 H   -1.7879601834    1.0311198484   -0.3320343431
 H   -1.2062096763    1.1106150570    1.3413059374
 H   -0.3651248427   -0.9714985961    0.2124573346
 H    0.5764434202   -0.7471642411   -2.0857538908
 H    0.9607391101    0.9677680823   -1.7814159837
 H    2.8294100699   -2.3251017594    0.3280350277
 H    2.5009856335   -2.3887181059   -1.4250329314
 H    4.8900511907   -0.9925215812   -0.0848040088
 H    4.6469863896   -1.1882241000   -1.8445276942