18

 C   -0.2025478798    1.5669532631   -0.0130267271
 C    0.0388803430    0.0792940364    0.0080562980
 C   -0.7857874041   -0.8242400580    0.9555440487
 O   -1.3255068872   -2.0375800830    0.5553259870
 C    0.6876038582   -0.7227101757    1.1362915500
 N    1.3728601505   -1.8957526980    0.5885741181
 C    1.3041747401   -1.8369970967   -0.8843418391
 C    0.5048740695   -0.5773450498   -1.2489754286
 O    0.3465834791   -0.1609798283   -2.3699761436
 H    0.7235067873    2.1221405275   -0.1962887736
 H   -0.9033518774    1.8182825820   -0.8149234623
 H   -0.6234743062    1.9156775806    0.9347251343
 H   -1.4325107984   -0.2601615650    1.6237710676
 H   -0.6425244295   -2.7005883617    0.7449034598
 H    1.1362393634   -0.2656662806    2.0112839056
 H    2.3313407786   -1.9185127354    0.9076343472
 H    2.2957724064   -1.7689566101   -1.3439675162
 H    0.8030788666   -2.7147886976   -1.3080768458