21

 O   -0.1523909502    1.4301712169   -0.0035991043
 C    0.0429426238    0.0392993706    0.0139504819
 C    0.9634636664   -0.6386807669   -1.0480342953
 C    1.2287230404   -1.7202280497    0.0454266078
 C    0.9502673724   -0.6058072413    1.0952888239
 C    0.1057212663   -2.7457591665   -0.0382552450
 C   -0.8418956609   -2.9953020679    1.1059523420
 C   -1.2802347807   -2.1383919711   -0.0615450323
 C   -1.3484721501   -0.6115014190    0.0158459275
 H    0.7124751651    1.8527039243    0.0166016878
 H    0.5207330849   -0.9594341580   -1.9949410282
 H    1.8489910512   -0.0240390664   -1.2412643556
 H    2.2137474766   -2.1892497756    0.0750589126
 H    1.8515921668   -0.0033520298    1.2529355892
 H    0.5231394077   -0.8563893846    2.0683472047
 H    0.3068510450   -3.5780061052   -0.7070765331
 H   -1.2819318844   -3.9839193972    1.1852367836
 H   -0.6541230544   -2.5262971445    2.0649814208
 H   -2.0140299217   -2.5924687629   -0.7193053618
 H   -1.8975331479   -0.2687907629    0.9013831356
 H   -1.8897617061   -0.2276128222   -0.8557172019