14

 C    0.0315872876    1.4198912720   -0.0811299597
 O    0.0231608977   -0.0117496508   -0.0329567095
 C    0.5892793019   -0.6671349011   -1.0278162979
 N    0.6696828614   -1.9464821035   -1.1525165374
 C    1.3521669267   -2.1142911855   -2.3582322388
 C    1.6973813854   -3.4102848219   -2.9510298966
 O    1.4383397580   -4.4888913345   -2.4771954569
 C    1.6420544614   -0.8962719270   -2.8893116030
 O    1.1551061095    0.0590225987   -2.0401507879
 H    1.0553691848    1.8044071032   -0.0885592350
 H   -0.5010876490    1.7840579442   -0.9641467277
 H   -0.4818804604    1.7412855907    0.8241334208
 H    2.2423203227   -3.3136465444   -3.9177339865
 H    2.1404298023   -0.5477819302   -3.7775220639