19

 C    0.0554398620    1.5830872875   -0.0480017104
 C    0.0649808956    0.0579859754    0.0771688965
 N    0.6783727275   -0.5984102899   -1.0865629111
 C   -0.2060027757   -0.8491974511   -2.2047703680
 C    1.4618156997   -1.7517521836   -0.6465617392
 C    1.6995647297   -1.4752829605    0.8062346563
 C    0.9198338477   -0.4713013272    1.2191426694
 C    0.8343780409    0.0403252676    2.5402587384
 N    0.7375304320    0.4798490637    3.6079111026
 H    1.0725473581    1.9582526122   -0.1889161578
 H   -0.5485231210    1.8943822951   -0.9054258849
 H   -0.3732606839    2.0414871696    0.8484440139
 H   -0.9774979408   -0.2840501879    0.2362981507
 H   -0.6920838571    0.0797223669   -2.5168388018
 H    0.3709040911   -1.2207338908   -3.0577604010
 H   -0.9967715667   -1.5903853309   -1.9798652314
 H    0.9218024468   -2.7144430117   -0.7601254286
 H    2.3928780878   -1.8506469955   -1.2226571424
 H    2.3848570462   -2.0417042189    1.4230351888