20

 O   -0.1411892472    0.2110919791   -0.8033101430
 C   -0.0478180671    1.2643139595   -0.2085526807
 N    1.0974233032    1.7784577241    0.3139540657
 C    2.3970172448    1.1262384100    0.2177868119
 C    3.3761929261    1.9244768286   -0.6558609065
 C    4.6947887102    1.1585057849   -0.8404292004
 C    5.1900108702    0.5636445935    0.4516714097
 C    4.4376235278    0.4510267572    1.5452464763
 C    2.9940578424    0.8785127273    1.6125472108
 H   -0.9147776065    1.9304530601   -0.0239201906
 H    1.0441292061    2.6727916193    0.7774650077
 H    2.1975279264    0.1644268734   -0.2630520616
 H    2.9148164163    2.1394562658   -1.6246286223
 H    3.5795462650    2.8907814087   -0.1737774660
 H    4.5633448669    0.3597459919   -1.5851642300
 H    5.4581214543    1.8247612560   -1.2612284852
 H    6.2186968942    0.2115977242    0.4687900719
 H    4.8605187370    0.0238140855    2.4512426801
 H    2.9064953045    1.7935965325    2.2202537192
 H    2.3971645154    0.1221090584    2.1362707930