18

 C   -0.2987641416    1.4662694664   -0.0049000887
 N    0.0481958410    0.0484006995    0.0787354864
 C    1.3410062995   -0.4640827977   -0.2977193064
 C    2.5488268328    0.4575970967   -0.3392201374
 O    2.5334731570    1.2047977668    0.8700785547
 C    1.8524194008    0.4585269446    1.8776864396
 C    0.8995166328   -0.4734324177    1.1503388126
 C    0.4140329163   -1.7101120839    1.8167971691
 O    0.8088238003   -2.1036717162    2.8871624701
 H    0.5164970534    2.1531014756    0.2460627584
 H   -0.6350134796    1.6702572182   -1.0259295150
 H   -1.1423549745    1.6521899982    0.6659760993
 H    1.3505523742   -1.3581402260   -0.9169028799
 H    3.4620234055   -0.1516856820   -0.4326661418
 H    2.5296572889    1.1719755537   -1.1699713439
 H    2.5417269544   -0.1428255569    2.4856768162
 H    1.3530028397    1.1772704145    2.5354684484
 H   -0.3613350409   -2.2498703439    1.2313603684