21

 C    0.3171318824    1.3469767564    0.1119809129
 C   -0.0651469465   -0.1055933239   -0.1046993623
 C   -1.5546514610   -0.3616637407    0.1398009407
 O   -1.8762151450   -0.1623796450    1.5005385036
 C    0.5192948013   -0.8281378781   -1.3415644694
 C    1.1816109021   -1.7755373306   -0.3239806889
 C    2.6979719024   -1.8342063922   -0.2720046397
 O    3.1329583106   -2.3966024081    0.9488587502
 O    0.6812121916   -0.9939964674    0.7978092185
 H    1.4016182064    1.4755330319    0.0654424047
 H   -0.1417827248    1.9771838151   -0.6578599460
 H   -0.0394183973    1.6849177285    1.0886104760
 H   -2.1666015101    0.3342832642   -0.4449863624
 H   -1.8041176632   -1.3846142419   -0.1854121680
 H   -1.2466359481   -0.7052034228    1.9929742801
 H   -0.2114245946   -1.2791183691   -2.0153386798
 H    1.2242588455   -0.2285073063   -1.9221871226
 H    0.7695813376   -2.7916978428   -0.2952799328
 H    3.0803721969   -2.4709049282   -1.0781239439
 H    3.1063214382   -0.8206687778   -0.4193809849
 H    2.6999304555   -1.8853290714    1.6435505640