19

 O   -0.0519677655    1.4494163535    0.0264060880
 C    0.0282206159    0.0335110686   -0.0253864105
 C   -1.3955022537   -0.5161885397    0.0331325534
 C   -1.4738458325   -2.0652978278   -0.0478042854
 C   -2.6314000763   -2.4785624335    0.8973466752
 C   -2.7829011225   -1.2709950445    1.7958096160
 C   -3.5915543998   -1.2615252807    3.0157072660
 O   -4.2142704356   -2.2159511121    3.4291215276
 C   -2.1157162834   -0.2090439916    1.3209492185
 H    0.8410750388    1.8056182640    0.0392448235
 H    0.5132786561   -0.3085898736   -0.9535746164
 H    0.6098055063   -0.3679532003    0.8201255546
 H   -1.9458903864   -0.0487633921   -0.7973812542
 H   -1.6095852240   -2.4250017141   -1.0703150008
 H   -0.5326526346   -2.4905411125    0.3205092261
 H   -3.5644958540   -2.6620200066    0.3498095956
 H   -2.4243107534   -3.3927726424    1.4604799336
 H   -3.5968567226   -0.2909158580    3.5610542603
 H   -2.0965020627    0.7757981335    1.7748785086