19

 C    0.0125938967    1.4279486067   -0.2271092993
 C    0.0265696655   -0.0689643841    0.1117647606
 C    0.7086048387   -0.3487176412    1.4524900389
 N   -1.3285764643   -0.6270293251    0.0701826224
 C   -2.2236963001   -0.7445358913    1.0826621281
 N   -3.3915206488   -1.2074154071    0.6684172691
 C   -3.2409260663   -1.3853953639   -0.6738121892
 O   -4.2478445826   -1.8615436867   -1.4404527172
 C   -1.9811508247   -1.0347215804   -1.0870436637
 H    1.0343572780    1.8164035476   -0.2804064280
 H   -0.4747255199    1.6048023623   -1.1894228104
 H   -0.5307079849    1.9904417778    0.5388714075
 H    0.5842954484   -0.5976639014   -0.6696715800
 H    0.6827812067   -1.4139286657    1.6962175490
 H    1.7533777982   -0.0302507088    1.4025314218
 H    0.2366847117    0.2066000186    2.2690345596
 H   -1.9862970657   -0.4908554528    2.1030267945
 H   -4.9879027527   -2.0131173463   -0.8401020188
 H   -1.4969513338   -1.0473274881   -2.0475080648