15

 C   -0.0384776619   -1.1898384418   -0.0261913712
 C    0.0062454137    0.0119414416   -0.0353735922
 C    0.0525390180    1.4487952672   -0.0044741596
 O   -0.4136372109    2.1232729358   -1.1880612585
 C    0.7828921969    2.9447759888   -1.2564197724
 C    1.3608171770    2.3012655232    0.0209569375
 C    0.8960773251    2.9047466430    1.3677656884
 O   -0.3705049743    3.5302556895    1.1530827555
 C   -0.3559707700    2.1238873577    1.3568174007
 H   -0.0772341442   -2.2513764284   -0.0327335146
 H    1.3524319007    2.7279162344   -2.1665800244
 H    0.5481718570    4.0104184373   -1.1972650538
 H    2.3440754505    1.8378399173   -0.0025200315
 H    1.5000071341    3.2687990844    2.1900759422
 H   -0.9754408916    1.7152221799    2.1470294839