16

 C    0.0277268861    1.6043670420   -0.0834089332
 C    0.0546930790    0.0866056766    0.0009984901
 C    1.1320493248   -0.7033044639   -0.8030024546
 O    2.4016730080   -0.1125915589   -0.3871470478
 C    2.1782729400   -0.7515663629    0.8692864805
 C    1.2048686456   -1.7640576996    0.3547611415
 C    0.6754566563   -0.6274565379    1.2106067385
 O    0.1732283084   -0.7483314972    2.4877078229
 H    1.0392550205    2.0082358397    0.0074202815
 H   -0.3915145934    1.9418203559   -1.0376196111
 H   -0.5916367837    2.0289388894    0.7145379595
 H   -0.9281702930   -0.3544902493   -0.1979474332
 H    1.0611956208   -0.8774956874   -1.8742958375
 H    2.9773566982   -0.8094061769    1.5971817765
 H    1.1295660006   -2.8402727775    0.4123803998
 H    0.4440463617    0.0229959378    2.9980483766