17

 O   -1.0459302103    0.6957092438    0.7188446257
 C   -0.4662832028    1.7550672925    0.7228778830
 C    1.0007748696    1.8965795370    0.5817834042
 C    1.5204850693    3.0840550094   -0.2380989929
 C    1.7398897966    3.0740288491    1.2232781594
 O    1.0561714493    4.0372663714    1.9591697609
 C    1.0664997297    3.8216785823    3.3664898723
 C    0.2546746445    2.6888094452    3.8081422781
 C   -0.4206259201    1.7602673490    4.1623856732
 H   -1.0154684222    2.7161573598    0.8180447679
 H    1.5362270599    0.9561758644    0.5106693353
 H    2.3551826903    2.9129346783   -0.9069276547
 H    0.7692103667    3.7758554297   -0.6053072944
 H    2.7382525797    2.8489804594    1.6001218620
 H    2.1020216266    3.6967709756    3.7197062670
 H    0.6830170773    4.7499288177    3.8014836077
 H   -1.0188357642    0.9354325854    4.4634659654