19

 C   -0.0093372224    1.4383740890   -0.0254004866
 C    0.0481053021   -0.0603887545    0.0324648883
 O   -0.1458094059   -0.6586413990   -1.2327909728
 C    0.0166449386   -2.0554665819   -1.0538054557
 C   -1.2423881359   -2.6618842440   -0.3771688001
 C   -0.5914944279   -2.3076891375    0.9776462885
 C   -0.4532568268   -0.7932015279    1.2654782011
 C    1.0406521655   -0.8111339738    0.8579876750
 C    0.8170437671   -2.2299030163    0.3107067853
 H    0.7298136709    1.8212344312   -0.7358527748
 H   -0.9994103401    1.7761823499   -0.3470543472
 H    0.1980956702    1.8689880624    0.9578590886
 H    0.3853539545   -2.4891786555   -1.9850098982
 H   -2.1986734985   -2.2073710182   -0.6477930283
 H   -1.2923144717   -3.7463582367   -0.5183873376
 H   -0.7736074349   -2.9183145457    1.8629685209
 H   -0.9377767138   -0.2588134747    2.0759862225
 H    1.9235031434   -0.3961551636    1.3276028444
 H    1.5669929655   -3.0117105531    0.3954310168