18

 C   -0.1837923609    1.4691390675    0.0385278761
 C    0.0445071004   -0.0202456432    0.0367138787
 C   -0.9846902232   -0.8973117710   -0.6758673097
 C   -1.7925798588   -1.7130473292    0.3091031994
 N   -3.0468851977   -1.8408010442    0.1906519785
 O   -1.1065904730   -2.2887717182    1.3381575706
 C    0.3246848708   -2.1386219951    1.3826842048
 C    0.7514714535   -0.7057040742    1.1297576131
 O    1.4053084970   -0.4486742817   -0.1189498889
 H    0.5865400240    1.9793726015    0.6217251556
 H   -0.1572245361    1.8605210775   -0.9842329433
 H   -1.1650904789    1.7062964648    0.4624473783
 H   -1.6840333569   -0.3183283597   -1.2788298339
 H   -0.4430801396   -1.5742300329   -1.3468176242
 H   -3.4111382817   -2.4353262404    0.9384305109
 H    0.6075170005   -2.4809932446    2.3796106623
 H    0.7955418184   -2.7935579512    0.6403273229
 H    1.1397763924   -0.1371238357    1.9724475389