22

 C    0.0283468614    1.4802835828    0.1101977667
 C   -0.0106310741   -0.0125977924   -0.0589492207
 C    1.0574579830   -0.7526811012   -0.8665259599
 C    0.5856282676   -2.1813917321   -0.5303598900
 C    0.4755348881   -2.0709176903    1.0020344836
 N   -0.3656440665   -0.8561040575    1.1210820745
 C   -1.2445720992   -0.8643934081   -0.0861629075
 C   -2.6588839904   -0.3747560773    0.0509708662
 C   -0.9068397972   -2.1085653431   -0.9099745081
 H    0.9677722285    1.7920450592    0.5808407103
 H   -0.0439258903    1.9870371725   -0.8589578670
 H   -0.7902758756    1.8312186162    0.7426775209
 H    1.0046013211   -0.5227513486   -1.9360927189
 H    2.0737713210   -0.5401092892   -0.5163046810
 H    1.1652322012   -3.0079731307   -0.9391901175
 H   -0.0265850530   -2.9244197797    1.4688853736
 H    1.4371690986   -1.9140119105    1.5012159291
 H   -2.7159498283    0.5018691317    0.7002790833
 H   -3.0780372814   -0.1074196688   -0.9258226510
 H   -3.2969818861   -1.1520012204    0.4867944179
 H   -1.0710272761   -1.9554232890   -1.9819961254
 H   -1.4759219621   -2.9903649136   -0.5948491391