21

 C   -0.0000414876    1.5071601212   -0.0199810624
 C    0.0214937965    0.0031854723   -0.0427095507
 C    0.5800241453   -0.9448380943   -1.1314367848
 C    0.0344864546   -1.9107541057   -0.0518870586
 C    0.0333788322   -3.4150312987   -0.0435866176
 C    0.6116502758   -0.9551100114    1.0555303036
 C   -0.3865404194   -0.9673977253    2.2049291918
 O   -1.6297957478   -0.9723556495    1.4788049381
 C   -1.1880444453   -0.9628927710    0.1306003447
 H    1.0139616993    1.9223356344   -0.0206918155
 H   -0.5247042559    1.9063396624   -0.8950991688
 H   -0.5161232098    1.8766173985    0.8728753870
 H    0.0665903313   -0.9436819817   -2.0993783191
 H    1.6653188792   -0.9368048615   -1.2703844788
 H    1.0529270989   -3.8163707331   -0.0482387154
 H   -0.4775574000   -3.8000115699    0.8456636230
 H   -0.4858925647   -3.8128868362   -0.9225150790
 H    1.6814632534   -0.9488841102    1.2716711183
 H   -0.3160605808   -1.8606683963    2.8387498580
 H   -0.3281521815   -0.0793710504    2.8472905824
 H   -2.0360515039   -0.9653608436   -0.5551741063