19

 C    0.1302867962    1.4179248031   -0.0414323369
 C   -0.0036240754   -0.0925229217    0.0254650967
 O    0.9370519700   -0.8292779131    0.1824740492
 C   -1.4426482372   -0.6455723326   -0.1036353819
 O   -1.4367684062   -1.9989124699   -0.5115669172
 C   -1.7897544208   -2.8353747524    0.5847733292
 C   -2.2978275597   -1.9029311115    1.6569804521
 C   -2.8770326521   -2.4025564094    2.9393184418
 C   -2.1186714727   -0.6485095690    1.2487928603
 H    1.1379146582    1.7165451116    0.2497680688
 H   -0.0643995814    1.7554280103   -1.0665623601
 H   -0.6078367907    1.9119110450    0.5999701757
 H   -1.9851179739   -0.0453742861   -0.8511716769
 H   -2.5524594678   -3.5561147406    0.2546567139
 H   -0.9171223907   -3.4117259065    0.9303341860
 H   -2.1505691922   -3.0193750217    3.4830096481
 H   -3.1803574593   -1.5805269799    3.5921514007
 H   -3.7528663271   -3.0377434812    2.7577888909
 H   -2.3670701373    0.2516860057    1.7962884195