20

 C   -0.0279894037    1.3442059074    0.0360413918
 N    0.1027801432   -0.0978329140   -0.0644215521
 C    0.2186070851   -0.8316096979    1.1817388840
 C    0.0023011942   -0.6789910318   -1.2953708237
 O   -0.1171547248   -0.0817783053   -2.3442720684
 O    0.0609878831   -2.0384058596   -1.2191063788
 C   -0.0065497153   -2.7222848427   -2.4831452709
 C   -0.0541134665   -4.2041353489   -2.1601665416
 O   -1.2087041649   -4.5547820649   -1.4222437714
 H    0.8455828536    1.7735143819    0.5418546168
 H   -0.1053789833    1.7571765566   -0.9679589286
 H   -0.9234220061    1.6173775418    0.6100244774
 H   -0.7229101634   -0.8134856703    1.7487024278
 H    0.4934216173   -1.8651096837    0.9867366476
 H    0.9946702711   -0.3742129543    1.8068661102
 H   -0.9047052784   -2.4041964804   -3.0189366147
 H    0.8692171357   -2.4693274857   -3.0900012758
 H   -0.0904194321   -4.7709147191   -3.0962382711
 H    0.8678825625   -4.4924194522   -1.6302158550
 H   -1.2339439272   -3.9672163271   -0.6592252437