20

 C    0.0603665221    1.6033576509    0.0092932975
 C   -0.0616851031    0.0817542685   -0.0029621922
 N    0.5169442884   -0.4954279943   -1.2038586454
 C   -0.1665460390   -0.3066920348   -2.5013056463
 C    0.3043726865   -1.7233400577   -2.9086787634
 O    1.4731334094   -1.7736511095   -3.6862601853
 C    0.4948258460   -1.9594637185   -1.3648881678
 C    1.7419169048   -2.6918593697   -0.9251785774
 O    1.7662798191   -3.8492923384   -0.5970299444
 H    1.1088255815    1.9071823980   -0.0602338522
 H   -0.4788306403    2.0509822044   -0.8323064203
 H   -0.3622261065    2.0151935306    0.9303289557
 H    0.4689654961   -0.3414658963    0.8587829324
 H   -1.1249805240   -0.2095576108    0.1052225196
 H   -1.2636270199   -0.2412229049   -2.4136608624
 H    0.1943916413    0.5271663280   -3.1134514817
 H   -0.4209021011   -2.3743940073   -3.3954521849
 H    2.0856368422   -1.1104220684   -3.3478734124
 H   -0.3889572939   -2.4561127174   -0.9341199396
 H    2.6619033504   -2.0639168625   -0.9412219094