15

 N   -0.0434920213    0.8792210222    0.1056734144
 C   -0.2933506579   -0.4329003144    0.3816651366
 O    0.5207787019   -1.1875245221    0.8747447215
 C   -1.6484309445   -0.8590828400    0.0484704188
 C   -2.7512046596   -1.2768334742   -0.2007700427
 C   -4.0831273946   -1.8056866086   -0.4825208803
 O   -4.0841551428   -3.1736002669   -0.8864732870
 C   -3.7278320603   -4.0760307586    0.0606460676
 N   -3.7520032454   -5.3037087498   -0.2181540629
 H    0.8924242592    1.2223932112    0.2499432450
 H   -0.7037789805    1.4450069487   -0.3984801760
 H   -4.7285225761   -1.6609791734    0.3956215501
 H   -4.5410925043   -1.2652889447   -1.3155384130
 H   -3.4381536508   -3.6216659537    1.0164583846
 H   -3.4591050729   -5.8506266157    0.5888239034