18

 O   -0.1547008715    0.0501714828    0.1558809585
 C    0.0125658693    1.2240317682   -0.0703800230
 C    1.3120215834    1.9241451714   -0.0130869418
 C    1.2948246910    3.4222773385    0.2495337202
 C    1.6661025424    2.9467192067   -1.1134154314
 C    3.1035283322    2.6681657430   -1.4849446862
 C    4.1926036911    2.8771959242   -0.4964240784
 N    3.6358483011    1.5343237898   -0.6960505599
 C    2.5840643469    1.1242630169    0.2664976979
 H   -0.8415353511    1.8833122045   -0.3564347183
 H    0.3160426951    3.8814988619    0.3593011308
 H    2.0454593959    3.8284170733    0.9163813164
 H    0.9719258524    3.1276043598   -1.9264722492
 H    3.3287629761    2.6679379389   -2.5476439571
 H    5.2173995553    2.9965989893   -0.8391932440
 H    3.9743958636    3.4108828519    0.4246630748
 H    2.9435296754    1.2378881995    1.2948456826
 H    2.3608580813    0.0658332895    0.1100501581