12

 C    0.1137614443    1.4655376332    0.0813653089
 N   -0.1471666016    0.0424401102   -0.1376528424
 C    0.6339659756   -0.5409702383   -1.2164526306
 C    2.1065642560   -0.4998576588   -1.0005215057
 N    3.2348071814   -0.4026728758   -0.7722121876
 C    0.2033029601   -1.9282134331   -1.4640039105
 N   -0.1421710828   -3.0126912393   -1.6531550930
 H    1.1649827982    1.7006628815    0.3050669818
 H   -0.1840976069    2.0275185151   -0.8101084256
 H   -0.5062657214    1.8045032006    0.9138247107
 H    0.0011282270   -0.4875429941    0.7148360979
 H    0.4289460902    0.0356332887   -2.1290596340