16

 N    0.0689605181    1.3069945475    0.1914416517
 C   -0.0819887871    0.1083860411   -0.4255641579
 O    0.5494920387   -0.2293686631   -1.4090098170
 C   -1.1193267191   -0.8818037470    0.1127776992
 N   -0.5084922672   -2.0629244766    0.7566891361
 C   -1.6756863674   -2.2305107109    1.6404040392
 C   -2.0569209575   -0.7401641515    1.3685705595
 C   -1.6353973087    0.1817137080    2.4076179017
 N   -1.3038354829    0.9379545491    3.2184579121
 H    0.8284933427    1.8842778116   -0.1360441454
 H   -0.2968617769    1.4927232164    1.1120669440
 H   -1.7558048481   -1.1312544046   -0.7491013782
 H   -0.2850657792   -2.8312351643    0.1347709542
 H   -2.4599669403   -2.8993524115    1.2595466608
 H   -1.4367853706   -2.5002000237    2.6720676226
 H   -3.1051902945   -0.5519118106    1.1328238573