17

 C   -0.0195165212    1.5170053944    0.0039720063
 C    0.0144112367   -0.0014635494   -0.0191331068
 O    0.6811751842   -0.4149624639   -1.1951380931
 C    0.7619972295   -1.8235258476   -1.3037365101
 C    1.4557418661   -2.1966929193   -2.5288776450
 C    2.0263584750   -2.5265090318   -3.5354335370
 C    2.7180565220   -2.9190614496   -4.7542704945
 H    0.9960955772    1.9223088792   -0.0042811175
 H   -0.5484904666    1.9010093331   -0.8726896162
 H   -0.5301836188    1.8737251603    0.9035105130
 H    0.5355422178   -0.3916176133    0.8723637836
 H   -1.0096707073   -0.4129232254    0.0037704636
 H    1.2907903594   -2.2442402372   -0.4299547876
 H   -0.2501189806   -2.2658532858   -1.2960559154
 H    2.7486945216   -4.0095819816   -4.8556207595
 H    2.2182479833   -2.5182308003   -5.6428830355
 H    3.7519077819   -2.5568204019   -4.7610194683