20

 C   -0.3303351453    1.5289462561    0.0153387954
 C    0.0464417750    0.0361114557   -0.0140922010
 N    0.8058162330   -0.2739060813   -1.2163416357
 C    2.0335269851   -0.8557241648   -1.3309481548
 O    2.5494259892   -1.0591309999   -2.4153152126
 C    2.7334097308   -1.2366322363   -0.0347852175
 C    1.9954234357   -0.9348779802    1.2410730044
 C    2.6957086140   -1.3159250157    2.5159358775
 C    0.7906480024   -0.3677899787    1.2245033009
 H    0.5691022028    2.1491109800    0.0655208073
 H   -0.8936946263    1.8045766327   -0.8826279008
 H   -0.9574264493    1.7490273169    0.8848982199
 H   -0.8967262499   -0.5358470381   -0.0428164195
 H    0.3873148802   -0.0390355029   -2.1057194785
 H    2.9690096638   -2.3074193898   -0.1020506626
 H    3.7118383297   -0.7376530518   -0.0443899957
 H    3.6618011251   -0.8023539226    2.6029298579
 H    2.0976356342   -1.0700826147    3.3971955021
 H    2.9136721582   -2.3914007247    2.5380695619
 H    0.2713358718   -0.1613328899    2.1569151815