17

 O   -0.9219664172    0.4610501486   -0.3861318588
 C   -0.4668112455    1.5464733769   -0.1910584458
 O    0.8406449479    1.7552884257    0.0605514008
 C    1.2908711688    3.0857040841    0.2808222345
 C    2.1282027175    3.2931939326    1.5691360873
 C    3.1183952562    4.0839274424    0.7077679532
 C    3.7037646573    5.4023594137    0.9504895624
 O    4.4986814307    4.2048500886    0.9630651930
 C    2.5055232252    3.5210952820   -0.5788217036
 H   -1.0569728265    2.4842648724   -0.1950833754
 H    0.4490429308    3.7820607957    0.2068198844
 H    1.6529770735    3.7918443634    2.4161652091
 H    2.5608270167    2.3436909849    1.8968216563
 H    3.8910809096    6.0758956234    0.1150835901
 H    3.5742455726    5.8845213530    1.9186767027
 H    3.0569692219    2.6433563426   -0.9275014412
 H    2.3261655707    4.1984417399   -1.4160678991