19

 C    0.1157203901    1.4718980100    0.2372900329
 C    0.5282387835    0.0124153918    0.1718100298
 O    0.0566075782   -0.6354427752    1.3507462287
 C    0.3904933481   -1.9777943370    1.4183313025
 C    1.8111081271   -2.4711293072    1.6018042043
 O    2.5885983018   -1.5180264524    2.3194883685
 C    1.7113951185   -1.6294167736    3.4746791685
 C    0.7898851640   -2.5949012807    2.7262441186
 O    0.1941583019   -3.7013918070    3.2938744111
 H    0.5474274389    1.9514656692    1.1203358809
 H    0.4641199309    2.0053144841   -0.6521533435
 H   -0.9727487915    1.5645258580    0.2933542867
 H    0.0988270689   -0.4726602529   -0.7193540453
 H    1.6205161722   -0.0862322676    0.1133573219
 H   -0.2064559664   -2.6495134211    0.7940929435
 H    2.3227963300   -3.1809746389    0.9619796377
 H    2.2314859820   -2.1145146289    4.3071988573
 H    1.2977128606   -0.6632997969    3.7774928784
 H   -0.7414364788   -3.5102636135    3.4237096176