22

 C   -0.0452336608    1.5186446855    0.4239208454
 C    0.0671496842    0.1573394895   -0.2749628863
 C   -1.2738500566   -0.5829836988   -0.2762185957
 C   -1.9079803467   -1.4771277999   -1.3251498235
 C   -0.9800751048   -2.5751291216   -1.9058985227
 N    0.3896813020   -2.4105697594   -1.3541681075
 C   -0.6739438809   -3.0740164630   -0.5540591427
 C   -1.6186382599   -2.0080283013    0.0872189970
 C   -2.5754356351   -2.4005472190    1.1764029024
 H    0.9161257283    2.0424335749    0.4262726740
 H   -0.7749736077    2.1663731299   -0.0759905063
 H   -0.3645808623    1.4065291155    1.4666465895
 H    0.4162156807    0.2962360813   -1.3018631109
 H    0.8311434451   -0.4492558706    0.2146641751
 H   -2.0665268084    0.0560889386    0.1199714382
 H   -2.8719422881   -1.2482451023   -1.7649570568
 H   -1.1516262194   -3.1144276633   -2.8283190244
 H    0.9587148149   -3.1572477124   -1.7547937493
 H   -0.5535740364   -4.0861659765   -0.1882984069
 H   -2.0596170721   -2.5298649326    2.1366944026
 H   -3.3469966371   -1.6364939798    1.3154868293
 H   -3.0812085989   -3.3463974545    0.9454338493