17

 O   -0.1315566171    1.3538816035   -0.2948766400
 C   -0.0434604611   -0.0253214036   -0.1064157104
 C   -0.3739418015   -0.6130965292    1.2459198920
 C   -1.3383115991   -0.7624537786    0.0959728371
 C   -2.6586877534   -0.0053239040    0.0554504802
 O   -3.3859801091   -0.5596420013   -1.0546555303
 C   -2.8568944191   -1.7449172099   -1.4606028195
 O   -3.3324042582   -2.3899521036   -2.3480097866
 C   -1.6287953882   -2.0691911603   -0.6101798537
 H    0.5990993183    1.7719349403    0.1724242341
 H    0.7194048625   -0.5248446382   -0.7046928923
 H    0.1695485415   -1.4883178722    1.5873287832
 H   -0.6423622604    0.0913704948    2.0280237620
 H   -3.2518930775   -0.1552776302    0.9656220798
 H   -2.5241655531    1.0631332833   -0.1180573941
 H   -0.8215404849   -2.4407705287   -1.2444959655
 H   -1.8986738795   -2.8731989121    0.0857332140