15

 C    0.6102058365    1.3120347327   -0.3336211592
 C    0.0101745049   -0.0355407304    0.0201821217
 O    0.1772821033   -1.0030263183   -1.0055939832
 C    1.2653372915   -1.8431407477   -0.6527471069
 C    2.5032756926   -1.5368752854   -1.3662893017
 C    3.5204357139   -1.2838332191   -1.9526059673
 C    1.4176615654   -1.6269392707    0.8684804550
 O    2.0739691799   -2.2472179330    1.6449208722
 O    0.6360162013   -0.5714798090    1.1928609139
 H    1.6798531238    1.2113466101   -0.5345002235
 H    0.1174969526    1.7041637553   -1.2270460466
 H    0.4636064405    2.0155277754    0.4903647778
 H   -1.0617626145    0.0398525467    0.2295522743
 H    0.9743551185   -2.8834242344   -0.8347046211
 H    4.4218516100   -1.0658723521   -2.4712308754