20

 O   -0.1819199172    1.3760884875    0.0085767232
 C    0.0252128292   -0.0131023207    0.0099457216
 C    0.9425638929   -0.6930751477   -1.0545525697
 C    1.1852306125   -1.7872959662    0.0296695868
 C    0.9035328942   -0.6881695245    1.0959284670
 C    0.0612326639   -2.8404587246    0.0028904640
 C   -1.3096986604   -2.1765185525   -0.0833970368
 N   -1.7854765875   -1.4476674729    1.1140110357
 C   -1.3350968559   -0.6927613504   -0.0664842863
 H    0.6773373590    1.8043411163    0.0798770883
 H    0.4974771995   -0.9852473729   -2.0105679939
 H    1.8480645159   -0.1047358035   -1.2347440599
 H    2.1683377889   -2.2612458064    0.0485103070
 H    1.8009901928   -0.0893193252    1.2848532890
 H    0.4263254865   -0.9688687693    2.0340541851
 H    0.1949199938   -3.4848945081   -0.8746647662
 H    0.1180705513   -3.4856996968    0.8875497412
 H   -2.0603698848   -2.6966417800   -0.6727407673
 H   -2.8015125113   -1.4644046993    1.1446581306
 H   -2.0684912233   -0.1536706028   -0.6602156994