20

 C   -0.0769481309    1.5469386236   -0.0049507305
 C    0.0218186836    0.0160522983    0.0091265656
 C    0.8987398944   -0.4774801648    1.1657898449
 C   -1.3932488614   -0.5899319610    0.0511886743
 N   -1.4321082819   -2.0520248878   -0.0665594935
 C   -1.5927384909   -2.8261439116    1.0920169216
 O   -1.6111426283   -4.0228342749    1.1556005672
 C   -1.3313945227   -2.6037941448   -1.3514522719
 O   -1.2987698749   -3.7685415232   -1.6327666124
 H    0.9160879062    1.9997216566   -0.0777709422
 H   -0.6720799742    1.9062413893   -0.8511879440
 H   -0.5433280750    1.9196897036    0.9148073574
 H    0.4860971127   -0.3057545253   -0.9337840981
 H    1.9041662776   -0.0520076642    1.0948793350
 H    0.4795819526   -0.1759159681    2.1334198416
 H    1.0012009794   -1.5665301920    1.1655635206
 H   -1.8861558669   -0.3170475634    0.9905093466
 H   -2.0013717266   -0.1639354081   -0.7538749489
 H   -1.7149847365   -2.1704191587    1.9772122873
 H   -1.2923278163   -1.7970884835   -2.1115550408