18

 C    0.0694135171    1.5398385464   -0.0540639725
 C    0.0723690816    0.0847078661   -0.0194513436
 C    0.0794601755   -1.1196464591    0.0097968694
 C    0.0574438189   -2.5657688631    0.0433007578
 C    0.2673104693   -3.2787163397    1.3893723678
 N   -0.8814614675   -2.9079683999    2.2463011640
 C   -1.0148923315   -4.0201077499    1.2717639027
 C   -1.3666152111   -3.3127453809   -0.0446563026
 O   -2.5204451749   -2.5390152556   -0.0531090267
 H    1.0129423191    1.9326525499   -0.4495169366
 H   -0.7383596281    1.9198208119   -0.6896026488
 H   -0.0713619744    1.9622632322    0.9471627590
 H    0.7227472144   -2.9873790144   -0.7173689935
 H    1.2095800053   -3.5869578505    1.8244165558
 H   -0.7305855738   -3.3177371948    3.1662586769
 H   -1.2865017235   -5.0168488280    1.5966950792
 H   -1.4073435778   -3.9789644595   -0.9082775904
 H   -2.4883565085   -2.0144072011    0.7593544922