18

 C   -0.0641013241    1.5460182017    0.0853383093
 C    0.0535337922    0.0402172609   -0.0489376154
 C    0.4493506039   -0.7780428320   -1.2088040205
 C    1.6993195414   -0.3255623667   -2.0006541479
 C    2.4640202993   -0.3881177912   -0.6574217275
 C    2.8819106542    1.1022997579   -0.7714310140
 C    2.0683088464    1.1735004438   -2.0922219285
 O    1.8999935460    2.0256593355   -2.9142328515
 N    1.2346563056   -0.8491445408    0.1078485902
 H    0.4293084357    2.1183934234   -0.6977956171
 H   -1.1269842472    1.8058222489    0.0465350382
 H    0.3174607241    1.8792652832    1.0563325283
 H   -0.7453918401   -0.4492708231    0.5093542377
 H   -0.1456097734   -1.6214627481   -1.5482107368
 H    1.9382262799   -0.9397217691   -2.8686882966
 H    3.2682565762   -1.1013048308   -0.4856730522
 H    2.6295444780    1.8003056682    0.0268020933
 H    3.9530610521    1.1999427685   -0.9846882989