16

 C   -0.1235870987    1.4580768877   -0.1659786621
 C    1.2828459198    0.9806765555    0.0656175008
 C    0.1443512896   -0.0198145048    0.0385495901
 C   -0.2928300812   -0.7113455258    1.2687689479
 C   -0.7501161709   -2.0108989110    1.3774526910
 N   -1.0368386343   -2.2172829932    2.6877900367
 N   -0.7997662196   -1.1404789626    3.4557216197
 C   -0.3488214814   -0.2266618561    2.6009207381
 H   -0.6242654293    1.9870246365    0.6377685790
 H   -0.3996264261    1.7929806058   -1.1598590064
 H    1.9756903983    0.9867209304   -0.7687005063
 H    1.7412952451    1.1839477943    1.0273750983
 H    0.0833147694   -0.6331947033   -0.8551965323
 H   -0.8881436814   -2.7818076207    0.6355431922
 H   -1.3911889133   -3.0544503402    3.1172439623
 H   -0.0781923060    0.7528916876    2.9684318909