15

 O   -0.8538060178    0.9119640532    0.3222056758
 C    0.0835325225    1.2056160562   -0.3718332745
 C    1.2887851924    2.0050801076    0.1102516686
 C    1.3472957707    2.2064432012    1.6520912930
 N    2.7374538422    1.8260741270    1.9241213023
 C    3.2234139052    1.2180115370    0.7995241440
 C    4.5271130930    0.5022651168    0.8386694649
 O    5.1566324783    0.3572951317    1.8581616881
 N    2.5233440936    1.2932449071   -0.2780761138
 H    0.1472827761    0.9038065479   -1.4377732207
 H    1.2568557332    2.9637661768   -0.4304263013
 H    1.1485690796    3.2373045712    1.9538952099
 H    0.6239278896    1.5513300871    2.1519141264
 H    3.0463320873    1.5056710853    2.8290670212
 H    4.8512586341    0.1040344539   -0.1407497639