20

 C   -0.0032265047    1.3874681271    0.0905345333
 O   -0.0151473632    0.0255036995   -0.3012710947
 C   -1.2382069762   -0.6084563338   -0.0828138354
 C   -1.3733149507   -1.9898809208   -0.7088053669
 N   -0.4325427263   -2.9005610379   -0.0106325321
 C   -1.7446970616   -2.5899595195    0.6050064057
 C   -1.5656505563   -1.2564669349    1.3379502444
 C   -0.5035218554   -1.2100889251    2.4194375848
 O   -0.5911064101    0.0591843852    3.0683062379
 H    0.9891837319    1.7783658293   -0.1478100640
 H   -0.7540579233    1.9692184864   -0.4675772053
 H   -0.1935000629    1.4963514306    1.1647923817
 H   -2.0740026187    0.0366408875   -0.3921691426
 H   -1.7247339234   -2.2235314962   -1.7062296556
 H   -0.5226295206   -3.8085692623   -0.4658487331
 H   -2.4621091436   -3.3717555003    0.8212395284
 H   -2.5072743388   -0.8685273646    1.7357481360
 H   -0.6829124167   -2.0254745577    3.1390841149
 H    0.4829198421   -1.3651609314    1.9698823427
 H    0.1809593684    0.1559158489    3.6332184898