20

 C   -0.0724985481    1.5449016873   -0.1196236847
 C    0.0776117644    0.0466057002    0.0444260536
 C    1.3308326479   -0.7530654295   -0.1839321119
 C    2.5744856974   -0.0227900493    0.3370487459
 C    1.9615838778   -0.0447990082    1.7888901449
 C    2.7122749674   -1.0106459151    2.7183634791
 C    1.8085777006    1.2486943355    2.4581050751
 N    1.7024065039    2.2659146502    2.9984541576
 C    0.6837692643   -0.6922052882    1.2085541702
 H    0.8077233435    2.1045907320    0.2006445192
 H   -0.2598996167    1.7899716678   -1.1707098419
 H   -0.9189804314    1.9152604432    0.4673657980
 H   -0.7947417762   -0.4976265881   -0.3160422044
 H    1.3615633759   -1.5876505727   -0.8736123521
 H    3.4879477298   -0.6185266657    0.2918780813
 H    2.7773235752    0.9617950830   -0.0910700549
 H    3.7072812074   -0.6261214023    2.9598568428
 H    2.1640842058   -1.1559553474    3.6539182314
 H    2.8203373913   -1.9820733217    2.2272976637
 H    0.1369030297   -1.4578765910    1.7475680569