22

 C    0.9363743421    1.3597090832    0.2614835238
 N    0.9032627336   -0.0992257172    0.3399046371
 C   -0.3818918578   -0.8953345108    0.4427209139
 C    0.5937731245   -2.1108623042    0.6747606829
 O    1.4252376177   -2.4955814520   -0.3614057901
 C    1.0467492640   -0.9357094729    1.6070207786
 C   -0.4554674329   -0.7075653188    2.0046887720
 C   -0.8228168243    0.6511319003    2.6213745974
 C   -1.2128750786   -1.7734978728    2.8179091220
 H    1.6911130980    1.7580454660    0.9481043979
 H    1.2400567712    1.6427404825   -0.7535867654
 H   -0.0143488219    1.8625389908    0.4682275976
 H   -1.1766230657   -0.7930236410   -0.3009997988
 H    0.2016542684   -3.0069656005    1.1425043080
 H    1.7375611257   -1.6438506811   -0.7144271677
 H    1.9406258881   -0.8663035679    2.2327658263
 H   -1.7983619364    0.9994089353    2.2623320866
 H   -0.9074177045    0.5384182969    3.7077631598
 H   -0.0945549744    1.4382839617    2.4454937845
 H   -0.8021970362   -1.8384658208    3.8319416481
 H   -2.2619540245   -1.4721799611    2.9175766609
 H   -1.2080206163   -2.7762544055    2.3917531146