21

 C   -0.0909861813   -1.2440374186   -0.0156086439
 C   -0.0686115885   -0.0418192187   -0.0092986122
 C   -0.0115842577    1.4148541098   -0.0086898377
 C    1.4319822740    1.9830453287    0.0234371416
 C    1.4145611625    3.5092189290   -0.1592073673
 C    2.7888356224    4.1208490735    0.1359266966
 C    3.2105275270    3.8461983971    1.5870304289
 C    2.9215798795    2.4248207093    1.9947303330
 C    2.1497887056    1.5945748641    1.2940687551
 H   -0.1235136776   -2.3051578317   -0.0206363188
 H   -0.5217868189    1.7966673725   -0.9026246752
 H   -0.5680088944    1.8040401896    0.8540839577
 H    1.9630124288    1.5323026960   -0.8284921143
 H    1.0888745268    3.7600005977   -1.1754162895
 H    0.6719005678    3.9426975746    0.5253576780
 H    3.5298238028    3.6822597025   -0.5447241189
 H    2.7798208966    5.1981800075   -0.0609726607
 H    4.2786802619    4.0604013077    1.7194812179
 H    2.6901310626    4.5352412474    2.2695904274
 H    3.3842369092    2.0746477814    2.9150516447
 H    2.0016130407    0.5723837607    1.6335548575