18

 C   -0.2100127357    1.5125311225   -0.0261341281
 C    0.0669503915    0.0134561405   -0.0050073364
 N    0.9421910083   -0.3778095159   -1.1123846417
 C    1.1188869417   -1.8011915052   -1.1760847406
 C    2.5024271831   -2.3488062348   -0.8750763871
 C    1.4195666823   -2.3963537161    0.1651214736
 O    1.4958791465   -1.5320184428    1.2775524439
 C    0.7533717636   -0.3902553298    1.3059984853
 O    0.6846146601    0.2379417016    2.3243352709
 H    0.7288270434    2.0723290868   -0.0259718507
 H   -0.7779087109    1.7801533635   -0.9233314086
 H   -0.7850058187    1.8028963854    0.8536526813
 H   -0.8984179095   -0.5289944434   -0.0251420911
 H    0.6252272841    0.0114355565   -1.9910221052
 H    0.4670476171   -2.3717118222   -1.8383195911
 H    2.8112125683   -3.2861265130   -1.3240341839
 H    3.2796652448   -1.6070774580   -0.7363094133
 H    0.9934054199   -3.3550813659    0.4405177328