23

 C    0.0818651666    1.6606888786   -0.1361938047
 C   -0.0079243592    0.1349358240   -0.2322317606
 C   -1.3637385106   -0.5019669175    0.0586888893
 C   -2.3118956530    0.0810978752    1.0763011985
 C   -2.6490371661    0.1430303319   -0.3964603729
 C   -1.2977370952   -2.0123358416   -0.0391165033
 C   -0.6366343092   -2.8022801965    1.1186498747
 C   -1.9818270946   -3.5477257296    1.1838606426
 O   -2.5662066490   -2.6714012040    0.1961678910
 H    1.0954551455    1.9919755786   -0.3817407135
 H   -0.6007202199    2.1561906341   -0.8331897953
 H   -0.1442072810    2.0211777989    0.8717824695
 H    0.3038499834   -0.1734288605   -1.2403203821
 H    0.7329284927   -0.3010445956    0.4529668377
 H   -2.8857648873   -0.6133235553    1.6793771272
 H   -2.0398978287    1.0018152475    1.5795451889
 H   -2.6012994156    1.1047964628   -0.8946235923
 H   -3.4365526133   -0.5131886428   -0.7484273736
 H   -0.9044384271   -2.2934454536   -1.0284288902
 H    0.2394165435   -3.4004689395    0.8648737539
 H   -0.4193508988   -2.1888806422    1.9953549333
 H   -1.9530920036   -4.5874353814    0.8332540219
 H   -2.5235064596   -3.5097388014    2.1359487900