17

 C    0.0691568642    1.4543256555   -0.0563018131
 C    1.3966975723    0.7266248640    0.0291308965
 C    1.9851691611    0.4809988844    1.4023535229
 O    0.8831170281    0.0224245864    2.1960641275
 C   -0.0365425908   -0.6992980225    1.3676933456
 C    0.0854557186   -0.0514195698    0.0042800198
 N    0.0208713110   -0.7909873098   -1.2373209261
 C    1.1007088404   -0.4899743785   -1.8632067782
 N    2.0274521625    0.3025115495   -1.1910992145
 H   -0.2487156295    1.9811161538    0.8367945634
 H   -0.2028903495    1.9147573630   -0.9991568588
 H    2.7791755094   -0.2775268162    1.3213936897
 H    2.3859008756    1.3616229784    1.9143358942
 H    0.2301108750   -1.7639009373    1.2886071949
 H   -1.0191090851   -0.6146253852    1.8408892662
 H    1.3364897010   -0.8464833827   -2.8619436687
 H    2.6434733256    0.9101786869   -1.7098968113