17

 C   -0.0933756380    1.6344560133   -0.1851612209
 C   -0.0210391703    0.1213274053   -0.0547120865
 C    0.7084818214   -0.6522483036   -1.1685672543
 O    2.0489898785   -0.1621282448   -1.2028391074
 C    1.7327827898   -1.1668091205   -0.2382704741
 C    1.0427590399   -0.4882567765    0.9431289960
 O    1.8414117069    0.4308883267    1.6720828618
 C    1.8000225590    0.3921299284    3.0194296740
 O    2.4229006964    1.1407986305    3.7078741116
 H    0.8867211190    2.0433277016   -0.4373203576
 H   -0.8048220352    1.9190299136   -0.9671782367
 H   -0.4230492263    2.0929573012    0.7521403576
 H   -1.0057636999   -0.3089612487    0.1534143813
 H    0.3102702248   -1.0950689121   -2.0734317461
 H    2.3233828274   -2.0752490345   -0.2504086156
 H    0.5858421441   -1.2165132618    1.6230087981
 H    1.1340508225   -0.4060753781    3.4042099287