21

 C    0.3020447060    1.6780321720    0.4900807801
 C    1.3701203494    0.7654957560   -0.0588850260
 C    2.3070084390    0.0907423026    0.9329440223
 C    1.4009695990   -0.6814364778    1.9359299338
 C    1.1247507684   -0.0201839873    3.2657159206
 C   -0.1760926094    0.0632423595    3.5403143175
 C   -1.0355162755   -0.5096128051    2.4395927993
 C   -0.0255795737   -0.7860863330    1.2891945525
 C   -0.0307624092    0.2404842805    0.1601147247
 H    0.3573189752    1.9857995686    1.5280439420
 H   -0.0912920563    2.4372005736   -0.1781184149
 H    1.7421722363    0.9582764033   -1.0596414648
 H    2.9545084034   -0.6120294393    0.3968089144
 H    2.9676706880    0.7996744254    1.4456135284
 H    1.8351388489   -1.6733956131    2.1155946267
 H    1.9243898084    0.3106675778    3.9211551057
 H   -0.5967817097    0.4753457405    4.4518297841
 H   -1.5355819120   -1.4290906623    2.7732925554
 H   -1.8323802424    0.1773723226    2.1290595120
 H   -0.1912583384   -1.7771253353    0.8569194252
 H   -0.6941172956    0.0600557707   -0.6795182791