14

 O    0.0113806412    0.0639349094    0.0470486659
 C    0.0168942195    1.2578200725    0.0710618286
 C   -1.0491962477    2.3191457059   -0.0055599794
 C   -0.4509389251    3.5680202841    0.6410956928
 C    0.9193726583    3.1946137267    1.2192054714
 C    1.1178424372    2.3328219852   -0.0599918597
 C   -0.0166455352    3.2085300705   -0.7557179615
 C   -0.1273100691    3.8326132083   -2.0163978500
 N   -0.1997921240    4.3512417801   -3.0493738418
 H   -2.1041048395    2.2285563964   -0.2238605148
 H   -1.1008889464    4.3855345507    0.9249865490
 H    1.5867761393    4.0586390737    1.2379676706
 H    0.9527128032    2.6695826414    2.1788885140
 H    2.0953619882    2.0976519949   -0.4688943252