20

 C    0.4696857991    0.9261959010   -0.4614796198
 O   -0.2537770242    0.0440425988    0.3742939664
 C    0.5134936040   -0.6206672162    1.3702641906
 C   -0.3993745634   -0.8973275632    2.5559250070
 C    1.1111938555   -1.8917802438    0.8067421534
 N    0.8239171441   -3.0789820618    1.1492767142
 C    1.6491199912   -3.9702345088    0.3205984168
 C    2.4248610171   -3.0194371868   -0.6266309487
 O    2.0432355453   -1.7005463666   -0.1731601670
 H    1.2018160765    0.4016628218   -1.0858465739
 H   -0.2639729310    1.4207705188   -1.1032749494
 H    0.9971295613    1.6929431124    0.1273526798
 H    1.3496721295    0.0273185942    1.6795304057
 H    0.1449768494   -1.4099960340    3.3518233585
 H   -0.7937705645    0.0482024527    2.9355500684
 H   -1.2312086742   -1.5338703891    2.2481073113
 H    2.3128397571   -4.5613333333    0.9611903926
 H    1.0113991065   -4.6744775444   -0.2227625169
 H    3.5118003622   -3.1057634391   -0.5506909580
 H    2.1335006484   -3.1195040226   -1.6764013408