21

 O   -0.0040914559    1.4344587797   -0.0681206624
 C    0.0003074145    0.0265396560    0.0413106375
 C    0.2425594400   -0.6275593980    1.4325290692
 C   -0.9376945968   -1.5961459528    1.1163350419
 C   -1.4299618423   -0.5567814958    0.0670850418
 C   -0.4994824722   -2.9401260590    0.5204728629
 C    0.2203619524   -2.8486346999   -0.8335781498
 O    1.2938283985   -1.9201484504   -0.8432873262
 C    0.9126883460   -0.5746834332   -1.0464321782
 H    0.9042738339    1.7489285217    0.0037761674
 H    1.2238359015   -1.0681992326    1.6233011810
 H   -0.0162488349    0.0765310702    2.2273223834
 H   -1.6187562127   -1.7782094503    1.9508329767
 H   -2.1077903293    0.1740232447    0.5142837514
 H   -1.8619309311   -0.9131995898   -0.8724413792
 H    0.1559162817   -3.4475202531    1.2394677791
 H   -1.3759397847   -3.5874059415    0.3830854364
 H    0.6584096388   -3.8213637804   -1.0801614032
 H   -0.4928373115   -2.6023051195   -1.6355738904
 H    0.4318419385   -0.4458122286   -2.0303518932
 H    1.8543809756   -0.0113122574   -1.0592441162