20

 C    0.0709477911    1.5177925714    0.1913735985
 C    0.0149690824    0.0031546884   -0.0123217751
 C    0.6931389458   -0.4798967896   -1.3154951782
 C    2.1085271466   -0.0952235569   -1.3528323509
 N    3.2247764837    0.2028010657   -1.3919736574
 C    0.5380100941   -2.0006487887   -1.4858244707
 C    1.3737506007   -2.7328503003   -2.5582765421
 C    1.9567829026   -3.5119642393   -1.3614090729
 O    1.1761639772   -2.7321241627   -0.4230404114
 H    1.1040352201    1.8735242998    0.2487807873
 H   -0.4218514271    2.0495708934   -0.6302045975
 H   -0.4331799054    1.7991850692    1.1203045333
 H    0.4865965157   -0.5174155592    0.8265623985
 H   -1.0281465703   -0.3325575936   -0.0474528080
 H    0.2030748926    0.0013340643   -2.1740411547
 H   -0.5387425534   -2.2186683661   -1.5252697963
 H    0.8008484768   -3.3184021054   -3.2778499403
 H    2.0916456310   -2.1041228471   -3.0867670800
 H    1.6930567303   -4.5749562950   -1.3173977802
 H    3.0308697656   -3.3958633384   -1.1864355117