23

 C    2.2332685278   -0.2652497119    0.7893513311
 C    1.1085548180    0.1219016444   -0.1766998813
 C    1.3910428650   -0.2017211897   -1.6617560712
 O    2.6553620640    0.3495220207   -2.0551282186
 C    1.4290022333   -1.7179176283   -1.9681262818
 C    0.0371854577   -2.0706212292   -2.5421214708
 C   -0.4777537850   -0.7328342722   -3.0101884380
 C    0.2482997194    0.2879832607   -2.5546890804
 C    0.0425087518    1.7449624670   -2.8292964047
 H    2.3955912131   -1.3471548008    0.8114079483
 H    3.1781452902    0.2007745087    0.4977864480
 H    1.9932365450    0.0535087736    1.8083525786
 H    0.1730708977   -0.3727151356    0.1115555297
 H    0.9150442218    1.2003335211   -0.0856595740
 H    2.6856155725    1.2662710935   -1.7606379481
 H    2.1979415704   -1.8691496860   -2.7303955027
 H    1.7018677898   -2.3232356620   -1.1008273911
 H    0.0921482083   -2.8107379054   -3.3486876098
 H   -0.6220011134   -2.5044345733   -1.7767756217
 H   -1.3579332661   -0.6313068548   -3.6379671121
 H   -0.7987276804    1.9085998681   -3.5078853615
 H   -0.1539873970    2.3143106997   -1.9116247271
 H    0.9367869059    2.1824676317   -3.2903668409