16

 O   -0.4281790461    1.5585755495   -0.5811322912
 C    0.0694708971    0.3402070633   -0.0253876116
 C   -1.0324663133   -0.6774493857    0.3628880171
 C   -1.0641122653   -1.7350765117   -0.7839732370
 C    0.2847585303   -1.5225384371   -1.4603501927
 C    0.9039501519   -0.4279338882   -1.0250019761
 C   -1.2789879231   -3.1014010333   -0.3208421794
 C   -1.4493754347   -4.2281650613    0.0621356887
 H   -0.7650415654    1.3578644289   -1.4614271818
 H    0.6381306124    0.6618853308    0.8524464989
 H   -0.7609846902   -1.1793048941    1.2947762761
 H   -1.9929782704   -0.1806017420    0.5133664072
 H   -1.8637178811   -1.4995282399   -1.5023775836
 H    0.6496196336   -2.2077049412   -2.2169167570
 H    1.8565291366   -0.0560295259   -1.3851604702
 H   -1.6023317520   -5.2228313020    0.4008049927