17

 C   -0.0838251332    1.4708115413    0.2264236770
 C    0.1392576067   -0.0182664114   -0.0231782562
 C    0.7317298462   -0.2947024266   -1.4054693099
 O    0.9916656241    0.5677780226   -2.2033745757
 N    0.9372591368   -1.6642580607   -1.6372555094
 C    1.4609952377   -2.2809505386   -2.7849929311
 C    1.5278700931   -3.7964080826   -2.6524096824
 O    1.8179570928   -1.6826510406   -3.7655329752
 H    0.8565801514    2.0218621651    0.1532252064
 H   -0.7655831937    1.8910928651   -0.5165024764
 H   -0.5075848271    1.6332063625    1.2211983223
 H    0.8121922458   -0.4453716446    0.7328300503
 H   -0.8030955749   -0.5756997687    0.0665688314
 H    0.6759076748   -2.2817663063   -0.8832182906
 H    0.5314446869   -4.2189422840   -2.4831532338
 H    1.9415760838   -4.2070492702   -3.5724496181
 H    2.1620400686   -4.0882036524   -1.8081983085