23

 C   -0.1351068868    1.5678793798    0.0783450603
 C   -0.0252015234    0.0325500293    0.0143847650
 C   -1.4379093992   -0.5705914581    0.0080434653
 C    0.7404817009   -0.4092692572   -1.2521500641
 C    2.1795328094    0.1252995640   -1.3150588688
 C    2.8784006805    0.0131586731    0.0125538004
 C    2.2401815306   -0.2784821485    1.1449969487
 C    0.7523271948   -0.5130985794    1.2443630079
 O    0.2411945999   -0.0192771346    2.4838096573
 H    0.8416092445    2.0501000839    0.1842116960
 H   -0.6021990500    1.9549552156   -0.8334652266
 H   -0.7602832492    1.8773686931    0.9214284878
 H   -2.0419324493   -0.1530963296   -0.8050685822
 H   -1.4029608059   -1.6577056102   -0.1260893433
 H   -1.9452709447   -0.3643712056    0.9548434312
 H    0.7710282973   -1.5066092975   -1.2723218226
 H    0.1828599137   -0.0997262263   -2.1442970516
 H    2.7468104643   -0.4197937680   -2.0803155204
 H    2.1918418106    1.1746033604   -1.6446559677
 H    3.9530633823    0.1822158735    0.0255332876
 H    2.7820904382   -0.3661738320    2.0842304937
 H    0.5672738995   -1.5951490529    1.3040560082
 H    0.5292360722    0.8956758875    2.5708556880