19

 C    0.0131567448    1.5770071268    0.0472964478
 C    0.0096008707    0.0440353916    0.0125514873
 C    0.8025423417   -0.5509962213    1.1826752400
 C   -1.4412195394   -0.4792489205    0.0091967031
 O   -2.1043959888    0.0628150788   -1.1302336421
 C   -3.4607675326   -0.0012911062   -1.1424785184
 N   -4.0894089581    0.4808749057   -2.1195897851
 C   -1.5001633549   -1.9545754960   -0.0258170235
 N   -1.5569984289   -3.1082519975   -0.0511250507
 H    1.0404462558    1.9491938729   -0.0016802915
 H   -0.5463988982    1.9966879920   -0.7904529400
 H   -0.4299091467    1.9482376246    0.9792637769
 H    0.4594853464   -0.2898839852   -0.9300442608
 H    0.3702911704   -0.2525379422    2.1451186169
 H    0.8313058731   -1.6433230735    1.1466386987
 H    1.8327019235   -0.1854488363    1.1571696693
 H   -1.9437826656   -0.1464032534    0.9295901858
 H   -3.8868208747   -0.4883780731   -0.2559800496
 H   -5.0916451786    0.3638606330   -1.9862100442