23

 C   -0.0412455149    1.5506416720    0.0107844002
 C    0.0414611962    0.0224056836    0.0067303675
 C    0.9223472583   -0.5704675504   -1.1167181190
 C    2.3646853143   -0.2765740051   -0.6329131144
 C    2.2689752850   -0.2858708042    0.9226974586
 C    0.7784421354   -0.5844840150    1.2225181276
 C    0.5308356240   -2.1023102900    1.2130810181
 O    1.0747348413   -2.7175733088    0.0538753074
 C    0.6765699495   -2.0881179786   -1.1558280174
 H    0.9450078760    2.0200548822    0.0741724815
 H   -0.5223116497    1.9167484890   -0.9029121213
 H   -0.6307976085    1.9062069512    0.8630180715
 H   -0.9804565930   -0.3732976507   -0.0585050081
 H    0.7066889322   -0.1464712623   -2.1034670162
 H    3.0691326077   -1.0266415814   -1.0018691068
 H    2.7060598640    0.6943912643   -1.0023292870
 H    2.9234784962   -1.0407465139    1.3662805788
 H    2.5617284976    0.6803999008    1.3426962626
 H    0.4431489020   -0.1721491890    2.1803879977
 H    1.0229859137   -2.5884564246    2.0619601067
 H   -0.5515821620   -2.3055846595    1.2861603608
 H   -0.3885776510   -2.2897169264   -1.3634494275
 H    1.2694178256   -2.5644513931   -1.9437263712