19

 C   -0.0708664437    1.4575779711   -0.0121655928
 N    0.0003057136    0.0114220713    0.0155911583
 C    0.0173974921   -0.7840467642   -1.1280323887
 N   -0.0282732971   -0.3057556069   -2.3058172370
 C    0.0971948373   -2.2040731285   -0.5699986262
 N    0.1185428307   -2.0751393946    0.8895113612
 C    0.0618886953   -0.8180712351    1.1347327023
 C    0.0595486089   -0.2331985415    2.5270905232
 N    0.1276352794   -1.2020199528    3.6102380315
 H    0.8064456096    1.9122053991    0.4603487477
 H   -0.1034907125    1.7543398090   -1.0616354448
 H   -0.9715493458    1.8254148022    0.4909696059
 H   -0.0050822954   -1.0503009486   -2.9999267412
 H   -0.7617167817   -2.8041711333   -0.8935023180
 H    0.9975234701   -2.7184399835   -0.9268279557
 H    0.9014962364    0.4663303235    2.6168246796
 H   -0.8429516287    0.3806087933    2.6497458201
 H   -0.6437380065   -1.8561016891    3.5023141403
 H    0.9560238180   -1.7760585513    3.4734015943