16

 C   -0.0025591353    1.5267292781   -0.0025170145
 C    0.0011738507    0.0222534113   -0.0075621458
 C   -0.0528579514   -0.7150579257   -1.1870769585
 C   -0.0313121430   -2.1054245408   -1.1482107792
 N    0.0379153081   -2.7959191698   -0.0075373374
 C    0.0841146139   -2.0995444296    1.1247410827
 C    0.0722368081   -0.6999146034    1.1973685782
 N    0.1924954605   -0.0474966409    2.4263240353
 H    0.8673732126    1.9234361362    0.5343740515
 H    0.0123353276    1.9248374009   -1.0196193992
 H   -0.8956714903    1.9308938247    0.4940775609
 H   -0.1085980015   -0.2001013347   -2.1414737922
 H   -0.0713163989   -2.6854238317   -2.0662861596
 H    0.1380906641   -2.6768224883    2.0480572114
 H   -0.0182876813   -0.6293021759    3.2250751899
 H   -0.2824056039    0.8414307297    2.4896332465