23

 C    0.0048416024    1.5838461751   -0.0984018135
 C    0.0615787776    0.0559055250   -0.0023241370
 C    0.7161290282   -0.4569663577    1.2951563515
 C   -0.1458509699   -0.1123896686    2.4929242734
 O    0.2226289190    0.4700133080    3.4803854914
 C    0.9196714440   -1.9782562566    1.2647384521
 C    1.9447803613   -2.5737781464    0.2546999359
 C    2.3809267141   -3.5804819531    1.3536830721
 C    1.7199455097   -2.6588173245    2.4129079968
 H    1.0100292403    2.0173924552   -0.0666951958
 H   -0.4683143964    1.9021983284   -1.0321365032
 H   -0.5644521991    2.0196629402    0.7295850856
 H   -0.9522755191   -0.3607548733   -0.0787811675
 H    0.6190761139   -0.3486290716   -0.8548362878
 H    1.6876257166    0.0304609813    1.4442543521
 H   -1.2007440923   -0.4730428802    2.4027413712
 H   -0.0519160031   -2.4734745322    1.1415105269
 H    1.5612108972   -2.9761132782   -0.6858924570
 H    2.7388503390   -1.8546895409    0.0275081388
 H    1.8547812011   -4.5346494597    1.2598398472
 H    3.4491038641   -3.7840136884    1.4555743183
 H    2.4398465810   -1.9649327006    2.8577007814
 H    1.1525609106   -3.1286789211    3.2196266072