18

 C   -0.0347621185    1.5394938489    0.0494834762
 C   -0.0321898402    0.0293628522   -0.0008937107
 C    0.3596914068   -0.8022956554   -1.2739844551
 C   -0.3591740700   -1.9544839134   -0.4985063800
 C    0.5313893231   -2.0431234865    0.7459233149
 C    0.7429210798   -0.7610188259    1.0682504889
 C   -1.3637923021   -0.8293511201   -0.0407743347
 O   -2.1602817755   -0.9756783796    1.0880550888
 H    0.9821032406    1.9458910093    0.0072740358
 H   -0.5980704911    1.9624551455   -0.7886462709
 H   -0.4993727068    1.8972861625    0.9751316269
 H   -0.1653473637   -0.4836254661   -2.1810137131
 H    1.4263997808   -0.9327517806   -1.4658939252
 H   -0.6876238653   -2.8746821554   -0.9798711136
 H    0.8862723597   -2.9458155862    1.2233678097
 H    1.3161769575   -0.3336764815    1.8801276576
 H   -2.0282373109   -0.5121197511   -0.8500770691
 H   -1.5732834743   -1.2626707565    1.8016296337