25

 C   -0.2648953094    1.6315150750    0.0789759974
 C   -0.1104786855    0.1069346131    0.1052085354
 C    0.7377299857   -0.4895589002    1.2307751933
 C    2.0685102998    0.1442700069    1.5676702581
 C    0.9131555093    0.2546969723    2.5344441790
 C    0.6827139686   -2.0173389324    1.3545942853
 C   -0.6913410400   -2.5471110485    1.7910704243
 C    1.1658114049   -2.7143770943    0.0791753947
 O    1.3561458485   -4.0919402794    0.3799568577
 H    0.6990771217    2.1470400901    0.0235932424
 H   -0.8439623766    1.9324958668   -0.7995197590
 H   -0.7953682395    2.0023380646    0.9610420938
 H   -1.1136072944   -0.3344432510    0.1490826177
 H    0.3142897248   -0.2141267219   -0.8551712735
 H    2.8931500331   -0.5120765527    1.8267311758
 H    2.3735043141    1.0408594376    1.0388652485
 H    0.4481547247    1.2256093190    2.6572155788
 H    0.9534272466   -0.3303461871    3.4475959323
 H    1.4041123915   -2.2990288103    2.1334323144
 H   -1.4653503419   -2.3324733329    1.0460649097
 H   -0.6491278446   -3.6311022681    1.9195197829
 H   -1.0029826045   -2.0949691534    2.7376636770
 H    0.4249351664   -2.5902953111   -0.7261800923
 H    2.1056725229   -2.2507279312   -0.2599207656
 H    1.5782703838   -4.5496864907   -0.4356048180