14

 O   -0.2170441315    0.0170020368   -0.1747186662
 C   -0.0762924964    1.1974218177   -0.0382206430
 C    1.3158974571    1.8763897684   -0.0484564493
 N    1.3554404168    2.7225946018   -1.2410568445
 C    2.5775318193    3.5220282681   -1.3744191565
 C    2.5473574228    4.2843622659   -2.6232289073
 N    2.5347920200    4.8657716717   -3.6206418357
 C    1.4555731204    2.6862912589    1.1670403074
 N    1.5532589400    3.3080214697    2.1359468588
 H   -0.9183578104    1.9097061401    0.0605896326
 H    2.0756354959    1.0785697962   -0.0232767496
 H    1.2428198222    2.1319417079   -2.0593974889
 H    2.6337988614    4.2230532532   -0.5343576023
 H    3.5041692522    2.9236838736   -1.3571948656