17

 C    0.0612419190    1.5353546463   -0.0871443687
 C   -0.0013428637    0.0162507114    0.0776884698
 O    0.6119025073   -0.4105894691    1.2843202832
 C   -1.4311619538   -0.5268157110   -0.0123854894
 C   -1.5625630759   -2.0644259704    0.1341129906
 N   -2.4901358090   -2.2712545680    1.2611860830
 C   -2.7360718690   -1.1186332554    1.7169924988
 O   -2.1877560584   -0.0208928276    1.1297432418
 H    1.0938542013    1.8786491057    0.0131020521
 H   -0.3146152756    1.8422668824   -1.0688796595
 H   -0.5478966018    2.0300893280    0.6763579939
 H    0.5775354991   -0.4606553465   -0.7234547015
 H    0.0906198712   -0.0387844974    2.0060283963
 H   -1.9219868116   -0.1486919523   -0.9160062981
 H   -1.9563707414   -2.5397454454   -0.7683783323
 H   -0.5985641254   -2.5260638879    0.3722240298
 H   -3.3692394823   -0.8964965328    2.5691619402