20

 C    0.0934382561    1.5570538216    0.0394660890
 C   -0.0245282205    0.0298707614   -0.0008086718
 C   -1.4657205498   -0.5146024779   -0.0404637222
 C   -2.2060631188   -0.0845244874   -1.3152919933
 C   -1.4546608745   -2.0463010959    0.1293538766
 C   -2.8332738681   -2.6918608681    0.3040269499
 H    1.1387125690    1.8648001521    0.1446246573
 H   -0.2934305720    2.0248538550   -0.8708339913
 H   -0.4611738151    1.9738995118    0.8880423638
 H    0.5265573120   -0.3572443153   -0.8695802529
 H    0.4779536346   -0.3848992014    0.8825907622
 H   -2.0032768688   -0.0902521479    0.8221018452
 H   -1.7082088477   -0.4846969102   -2.2074431417
 H   -3.2394926582   -0.4421646232   -1.3232600939
 H   -2.2415031127    1.0039390503   -1.4149791925
 H   -0.9461574127   -2.4968551071   -0.7347919274
 H   -0.8376456398   -2.2931503385    1.0030056749
 H   -2.7395865804   -3.7654079845    0.4965888329
 H   -3.3722487217   -2.2497917004    1.1499160004
 H   -3.4594701308   -2.5742676543   -0.5854585650