22

 C    0.0363547400    1.5918846270   -0.0370562977
 C    0.0382243403    0.0602645070    0.0335244653
 C    0.7099706008   -0.6141310941   -1.1924988940
 C    1.4644606922   -1.8186526271   -0.6242919717
 C    1.3315783177   -3.1912512142   -1.1916664087
 N    2.5946282549   -2.4434672557   -1.3353064324
 C    1.5757445711   -1.5483003938    0.8320334482
 C    0.8046240368   -0.5272933446    1.2149343838
 C    0.6163800382   -0.0184530837    2.6099397516
 H    1.0595183772    1.9823939715   -0.0778338666
 H   -0.4912543331    1.9388345740   -0.9318042386
 H   -0.4602538297    2.0360738085    0.8314206113
 H   -1.0097411136   -0.2704418103    0.1070567384
 H   -0.0028454815   -0.8813047941   -1.9779511919
 H    1.4348296753    0.0849373720   -1.6302436313
 H    1.3884854987   -4.0616225785   -0.5425741684
 H    0.6936753934   -3.3198366736   -2.0633807653
 H    2.6591351414   -2.0575795095   -2.2751205980
 H    2.1949933957   -2.1557021420    1.4829044019
 H    1.1990407113   -0.6001169058    3.3291787666
 H    0.9169657725    1.0323588863    2.7026370612
 H   -0.4390296296   -0.0664451695    2.9098690161