23

 C   -0.0245895545    1.5462867425    0.0081784809
 C   -0.0248035433    0.0356622167   -0.0143133091
 C    0.3624095289   -0.7987100036   -1.2733637761
 C   -0.4148681135   -1.9447437213   -0.5565912200
 C   -0.9512221205   -3.1578905866   -1.2798451629
 C    0.4825620855   -2.1812263367    0.6794511970
 C    0.7740374453   -0.7013310487    1.0846818543
 C   -1.3451832997   -0.7982782229   -0.0466751758
 O   -2.1550741627   -0.9501113928    1.0902594955
 H    0.9936948294    1.9481265805   -0.0504807720
 H   -0.5952708248    1.9587325859   -0.8306579449
 H   -0.4759387066    1.9216563331    0.9338991968
 H   -0.1375539753   -0.4514545970   -2.1819445080
 H    1.4274094675   -0.9551434749   -1.4680679196
 H   -0.1404266340   -3.8095575718   -1.6259060656
 H   -1.5943841508   -3.7514516168   -0.6198391457
 H   -1.5459637836   -2.8718203442   -2.1538469769
 H   -0.0315438605   -2.7518471763    1.4619201889
 H    1.3891824714   -2.7373835303    0.4231932663
 H    1.8390239479   -0.4534541846    1.0486210088
 H    0.4217411990   -0.4501955971    2.0921469665
 H   -2.0128154540   -0.4495818362   -0.8398415853
 H   -1.6105986412   -1.2577749372    1.8216927169