20

 C   -0.0110269503    1.4915116319   -0.0351959208
 C   -0.0023529409   -0.0167607063    0.0050694772
 N   -0.8014208892   -0.7420362706    1.0032077678
 C    0.6786317028   -0.7728427353    1.0930834355
 C    1.3693180256   -2.0820696718    0.7111869643
 C    1.2691236333   -2.2920451220   -0.8045174377
 C    1.6152546816   -1.0158107130   -1.6090994098
 C    0.1192889508   -0.7228691204   -1.3487888600
 O   -0.1233182430   -2.1400167845   -1.1997778618
 H    0.8283494092    1.8799323825   -0.6235982580
 H   -0.9346344630    1.8659267802   -0.4928604693
 H    0.0641732614    1.9146933703    0.9719468225
 H   -1.1617300424   -0.0779489013    1.6860157787
 H    1.1327046240   -0.2053794895    1.9021269212
 H    2.4244514733   -2.0460275008    1.0090941949
 H    0.9048154813   -2.9269953129    1.2309725110
 H    1.6893508365   -3.2475185928   -1.1299909579
 H    2.3596044045   -0.3245702560   -1.2054301022
 H    1.8230810409   -1.2396746942   -2.6562143650
 H   -0.5004770263   -0.2746204135   -2.1313466406