15

 O   -0.2408944757    0.0735022655    0.4801314266
 C    0.2391914001    0.8235188440   -0.3280499425
 C    1.0012050981    2.0893689630    0.0351335242
 N    1.0686378934    2.9770325373   -1.1126669590
 C    1.0809108734    4.2134131818   -0.9244163506
 C    1.1162733566    5.4377137820   -1.8131866627
 C    1.0699277993    6.2013680311   -0.4734836513
 O    1.0562993765    4.9340840656    0.2558504236
 H    0.1766330954    0.6391741816   -1.4236261229
 H    0.5562314410    2.5351822630    0.9332932803
 H    2.0178452522    1.7680192359    0.3125458057
 H    2.0314380604    5.5522533117   -2.3962104256
 H    0.2508732857    5.5554724775   -2.4669979620
 H    1.9546630201    6.7874546565   -0.2155815312
 H    0.1620074334    6.7749061335   -0.2741312926