22

 C    0.1067210983    1.4746071414    0.1178321705
 C   -0.0628407256   -0.0466153855    0.0044032433
 C   -1.5468188583   -0.4366529657   -0.0302595388
 C    0.6814066207   -0.5951372119   -1.2119041990
 C    2.2349873738   -0.4987042687   -1.2546407380
 C    2.2649828058   -1.8937474583   -1.9056634590
 O    3.3121074651   -2.7188369079   -1.4482872419
 C    0.8228321829   -2.1364704195   -1.3821959858
 H    1.1627383871    1.7577612141    0.1721700119
 H   -0.3303852291    1.9822399179   -0.7507056853
 H   -0.3907598413    1.8630924329    1.0127236884
 H    0.3876551041   -0.5053675864    0.8972423082
 H   -2.0452977050    0.0001578359   -0.9042475978
 H   -1.6753910889   -1.5225855638   -0.0821245169
 H   -2.0714337792   -0.0794357425    0.8621599417
 H    0.2540674902   -0.1562716455   -2.1228462680
 H    2.7005788350    0.3306556901   -1.7913083832
 H    2.6607547368   -0.5589060709   -0.2473754983
 H    2.2726282941   -1.8154235658   -3.0028391312
 H    3.2484126614   -3.5662531303   -1.9002625251
 H    0.8643854295   -2.6372647351   -0.4088228621
 H    0.1146843726   -2.6609520445   -2.0289757939