22

 C   -0.0166171050    1.5512090422    0.0254604314
 C    0.0330496180    0.0201767638   -0.0007020272
 C    0.7192227084   -0.5042747911   -1.2700989211
 O    0.8487091968   -1.9144079102   -1.2331660452
 C    1.8010349683   -2.3496432228   -0.2800827191
 C    1.6137172681   -1.7365896563    1.1108021297
 C    1.7315923306   -2.7021312256    2.2690631070
 N    2.2021647552   -0.3854628432    1.2556571098
 C    0.7344047171   -0.5420807659    1.2228602517
 H    0.9958523289    1.9651273632    0.0673818789
 H   -0.5128540861    1.9479898180   -0.8667577667
 H   -0.5657791376    1.9145681422    0.9005262354
 H   -0.9910400197   -0.3769099373    0.0023590772
 H    0.1141410395   -0.2728955658   -2.1519419679
 H    1.7036899818   -0.0264370468   -1.3895471239
 H    1.6858577322   -3.4368220649   -0.2283862255
 H    2.8224485174   -2.1280314705   -0.6291134998
 H    2.7212668049   -3.1746995834    2.2894228663
 H    1.5842448959   -2.1895410590    3.2258318147
 H    0.9853477499   -3.5007482300    2.1964786556
 H    2.5177431453   -0.2427387828    2.2122135006
 H    0.1998174700   -0.4124027637    2.1640065679