18

 C    0.0634526593    1.4855073679    0.2012181388
 N    0.1638266952    0.0479333004    0.0562157436
 C    0.4166687356   -0.5494247565   -1.1311821059
 O    0.5846094421    0.0387105244   -2.1879363204
 C    0.4869597437   -2.0759133608   -1.0906082178
 O    0.2622421550   -2.5256062813    0.2293035859
 C   -0.3213772944   -2.7930238614   -2.2046039117
 O    0.8618186633   -3.4343993966   -2.7184015411
 C    1.7098344415   -2.6893335492   -1.8233979670
 H    0.8200146507    1.8683341608    0.8951214170
 H    0.2252992746    1.9273544487   -0.7827629857
 H   -0.9262752654    1.7794214352    0.5679572619
 H    0.0450834576   -0.5552951253    0.8542954474
 H    0.3083769491   -3.4867319511    0.2445608634
 H   -1.0646351748   -3.5106035919   -1.8336748586
 H   -0.7764884675   -2.1175659346   -2.9354283000
 H    2.3297054089   -1.9590561068   -2.3524858411
 H    2.3353052356   -3.3370330219   -1.1955309287