21

 C    0.1718209562    1.5099074032   -0.1688197543
 C    0.0867048066   -0.0014691249    0.0675371055
 C   -1.3423867084   -0.5264424786    0.0776481039
 C   -2.1440297549   -0.5406868442   -1.2555315378
 C   -2.7111176694   -1.9460314297   -0.8773159645
 N   -2.6731653690   -2.9409971539   -1.9436363299
 C   -1.5695231424   -2.0591727017    0.1827515322
 C   -4.0349167270   -1.8439290169   -0.2396555138
 N   -5.0894106070   -1.7951531188    0.2346156906
 H    1.2108929758    1.8524243083   -0.1764866682
 H   -0.2761316608    1.7885612521   -1.1289120467
 H   -0.3562443531    2.0633684893    0.6154197873
 H    0.6563256642   -0.5302296551   -0.7086089840
 H    0.5659966185   -0.2523393903    1.0230665349
 H   -1.9204191919   -0.0093866755    0.8517773758
 H   -2.8651780937    0.2567988765   -1.4404078066
 H   -1.4879587899   -0.6552229445   -2.1228605877
 H   -2.9350800118   -3.8525733845   -1.5749242175
 H   -3.3672035902   -2.7143327498   -2.6524720455
 H   -0.7435662494   -2.6246527526   -0.2571945682
 H   -1.8279918024   -2.4796485484    1.1559514146