12

 O    0.2119748788   -0.0309051162   -0.0002031370
 C    0.0337158741    1.1390103307    0.0088532191
 O   -1.1497333257    1.8000450455    0.0285140290
 N   -0.9089274566    3.2001338218    0.0332026118
 C    0.3673969394    3.2967336617    0.0165425809
 C    1.1930199477    4.5420894369    0.0126673420
 C    0.4120787465    5.7695638883    0.0284533740
 C   -0.2068608454    6.7965847843    0.0410364542
 O    1.0245478685    2.1123629668    0.0009795612
 H    1.8669511464    4.4981001587    0.8790388490
 H    1.8455086980    4.5068368543   -0.8703435113
 H   -0.7661788316    7.6996778771    0.0516871371