19

 O   -0.0505912428    1.3733764122   -0.3071634412
 C    0.0430849859   -0.0378810270   -0.1721618529
 C   -1.3642501943   -0.5586831790    0.0475334092
 C   -2.3698581186   -0.5221072463   -1.1424414960
 C   -2.6635402134   -2.0369300981   -0.9614882712
 C   -1.8073759779   -2.9730543830   -1.8561669013
 C   -0.7129868906   -2.9465690991   -0.7701933843
 O    0.3817869634   -3.4253215371   -0.6857708938
 C   -1.5748545165   -2.1014260145    0.1808078457
 H    0.8288565213    1.7171048886   -0.4891252712
 H    0.4822595557   -0.4951090495   -1.0725682380
 H    0.6819589233   -0.3232720621    0.6790914172
 H   -1.7812569199   -0.0509301772    0.9216010573
 H   -3.2276761788    0.1322078550   -0.9781133421
 H   -1.9257840920   -0.2595900674   -2.1074122009
 H   -3.6984810906   -2.3316934448   -0.7968163273
 H   -2.2234122172   -3.9823931375   -1.9550395622
 H   -1.5242457079   -2.6193097821   -2.8520749266
 H   -1.7238764792   -2.5051575512    1.1836475398