15

 C   -0.0191893653   -1.2491839245   -0.0952452904
 C   -0.0162034376   -0.0487164336   -0.0514461471
 C   -0.0012879575    1.4026534025    0.0376241495
 C   -0.2555657085    2.0425966058    1.4559906410
 C    1.1553728915    2.6057444021    1.3614782088
 C    2.1454706684    1.5459748523    1.1093353641
 N    1.3797049908    2.0636515217   -0.0447661638
 C   -0.8648282608    1.9862752043   -0.9944519803
 N   -1.5650510877    2.4595318729   -1.7815103540
 H   -0.0272731845   -2.3102585032   -0.1529963337
 H   -1.0408937719    2.7967720072    1.4196670376
 H   -0.4570930803    1.3376089265    2.2646879350
 H    1.4331599020    3.6221755069    1.6157889376
 H    3.1898876050    1.8350519387    1.0553872086
 H    1.9683073365    0.5291764102    1.4488980271