18

 C    0.4104224615    0.8049517477   -0.7192446908
 C   -0.3553387037    0.3139019380    0.5206703808
 C    0.5547353955   -0.1485117165    1.6196903724
 N    0.6501521371    0.4236005990    2.7403466826
 C    1.5948141818   -0.1257937134    3.7022169359
 C    1.7606105810   -1.6422548637    3.5476297766
 C    2.0234679063   -1.9988999292    2.1057842827
 O    2.7489993714   -2.8560039617    1.6991287985
 O    1.3007160861   -1.2509032979    1.1994851875
 H    1.0470902984    0.0148533523   -1.1243375738
 H   -0.2915922085    1.1142514103   -1.4982403083
 H    1.0428843361    1.6630392781   -0.4723029042
 H   -0.9811866023    1.1075182331    0.9330912147
 H   -1.0060002852   -0.5226282196    0.2383684431
 H    2.5613703535    0.3817200496    3.5742662105
 H    1.2494398738    0.1160335504    4.7112184410
 H    2.5661241089   -2.0511954226    4.1595211468
 H    0.8276196785   -2.1401831340    3.8425651137