19

 C   -0.0289067045    1.5278745538    0.0541184395
 C    0.0083802749    0.0187830486    0.0352640158
 C    0.9383717698   -0.7966309452   -0.9180462708
 C    0.6988057964   -1.9549856623    0.1028284246
 C    0.6412284409   -0.8205674958    1.1898843131
 C   -0.7877583626   -2.1703295238   -0.0607643183
 O   -1.4583174932   -3.1675312169    0.0127207551
 C   -1.3233417576   -0.7219331375   -0.1934513296
 O   -2.2941743733   -0.4407470141    0.7913483024
 H    0.9652893432    1.9470165652    0.2408159064
 H   -0.3887275516    1.9250425356   -0.9019412675
 H   -0.7046749936    1.8845468719    0.8376583168
 H    0.6255059370   -0.9455634840   -1.9563117965
 H    1.9696000433   -0.4378251701   -0.8848485389
 H    1.3360200147   -2.8321694340    0.1880164805
 H    1.6431969281   -0.4741504532    1.4539432986
 H    0.0424483561   -0.9899315495    2.0870613862
 H   -1.7175189527   -0.5327399190   -1.2053850204
 H   -2.8533406753   -1.2248349299    0.8620845831