18

 C   -0.3761514667    1.3791391163   -0.3000273611
 C    0.0198704733   -0.0828711164   -0.1674404590
 C    1.3799258257   -0.5627155901   -0.8039102342
 C    1.8200928116   -1.0206182053    0.5890638212
 O    1.8004058064    0.1228437941    1.4505951646
 C    0.5531825532   -0.5507479275    1.1972098224
 C   -0.2358684262   -1.0912476128    2.3451800956
 N    0.4409496049   -1.1110158853    3.5249888175
 O   -1.3736187869   -1.4958069692    2.1910769343
 H    0.4248672335    2.0296931626    0.0634402062
 H   -0.5758934990    1.6357976318   -1.3455406196
 H   -1.2823332557    1.5921992548    0.2764025335
 H   -0.7946927933   -0.7439655649   -0.4719750502
 H    1.2533982820   -1.3839707439   -1.5122841015
 H    2.0116744630    0.2111846219   -1.2471761492
 H    2.4621032406   -1.8445108967    0.8796734094
 H    1.3179996164   -0.6237701712    3.6017171726
 H   -0.0460509929   -1.4094090083    4.3534835075