17

 O   -0.1020743521   -0.0420627979   -0.0109773994
 C   -0.0239277841    1.1568793480    0.0157190128
 C    1.2811106833    1.9436155990    0.0115458968
 C    1.3762199395    2.7717312579   -1.2865349616
 C    2.5096815787    3.8024756948   -1.2167880328
 C    2.3888758514    4.7098937482    0.0002695770
 O    2.7642096483    5.8638751687   -0.0063230088
 C    1.8288265518    4.0804629650    1.2188427215
 C    1.3572358372    2.8278305135    1.2337686998
 H   -0.9366140536    1.7974617136    0.0320867807
 H    2.0880027279    1.1990979501    0.0517440106
 H    1.5137915204    2.1043914465   -2.1425556186
 H    0.4234047717    3.2955199547   -1.4410255231
 H    3.4772275395    3.2862526902   -1.1407695838
 H    2.5496011941    4.4269528827   -2.1125551339
 H    1.8531193116    4.6902009873    2.1168580768
 H    1.0079394343    2.3971502978    2.1704443060