16

 N   -0.2438421712   -1.1527273965   -0.1754171020
 C   -0.1187589500   -0.0067170820   -0.0832837653
 C   -0.0195639409    1.4214181814    0.0036548386
 C    0.5095595867    2.1112813661    1.2611003252
 C    1.0261464507    1.3186885249    2.4474323904
 O    2.0407973132    0.3981706128    2.0724695339
 C    2.9983348100    0.9967239256    1.2526580959
 O    2.4849557883    1.3097892755   -0.0289351304
 C    1.3478374351    2.1067483769    0.0141182725
 H   -0.8094848532    1.9465984771   -0.5238532349
 H    0.0051464222    3.0362889153    1.5206066009
 H    1.4200217900    2.0273828564    3.1935131863
 H    0.2345244451    0.7286044695    2.9163542186
 H    3.3928693631    1.9119927302    1.7287354096
 H    3.7953631261    0.2708897135    1.0903209485
 H    1.4371259347    3.0103419732   -0.5829721877