23

 C    0.1818365265    1.5251936468   -0.0807235846
 C    0.0707031017    0.0058822434   -0.0063570203
 C   -1.3846672913   -0.4302203555   -0.2056817044
 C    1.0316931372   -0.8281157367   -0.9199174274
 C    1.3695480313   -1.7653125532    0.2735737866
 C    2.7153754974   -1.4849341699    0.9617168962
 O    3.7843906585   -1.2440954303    0.0733977269
 C    2.0775511693   -0.2816450906    1.7230267629
 C    0.6695001963   -0.7319210815    1.2315151701
 H    1.2135076894    1.8718308819    0.0303918667
 H   -0.1802107103    1.8894579667   -1.0495117357
 H   -0.4207371334    2.0070143063    0.6987146349
 H   -1.7554308770   -0.1176442300   -1.1887355580
 H   -1.4886909036   -1.5188066794   -0.1411015241
 H   -2.0359812080    0.0127951169    0.5569600993
 H    0.5532307337   -1.3099430494   -1.7763417043
 H    1.9036945991   -0.2767838743   -1.2783148983
 H    1.0618690749   -2.8064263911    0.1725392457
 H    2.9641643356   -2.2970296561    1.6606948648
 H    4.5654843912   -1.0273675436    0.5920897713
 H    2.2191073758   -0.2860455552    2.8065573840
 H    2.4046006407    0.6867077836    1.3362244292
 H   -0.0299980650   -1.0244179890    2.0172844584