17

 O   -0.9987176508    2.4985153894    1.1875242705
 C   -0.2477153217    1.6440696993    0.7984482370
 C    0.9508874406    1.9077113191   -0.0695562657
 C    2.2132181091    1.2764673156    0.3747138376
 O    1.4684179754    0.7289352013   -0.7008299727
 C    0.9424400394    3.1866700064   -0.8697986463
 C    2.0181159625    3.3688085606   -1.9614331007
 C    0.8167305371    3.4466825355   -2.9245994710
 O   -0.1157746410    3.1817742540   -1.8545145742
 H   -0.3653485879    0.5696760088    1.0642917252
 H    3.1537671324    1.7568620537    0.1091812824
 H    2.2309153559    0.6829812710    1.2879872730
 H    0.8273993623    4.0287788851   -0.1760197167
 H    2.6326705542    4.2652474124   -1.8773687699
 H    2.6503590227    2.4931237085   -2.1114272499
 H    0.6447069839    4.4307457929   -3.3772194092
 H    0.7713819659    2.6793101064   -3.7049605194