20

 C   -0.1989900011    1.5849374371    0.0742976239
 C   -0.0224858192    0.0680575621    0.0420628263
 C    0.6518317288   -0.4086001090   -1.2677543665
 C    1.3144420058   -1.7949528152   -1.1599193072
 C    2.7000226785   -1.8086361477   -0.4963420666
 O    3.5626349966   -2.5648509325   -0.8984546648
 C    3.0054437514   -0.8204205436    0.5701830340
 C    2.0929571092   -0.1395136212    1.2758499513
 N    0.6921980617   -0.4056321533    1.2529018082
 H    0.7728061010    2.0904664693    0.0636016914
 H   -0.7585256160    1.9253224383   -0.8025663477
 H   -0.7365737712    1.8936708315    0.9744579475
 H   -1.0127335532   -0.3991353771    0.1074399914
 H   -0.1020668042   -0.4289497101   -2.0626095250
 H    1.4061456378    0.3219697435   -1.5826692745
 H    0.6588620861   -2.4917140986   -0.6175578061
 H    1.4629157235   -2.2369359158   -2.1488630851
 H    4.0653471134   -0.6487143646    0.7356432150
 H    2.4062422285    0.6545073338    1.9522439973
 H    0.5611155124   -1.4096903569    1.3064069373