14

 C    0.0048687149    1.4681083558   -0.0023374213
 N   -0.0276640884    0.0078109650   -0.0126526118
 C   -0.1241125973   -0.6683434059   -1.2262855175
 C   -0.1559689290   -1.9983015344   -1.2797772829
 O   -0.0966085719   -2.7783552309   -0.1581533623
 C   -0.0004912823   -2.2112285698    1.0874376191
 O    0.0506688009   -2.9079409119    2.0531121568
 C    0.0389527872   -0.6753738139    1.1838438675
 O    0.1247900878   -0.1402299254    2.2657204298
 H    0.8715352530    1.8328233155   -0.5623325893
 H   -0.9080304575    1.8712065765   -0.4514861089
 H    0.0766492847    1.7892954536    1.0350021606
 H   -0.1715016954   -0.0608759318   -2.1184205940
 H   -0.2296502668   -2.5763039225   -2.1878978958