23

 C   -0.1388919354    1.5423026912    0.0777998075
 C   -0.0210366278    0.0179862362   -0.0154002870
 C    0.7646963504   -0.4921292292   -1.2384676250
 C    2.2331005232   -0.0281504070   -1.2590483029
 C    3.0111789076   -0.6779838163   -2.4095582469
 C    3.0997676343   -2.2059344859   -2.2626916035
 C    1.7940349348   -2.8304272126   -1.8040699821
 O    1.5040085615   -2.7347883450   -0.4005297583
 C    0.6764141617   -2.0053434095   -1.3139424710
 H    0.8361755635    2.0206366485    0.2104962224
 H   -0.5942301653    1.9613338705   -0.8270964010
 H   -0.7641708579    1.8326848609    0.9277757930
 H    0.4521204935   -0.3771974745    0.8920861923
 H   -1.0292394350   -0.4159759061   -0.0449507574
 H    0.2719504486   -0.1056082138   -2.1452505802
 H    2.2725769678    1.0610650878   -1.3559181427
 H    2.7027858818   -0.2833389358   -0.3012628670
 H    2.5094643709   -0.4344413193   -3.3557960862
 H    4.0188463084   -0.2539728124   -2.4764655765
 H    3.4002713252   -2.6583231568   -3.2143607650
 H    3.8731616768   -2.4743187800   -1.5324429998
 H    1.5589277557   -3.8100301617   -2.2221832910
 H   -0.3366636941   -2.4044989091   -1.4037816417