15

 C   -0.2095480800    1.2695967106    0.0829478952
 N    1.3282049878    1.2742116660    0.0737453600
 C    2.0809534239    0.2944541001    0.8350752378
 C    1.4929204902   -1.2647391614    0.6355001586
 C    0.0919361589   -1.1080758515    0.3275836526
 C   -0.0500559745   -0.1037007851   -0.5959153027
 C    1.3559124255    0.3056733141   -1.0859074226
 C    2.3810723766   -0.5701819810   -0.3558745104
 H   -0.6888812207    1.2985396685    1.0640869568
 H   -0.5380188652    2.1115896021   -0.5323418074
 H    2.6029960717    0.5125211285    1.7548524924
 H    1.9178535802   -1.9863352227    1.3242058771
 H   -0.6653316489   -1.3130602409    1.0787098337
 H    1.5242013991    0.7150071943   -2.0809276391
 H    3.3182908754   -0.9558926115   -0.7338049320