19

 C   -0.4513205194    0.6001736211   -1.0869251442
 O    0.8810715532    0.1544917695   -1.2435319757
 C    1.3240540158   -0.6657020981   -0.1878949356
 C    0.8879097314   -2.1327376125   -0.2929226467
 O    0.7627079496   -2.8094616983    0.7001162749
 C    0.6660080204   -2.6849452652   -1.6987565407
 C    0.8330717554   -4.1828996641   -1.7629872862
 C    1.1533865084   -4.8647337543   -3.0213689101
 O    2.1570717681   -4.6549440742   -2.0269089010
 H   -1.1713179216   -0.2318704425   -1.0593090199
 H   -0.5711956188    1.1881012202   -0.1650966577
 H   -0.6807472175    1.2339084514   -1.9463073747
 H    2.4217663025   -0.6633524112   -0.2270011166
 H    1.0233376110   -0.2834974197    0.7975459684
 H   -0.3566017401   -2.4083221313   -1.9949008095
 H    1.3311610401   -2.1870124967   -2.4100326160
 H    0.3114624898   -4.7374339568   -0.9851935197
 H    0.8477047482   -5.8994926499   -3.1700133927
 H    1.2717663234   -4.2823956473   -3.9348689062