16

 N    0.9275039770   -0.0848434383   -0.0393687914
 C   -0.2141388130    0.3909258517    0.2522648937
 N   -1.3573282332   -0.1605986006   -0.2968963197
 C   -2.6323089983    0.3315217504   -0.0372772425
 O   -2.8322397367    1.2847087031    0.6917031812
 N   -3.6268505231   -0.3414648062   -0.7063835272
 C   -5.0263488574   -0.0717995946   -0.3994863240
 C   -5.7000639024   -1.2108263456    0.2200439432
 C   -6.2464392698   -2.1659444281    0.7024852222
 H    1.6575168787    0.4305338424    0.4479660977
 H   -0.4434877023    1.2256268373    0.9169829977
 H   -1.2101094143   -0.9267168094   -0.9382437655
 H   -3.4191700315   -1.2325714563   -1.1286892419
 H   -5.0260541678    0.7930984956    0.2706050184
 H   -5.5609866929    0.2211759315   -1.3118852329
 H   -6.7348171130   -2.9987392029    1.1452251411