17

 N    0.0334962647    1.3900731551    0.3010374612
 C   -0.0030217241   -0.0229382145   -0.0006625736
 C    1.1293695860   -0.5785869305   -0.6990513939
 N    2.0522903276   -1.0041139528   -1.2537811667
 C   -0.6855797340   -0.8592512731    1.0907607839
 O   -1.1668420083   -0.1643216986    2.1959400854
 C   -1.3756967959   -0.6850848529   -0.2277106005
 C   -2.6634544901    0.1263671349   -0.2719693965
 O   -3.6631455024   -0.4661940072    0.5347587167
 H    0.9528802603    1.6523288162    0.6434886343
 H   -0.1614699511    1.9561661119   -0.5185518783
 H   -0.2557275304   -1.8198150128    1.3527263727
 H   -0.9865997960    0.7748214111    2.0149605103
 H   -1.3429568219   -1.5443828960   -0.8897141741
 H   -2.4732329754    1.1667450967    0.0223516164
 H   -3.0572545326    0.1440299298   -1.2924480921
 H   -3.3133422561   -0.4649504574    1.4350835448