17

 C    0.0643181810    1.5057049365    0.1398402514
 C    0.0266290275    0.0033602194   -0.1634420282
 C   -1.3772507969   -0.5802686628   -0.0311561330
 C   -1.5874365511   -2.1059509822   -0.0894710157
 N   -0.8496481948   -2.6638313860    1.0489540483
 C   -2.2485766514   -2.1410280461    1.2599717636
 C   -2.0766062203   -0.6408130876    1.3674243750
 O   -2.4584830612    0.1934749257    2.1351681787
 H    1.0851880600    1.8931801187    0.0704827000
 H   -0.5553375928    2.0691967300   -0.5668951533
 H   -0.3132458064    1.7125219331    1.1452047158
 H    0.3935483927   -0.1808922124   -1.1816874685
 H    0.6949536707   -0.5379819067    0.5131179730
 H   -2.0785492637   -0.0704587546   -0.7058962493
 H   -1.8357601885   -2.7013423517   -0.9584809333
 H   -0.9393017101   -3.6798168467    1.0177540270
 H   -3.0218954248   -2.7832723665    1.6614140185