18

 C    0.1157542162    1.4237407509   -0.0557670863
 C   -0.0885285427   -0.0695478410   -0.0430079270
 C   -0.6312050365   -0.7815482105    1.1406767656
 N    0.8065334027   -0.9213202680    0.8423837370
 C    1.1710208755   -1.9998930423   -0.1224063576
 C   -0.0823911033   -2.3248063238   -0.9940041539
 C   -0.0057913011   -0.8194007708   -1.3826212944
 C    1.5364061818   -1.0934361753   -1.3385716144
 O    2.4943251896   -0.8276843458   -1.9901922023
 H    0.9660684959    1.6976748030   -0.6895386155
 H   -0.7729417746    1.9354366887   -0.4420341924
 H    0.3129184959    1.7936155156    0.9535574466
 H   -0.8024574364   -0.1870456224    2.0336393142
 H   -1.3049465755   -1.6254924571    1.0502008242
 H    1.8298112674   -2.7589332299    0.2915887285
 H    0.1657804363   -2.9798057671   -1.8316154774
 H   -0.9839981250   -2.6888084452   -0.5050648386
 H   -0.5090103362   -0.3977159590   -2.2494533161