21

 C    0.2068073307    1.4082088977    0.3020519473
 C   -0.0239852593   -0.0857799075    0.1151081442
 C   -1.5214986329   -0.4057339171    0.0944111398
 C    0.6865353135   -0.8276564680   -1.0990602438
 C    2.1367893239   -1.4478107617   -0.9266926132
 C    3.1147537177   -1.0712225307    0.2024998631
 C    2.1029745771   -0.6568466794    1.2679862961
 C    0.8727678894   -1.0753879559    0.9075284192
 C    0.9459341461   -2.0533446016   -0.2800350076
 H    1.2631857063    1.6702585431    0.2036923165
 H   -0.3572474115    1.9739194464   -0.4483150443
 H   -0.1367567076    1.7423415203    1.2877993018
 H   -2.0211068990    0.1063047624   -0.7361841664
 H   -1.7016911197   -1.4789648230   -0.0089716222
 H   -1.9944990388   -0.0697166618    1.0232809761
 H    0.2747107199   -0.8068975320   -2.1072575433
 H    2.5214830321   -1.8593868085   -1.8591007344
 H    3.7778012868   -1.9199661353    0.4258655556
 H    3.7624057637   -0.2124799443   -0.0147918555
 H    2.2674910632    0.2511161342    1.8401355645
 H    0.5437500084   -3.0549066875   -0.3544578134