18

 C    0.0421917239    1.5385045886    0.1585259274
 C    1.5548353012    1.5074151406   -0.0964684169
 O    2.2858969778    1.4164253320    1.1255719715
 C    2.5856441749    0.0742928703    1.4125271045
 C    1.5104067784   -0.9812638426    1.5771461123
 C    0.0440651214   -0.6685018182    1.3094896341
 N   -0.0359897990    0.0522131853    0.0244153162
 C    1.3561882234    0.0373515258   -0.5815338660
 C    2.2666821818   -0.8320897873    0.2613726142
 H   -0.2630827328    1.9417327675    1.1289046289
 H   -0.5286663928    2.0300092973   -0.6369717971
 H    2.0123345586    2.2710959026   -0.7334571076
 H    3.4927132291   -0.0207604681    1.9988092592
 H    1.7472042525   -1.8063619553    2.2424775714
 H   -0.5085091951   -1.6146715314    1.2446183015
 H   -0.4265752631   -0.0731060424    2.1007415104
 H    1.3658012040   -0.1589189067   -1.6539989959
 H    2.9381467960   -1.5635850478   -0.1681872579