21

 C    0.3259624625    1.3501661794   -0.2586832935
 O    0.4009589364   -0.0510246190   -0.1650697526
 C    0.4327181426   -0.5080831171    1.1722202526
 C    0.4577586127   -2.0135249400    1.1580050626
 C    1.7599599969   -2.7650937921    1.0192867107
 C    0.9863160823   -2.8405076454    2.3090723865
 C    1.5289261110   -2.2234634764    3.5939695524
 C    2.3812561683   -3.1481351431    4.3364877845
 C    3.0725678769   -3.9247797225    4.9392981630
 H    1.1980331071    1.8402779451    0.2041620204
 H    0.3010552594    1.6072386130   -1.3204873325
 H   -0.5821477191    1.7464667237    0.2240999790
 H    1.3167593624   -0.0987277337    1.6891548022
 H   -0.4551400333   -0.1399790892    1.7167337279
 H   -0.3971157722   -2.4377526674    0.6386375455
 H    1.7981655427   -3.6363804348    0.3755493637
 H    2.6713359972   -2.1745084092    1.0198191288
 H    0.4520364595   -3.7691585286    2.4874532170
 H    2.0992766659   -1.3148280594    3.3691575100
 H    0.6957563671   -1.9079273211    4.2364615510
 H    3.6885730337   -4.6043039222    5.4739085307