23

 C   -0.1623934920    1.6351779467    0.1628240120
 C    0.3174118230    0.2072157116   -0.1185213808
 C    0.7122846020   -0.5138913237    1.1595578772
 O   -0.4076101282   -0.6828178033    2.0657860649
 C   -0.1774863167   -2.0996281306    2.1720432763
 C    0.9864840718   -2.0467616670    1.1556997383
 C    0.8128321525   -2.8271125622   -0.1427163054
 C    1.0128766826   -4.3257340825    0.0530935690
 O    0.8122771214   -4.9588472651   -1.2006199583
 H    0.6320453539    2.2382827851    0.6164585703
 H   -0.4785745300    2.1349557254   -0.7574764199
 H   -1.0094785328    1.6217649158    0.8543202340
 H   -0.4742415709   -0.3547465000   -0.6258310100
 H    1.1829803536    0.2238167409   -0.7937598351
 H    1.5146748727    0.0519345019    1.6578595514
 H    0.0938174666   -2.3963673306    3.1934395965
 H   -1.0550218963   -2.6816299133    1.8587826899
 H    1.9553200496   -2.2918464690    1.6021415117
 H   -0.1869073721   -2.6670341136   -0.5616634388
 H    1.5302654904   -2.4803617344   -0.8959095035
 H    2.0276545277   -4.5167272283    0.4402474753
 H    0.3024690557   -4.7025287142    0.8076568019
 H    0.9245848554   -5.9063893298   -1.0818033269