19

 C   -0.0095076836    1.3836990896   -0.0947366356
 O   -0.0835188851   -0.0131090072    0.0804389353
 C    0.7050952752   -0.5133907086    1.1542940129
 C    0.0624489840   -1.8362101960    1.5940018598
 C    0.9656196320   -2.6321028579    2.5194061974
 O    0.5974351163   -3.0587209875    3.5874487919
 C    2.3776602760   -2.8731666727    1.9946737242
 C    2.8794398089   -1.7611020490    1.1116802216
 C    2.1450859014   -0.7120004141    0.7466019867
 H    1.0006668985    1.7255205331   -0.3651257858
 H   -0.6899672779    1.6405855860   -0.9101455774
 H   -0.3221885177    1.9227294292    0.8131552749
 H    0.6575854263    0.2070003169    1.9899433813
 H   -0.9022082916   -1.6714912691    2.0763804754
 H   -0.0991454778   -2.4256921933    0.6815802678
 H    3.0384499603   -3.0438758389    2.8520069247
 H    2.3674534479   -3.8218638662    1.4356701229
 H    3.9130008143   -1.8367804320    0.7827036583
 H    2.5799527727    0.0621811176    0.1206295738