21

 O   -0.0569568860    1.5168479112    0.1264549810
 C    0.0128055263    0.1152814355    0.0339801015
 C    0.3280383245   -0.7468790183    1.3253000312
 C   -0.7245738419   -1.7620662337    0.7828839482
 C   -2.0080382162   -2.4256309147    1.3530305761
 C   -3.0427155449   -1.5428365328    0.5883297011
 C   -2.4970387651   -0.1343166785    0.9357542982
 C   -1.3436693054   -0.5938787869    0.0013094365
 C   -2.4324279102   -1.2905161930   -0.8507294032
 H    0.8392638799    1.8636959090    0.1775451222
 H    0.6635462679   -0.2039469279   -0.7939393345
 H    1.3524233667   -1.1037189369    1.4575843042
 H    0.0086364783   -0.2143854294    2.2235916838
 H   -0.2108197468   -2.4505073546    0.1032762503
 H   -2.0679520206   -3.4892718148    1.1048055760
 H   -2.1355594333   -2.3269707082    2.4356979925
 H   -4.0989260239   -1.7908846741    0.7034231529
 H   -3.0735779950    0.6788494413    0.4896340255
 H   -2.2835017693    0.0901809661    1.9837674816
 H   -2.1250726116   -2.1524842526   -1.4505648790
 H   -3.0731741637   -0.6258908066   -1.4354251260