19

 O   -0.1413688224    0.0105866928    0.2221864625
 C   -0.0740490317    1.1996017996    0.0615641174
 C   -1.2694711527    2.1632308929   -0.1293736740
 C   -0.6734132027    3.5069344314    0.2226585747
 C    0.6571438458    3.4473004624    0.2993562406
 C    1.7477148599    4.3364845778    0.8354655420
 C    2.9021110587    3.3363321177    1.1760228690
 C    2.2806327019    1.9150623215    1.1295026177
 C    1.1943742556    2.0602621566    0.0483997347
 H   -1.6196716882    2.0925735706   -1.1698102561
 H   -2.1151767759    1.8639796073    0.5001043190
 H   -1.2828151689    4.3747543178    0.4496878619
 H    2.0788890013    5.0819001341    0.1036735944
 H    1.4087609594    4.8936961664    1.7149213386
 H    3.6888489607    3.4137717351    0.4181725338
 H    3.3685953647    3.5532580229    2.1402985988
 H    3.0169928301    1.1380688054    0.9136518811
 H    1.8109923465    1.6683262377    2.0881742743
 H    1.6513133378    1.9674068002   -0.9499543006