19

 O   -0.6126510885    1.5254969175   -1.2562513694
 C   -0.7619804639    0.1397452293   -1.3001402796
 C   -1.5150448880   -0.3780077109   -0.0778546785
 O   -1.8336009835    0.4168431036    0.7857851483
 C   -1.7977575919   -1.8538594936   -0.0302010846
 C   -2.4491508292   -2.5220470387    1.2175408856
 C   -3.8071166864   -1.8649958652    0.8195514757
 C   -3.1987152904   -2.4080356891   -0.5042638393
 C   -2.8386676970   -3.7027157880    0.2784162321
 H   -0.9993831891    1.7883364073   -0.4044998115
 H   -1.3061984842   -0.1777856016   -2.2053653892
 H    0.2153043990   -0.3726543080   -1.3367547955
 H   -0.9547983655   -2.4004872773   -0.4691763982
 H   -2.0094312060   -2.5822880127    2.2128233706
 H   -4.7049153728   -2.3808424490    1.1696045987
 H   -3.8885092646   -0.7867807703    0.9390252275
 H   -3.6088255729   -2.3325611491   -1.5123117460
 H   -2.0235337203   -4.3130039819   -0.1201956575
 H   -3.6823623347   -4.3174158225    0.6012547307