24

 C   -0.2426238979    1.7123973692   -0.2685702703
 C    0.0825826912    0.2575514360    0.0688090985
 N   -1.1369450972   -0.5399463192    0.0210268831
 C   -1.5892324299   -1.2793647060   -1.1306785511
 C   -0.4596124529   -2.0480321589   -1.8469893894
 C   -0.1934220107   -2.8544620575   -0.5250422794
 C   -0.7445210663   -4.2801984496   -0.6455351946
 C    1.2244541677   -2.8961735182    0.0459195213
 C   -1.2609368567   -1.9667210930    0.1774568656
 H    0.6552972759    2.3353007193   -0.2046391440
 H   -0.6391830998    1.7951419344   -1.2858903277
 H   -0.9955545222    2.1077417607    0.4187280593
 H    0.8719300574   -0.0987508297   -0.6079881693
 H    0.4803806503    0.1885872043    1.0878680718
 H   -2.5554958175   -1.0375558612   -1.5613687207
 H   -0.8229339023   -2.6834111907   -2.6580595549
 H    0.3653817304   -1.4404622202   -2.2313417566
 H   -0.1240492111   -4.8833123576   -1.3176785408
 H   -0.7599661434   -4.7774450837    0.3315885333
 H   -1.7677312184   -4.2817630385   -1.0355465910
 H    1.6807042157   -1.9082796724    0.1251392290
 H    1.2233049303   -3.3422071879    1.0474301078
 H    1.8753552491   -3.5131001839   -0.5852987924
 H   -1.9304042017   -2.3341556155    0.9516279725