16

 O    0.0018181579    0.0145878885    0.0028207578
 C   -0.0146028813    1.2214128288    0.0191528248
 C   -1.2640022480    2.0727878818   -0.0515439178
 C   -1.5274076769    3.1304176943    1.0091655500
 C   -0.8161815049    3.5062326903   -0.2557415044
 C    0.7151670825    3.5273743031   -0.2782983819
 C    1.4734343057    3.1718498994    0.9649643484
 C    1.2081983465    2.1069189607   -0.0879555744
 H   -2.1154399896    1.6249779931   -0.5495069899
 H   -2.5635640790    3.4374493565    1.1040196777
 H   -1.0011451944    3.0953571405    1.9543210230
 H   -1.3228628152    4.1532117801   -0.9615577407
 H    1.1827931800    4.1878020669   -0.9984688345
 H    2.5030662098    3.5073994161    1.0293887420
 H    0.9764003468    3.1226664145    1.9251926822
 H    2.0566391400    1.6825766953   -0.6109556524