18

 O    0.0298429098   -0.0341664664    0.7248335745
 C    0.0388542820    1.1611795796    0.5109799262
 N    1.0574516868    1.8285120823   -0.0763207155
 C    2.4123300800    1.3600708494   -0.3757158149
 C    2.7995880053    2.8449490552   -0.6748870398
 C    2.8006689812    3.2352004747   -2.1259796683
 C    1.6710916678    3.8383910775   -2.4968436145
 C    0.6893977281    4.0115810991   -1.3596263150
 C    1.3658166043    3.2610331704   -0.1922325556
 H   -0.8039754741    1.8361642326    0.7700080803
 H    2.9090617528    0.9140420322    0.4927601914
 H    2.4724997115    0.6662897720   -1.2191843724
 H    3.6560488312    3.2164671275   -0.1087153753
 H    3.6367284715    3.0196230517   -2.7821801240
 H    1.4556562808    4.1868665268   -3.5010920009
 H    0.5300986929    5.0713631095   -1.1210051025
 H   -0.2968075376    3.5899674219   -1.5863387619
 H    1.2978835956    3.7928859340    0.7614308981