14

 O    0.1015518889    1.4916572932    0.1108101450
 C   -0.0102146038    0.1042420814    0.0356664029
 C    0.1626181968   -0.6362901237    1.3666672593
 N    0.9871774058   -0.7036023950    2.3048995239
 N   -1.0743674566   -1.3959282762    1.2504548900
 C   -2.1359400112   -0.3611766528    1.2598587434
 C   -1.4034569396   -0.5645495943   -0.0099367812
 C   -1.9822176204   -1.1404341150   -1.1824821860
 N   -2.4313321852   -1.5570423220   -2.1639275818
 H    0.1465788341    1.8565298894   -0.7794011004
 H    0.6370178163   -0.3342121116   -0.7354818618
 H    1.7658813868   -0.0602615176    2.1503320236
 H   -3.1324824840   -0.7825407520    1.3305570138
 H   -1.9708609279    0.5565363362    1.8174959093