23

 C    0.7147294936    1.3725123364   -0.1523926959
 C    0.0189412636    0.0187491799    0.0125604974
 C    0.1850170263   -0.9421626282   -1.1899668008
 C    1.2967747609   -1.9067650414   -0.7647746289
 C    2.7740520578   -1.4371985666   -0.9173699341
 C    2.8924186931   -1.2786100766    0.6253414410
 C    1.4043937289   -1.7328494731    0.7856638473
 C    1.1520130462   -2.9245559074    1.6890942661
 O    0.5065661313   -0.6927551310    1.1544126705
 H    1.7714925614    1.2646106076   -0.4136507799
 H    0.2285172933    1.9532500104   -0.9440730285
 H    0.6499965734    1.9421302893    0.7790856445
 H   -1.0435465839    0.2090742875    0.2074965805
 H   -0.7455459017   -1.4930993255   -1.3567301807
 H    0.4190050045   -0.4056941550   -2.1145636781
 H    1.1141405399   -2.9252657047   -1.1136368341
 H    3.4377255739   -2.1931472478   -1.3433277467
 H    2.9012599821   -0.5178659940   -1.4950136528
 H    3.6158615650   -1.9514013019    1.0934656117
 H    3.0751423137   -0.2664406684    0.9906636251
 H    1.3166013804   -2.6498517867    2.7363133786
 H    0.1192164320   -3.2725530777    1.5871497191
 H    1.8261313146   -3.7508813952    1.4426016786