13

 C    0.0126774270   -1.1650284564    0.0410635043
 C    0.0349093056    0.0377768693    0.0285125834
 C    0.0515051409    1.4573644345    0.0091430403
 C    0.2673777514    2.3247617963   -1.2023616609
 C    1.1807067033    2.4881442894   -0.0129192576
 C    0.4143122673    3.1472071072    1.1245845566
 O   -0.6748155363    2.1913077523    1.0092840136
 H   -0.0076461287   -2.2266358246    0.0556736727
 H    0.7134765752    1.8260799424   -2.0561172397
 H   -0.4816817082    3.0769350078   -1.4350999787
 H    2.2491798858    2.3312900092   -0.0596811420
 H    0.9056857612    3.0501333587    2.0987391786
 H    0.0769194354    4.1796039737    0.9771758494