19

 C   -0.2422802923    1.5097329585   -0.0562540540
 C    0.1015738063    0.0199966199    0.0539840230
 C    0.7962121222   -0.5047514335   -1.1787153262
 C    0.0171104770   -0.9385475755   -2.4124612719
 C    0.8333742692   -1.9461578085   -1.6474332622
 O    2.1590045806   -2.1672004433   -2.1103040374
 C    2.7800580452   -0.9583958717   -1.9672839773
 N    4.0498286095   -0.9187116864   -2.4769134381
 N    2.1271475316    0.0076310599   -1.4412231289
 H    0.6628027512    2.0968480271   -0.2332719467
 H   -0.9290709623    1.6939279952   -0.8891196181
 H   -0.7167220860    1.8733588115    0.8603994074
 H    0.7524393815   -0.1463247983    0.9211426099
 H   -0.8105116507   -0.5646999640    0.2256702578
 H   -1.0595519934   -1.0324886071   -2.3104402568
 H    0.3649504441   -0.6179635837   -3.3890072803
 H    0.4089428839   -2.8150121449   -1.1607195323
 H    4.5436524460   -1.7985091182   -2.4586479402
 H    4.5881491564   -0.1289503370   -2.1550484379