21

 C    0.0295237450    1.5419160477    0.0163528445
 C   -0.0090761994    0.0291601087    0.0019382214
 C    0.4492053520   -0.6798262373   -1.3078536157
 C   -0.8045781193   -1.6326917667   -1.2516285199
 C   -0.5248367598   -3.0070622750   -0.7012626700
 C   -0.5448430257   -3.0193054513    0.6335024196
 C   -0.8414105834   -1.6551972161    1.2003461805
 C    0.4098274765   -0.7038376025    1.3116973167
 C   -1.3273688295   -0.8217184851   -0.0256720916
 H    1.0636277789    1.9089466271    0.0350641742
 H   -0.4536651783    1.9633554800   -0.8729610522
 H   -0.4799782599    1.9471695642    0.8984742535
 H    0.4112719517    0.0005480789   -2.1644648020
 H    1.4279229354   -1.1681698234   -1.2939016172
 H   -1.4069486913   -1.6287477794   -2.1630252064
 H   -0.2726160986   -3.8529520149   -1.3321692608
 H   -0.3114346904   -3.8766986481    1.2560664445
 H   -1.4708890832   -1.6678242311    2.0931548392
 H    1.3886664150   -1.1920918362    1.3182255734
 H    0.3459550541   -0.0392782361    2.1791145619
 H   -2.3340046499   -0.4022636734   -0.0369426937