18

 C    0.0940883010    1.3934990326   -0.1733418902
 O    0.9795212247    0.2982701156   -0.4223170827
 C   -0.3263320601    0.0112868670    0.0832630700
 C   -0.4061068886   -0.5703367879    1.4764474337
 C   -1.8769783368   -0.5480036933    1.9892927479
 C   -2.3380067209   -1.9739458907    1.8036146506
 C   -1.3289462249   -2.7956981639    1.5212909256
 C   -0.0037456049   -2.0754789050    1.4677743565
 H    0.3692462318    2.0335017208    0.6646277859
 H   -0.2610937742    1.9192164758   -1.0588090547
 H   -0.9867986506   -0.4617530187   -0.6477169631
 H    0.2577899090    0.0118011256    2.1210871256
 H   -1.9327221986   -0.2498202546    3.0448929498
 H   -2.4918149579    0.1747122288    1.4377527151
 H   -3.3742433707   -2.2704958421    1.9237299627
 H   -1.4166914955   -3.8666434209    1.3741455967
 H    0.5944676992   -2.3292548138    0.5850318983
 H    0.6159165481   -2.3316920754    2.3377512522