27

 C   -0.1279940267    1.6115667760   -0.0399248836
 C   -0.0800506059    0.0801104444   -0.0263029935
 C    0.7475843403   -0.5265299192   -1.1627709367
 C    2.2595482117   -0.1802865316   -1.1226566491
 C    3.0016793922   -1.3942264322   -1.7508749059
 C    1.9044911975   -2.4170683561   -2.1467488701
 C    2.3432537403   -3.8829657282   -2.0907841108
 C    3.4515031588   -4.2396541143   -3.0869859901
 C    0.7371789759   -2.0629492392   -1.2113944918
 H    0.8717546670    2.0453431221    0.0660841589
 H   -0.5520455902    1.9848607418   -0.9791314474
 H   -0.7444131856    1.9969410430    0.7784239328
 H    0.3288653514   -0.2656354548    0.9335138198
 H   -1.1038823158   -0.3129085848   -0.0796385030
 H    0.3361989705   -0.1618437400   -2.1158859669
 H    2.4786396778    0.7549400964   -1.6450985488
 H    2.5772167500   -0.0360141011   -0.0830900421
 H    3.6194874249   -1.1054555423   -2.6055689971
 H    3.6796500333   -1.8470656232   -1.0175282983
 H    1.5835233548   -2.1965333414   -3.1758594649
 H    2.6793105555   -4.1135655802   -1.0700524277
 H    1.4719459614   -4.5248461806   -2.2761174234
 H    3.1357906253   -4.0389305328   -4.1171876714
 H    4.3605058061   -3.6581815103   -2.9012702423
 H    3.7176227041   -5.2994572715   -3.0223485738
 H    0.9308947094   -2.4674689259   -0.2067082049
 H   -0.2208461940   -2.4746732041   -1.5465411679