23

 C   -0.0940833996    1.6217855431   -0.0317710884
 C   -0.0854192012    0.0864053960   -0.0020289068
 C    0.5190584015   -0.4419712446   -1.3151497880
 O    0.2985295335   -1.8271519256   -1.5146890502
 C    1.4270887786   -2.6707862087   -1.4587672763
 C    2.1237474620   -2.7193065097   -0.0781663376
 C    1.1386682229   -2.8917756541    1.0420578735
 C    0.4664570535   -1.8832708748    1.5971356970
 C    0.6433879135   -0.4190514980    1.2691463400
 H    0.9261904628    2.0237300001   -0.0617732696
 H   -0.6265669079    2.0024193974   -0.9095841979
 H   -0.5815265674    2.0300405565    0.8587320078
 H   -1.1229033632   -0.2704388995    0.0309961450
 H    0.0384029741    0.0829698625   -2.1522776787
 H    1.5919405758   -0.1990672675   -1.3613757841
 H    1.0475787328   -3.6652710991   -1.7167234220
 H    2.1680094573   -2.3883063073   -2.2247228589
 H    2.8516527377   -3.5385997181   -0.1014450633
 H    2.6998588311   -1.7971532737    0.0611271908
 H    0.9157348203   -3.9100339253    1.3527814355
 H   -0.2805652436   -2.1127344816    2.3542059383
 H    1.7106319959   -0.1770449567    1.1667239223
 H    0.2846149996    0.1724417585    2.1192959913