21

 C    0.3911634856    1.6096649572   -0.0543380429
 C    0.1909435279    0.1096285945    0.0094549801
 O    1.0738488814   -0.6262709281   -0.8797811471
 C    1.3643657691   -1.5983953617    0.1470242589
 C    0.6608209363   -0.7322821841    1.2244000678
 C    1.7921147340   -0.1687614334    2.1043356187
 C    3.0836301160   -0.3488503452    1.2756009883
 C    2.8507879284   -1.6515042981    0.4900749729
 O    3.0102583220   -2.8107075611    1.3039520804
 H    1.4077496931    1.9041756010    0.2184916254
 H    0.1980347531    1.9652884339   -1.0716259331
 H   -0.3101619224    2.1151291403    0.6185801973
 H   -0.8548384922   -0.1228601801   -0.2426816322
 H    0.9549808391   -2.5878042596   -0.0811816034
 H   -0.1426329715   -1.1854155103    1.8054976724
 H    1.6248840864    0.8683919209    2.4093948914
 H    1.8565443272   -0.7686865641    3.0168987296
 H    3.2134922728    0.4726858232    0.5645413370
 H    3.9875646559   -0.3925313176    1.8926491658
 H    3.4672793757   -1.7131091939   -0.4177243840
 H    3.9081526721   -2.8093213138    1.6490783770