16

 C   -0.0108632226    1.5388141049    0.0318860585
 C   -0.0014915287    0.0358118589    0.0144053519
 C   -1.1603261108   -0.7155802012    0.0529976604
 N   -2.4003243063   -0.1399805191    0.1396635466
 N   -1.1973602182   -2.0949580480    0.0466038109
 C   -0.0514271111   -2.6937886218    0.0056716862
 N    1.1352114569   -2.0556286530   -0.0314947275
 C    1.2666785270   -0.6400040644   -0.0326486555
 O    2.3842690794   -0.1480740973   -0.0710187808
 H    1.0179703498    1.9022034740    0.0350605486
 H   -0.5136639346    1.9613041578   -0.8494927642
 H   -0.5211372311    1.9338924391    0.9195173241
 H   -2.5048350554    0.8206622709   -0.1398692220
 H   -3.1744229988   -0.7523494820   -0.0618517205
 H   -0.0163813539   -3.7806396396   -0.0020747194
 H    2.0048597485   -2.5694309192   -0.0640023572