19

 C   -0.0568228009    1.4389509650    0.2044361672
 C   -0.0140070190   -0.0144560070    0.2842521156
 C    0.0321471784   -1.2156011195    0.3550248432
 C    0.0487976380   -2.6743574874    0.4276614152
 C   -1.3232036298   -3.2795507839    0.1155065249
 C   -1.9084014557   -3.3670900245   -1.3214803339
 C   -0.9301636811   -4.5109042866   -1.6813473325
 C   -1.5291615384   -4.7714474779   -0.2776982230
 O   -2.8557310314   -4.3920198310   -0.8169147038
 H    0.4673912815    1.8059621745   -0.6849722087
 H   -1.0884394193    1.8046936520    0.1539249226
 H    0.4141612148    1.9003920709    1.0795182062
 H    0.8185962258   -3.0675335050   -0.2456875570
 H    0.3453276605   -2.9897455978    1.4373714360
 H   -2.0756994201   -2.9415547420    0.8313707500
 H   -2.3132592208   -2.5748083564   -1.9509207709
 H   -1.2898437967   -5.1863379796   -2.4580376268
 H    0.1351851574   -4.2929137753   -1.7783269166
 H   -1.4786155132   -5.6662308984    0.3441417223