16

 C   -0.0859911189    1.5365286711   -0.1238883472
 C    0.0322422714    0.0279143045   -0.0522166075
 N   -1.0632640169   -0.7744391337   -0.5469413106
 C    1.3742758776   -0.6146883416   -0.2192579752
 O    2.4537585293    0.2210042415   -0.4558350164
 C    0.7131068689   -0.6178537226    1.1679573032
 C    1.2905666505    0.1808161076    2.2047007991
 N    1.7782084765    0.8136136169    3.0427384969
 H    0.8098047740    2.0363440641    0.2465580171
 H   -0.2403334159    1.8455255642   -1.1636363925
 H   -0.9443953843    1.8788167823    0.4640365396
 H   -1.9267315748   -0.5097299380   -0.0795151595
 H   -1.2017150674   -0.5907235353   -1.5377182969
 H    1.3928077009   -1.5818089711   -0.7191557411
 H    3.1998561811   -0.0694875538    0.0806351697
 H    0.2846222480   -1.5593564060    1.4917504613