14

 O   -0.0121551905   -0.0191415482    0.3144249458
 C   -0.0028375610    1.1178112653   -0.0918340572
 C    1.2132963372    1.9668094254   -0.0713862080
 C    1.5574186087    2.9780964111   -1.1902797690
 N    0.5011894543    3.4775156776   -2.0036204507
 C   -0.4713566046    4.1200729312   -1.2621937491
 O   -1.5204142769    4.5608586722   -1.6254415926
 O   -0.0347403530    4.1616659499    0.0500057030
 C    1.1885272854    3.4764059207    0.1627644163
 H   -0.9199467354    1.5805245379   -0.5091524475
 H    2.0786639028    1.4722548177    0.3582756596
 H    2.5615950269    2.9966078523   -1.5959106335
 H    0.2667833904    3.1253093668   -2.9165734434
 H    1.8676934156    3.9262454103    0.8746507062