21

 C   -0.0289696457    1.4056051318   -0.0816806544
 O   -0.0239547982    0.0274711540    0.2068652361
 C   -1.2757660875   -0.6141212998    0.0684385224
 C   -1.7011302891   -0.8177248937   -1.3941531961
 O   -0.8707492761   -1.7603151019   -2.0465918501
 C   -0.8513570033   -2.9996870966   -1.3736156154
 C    0.0600078361   -3.9387110004   -2.1317719066
 O   -0.3623698944   -2.8713533159   -0.0598641585
 C   -1.1535245367   -1.9926960450    0.7211845358
 H    0.9610840351    1.7889756714    0.1767133529
 H   -0.2137231398    1.6197893245   -1.1443424869
 H   -0.7838038266    1.9433273994    0.5147070656
 H   -2.0595805233   -0.0365463101    0.5897645748
 H   -2.7538716837   -1.1506941882   -1.4088582171
 H   -1.6368596518    0.1085805316   -1.9701717258
 H   -1.8897602954   -3.3895604024   -1.3284686204
 H    1.0698777577   -3.5224899589   -2.1545090824
 H    0.0859752853   -4.9123380898   -1.6375414157
 H   -0.2996317027   -4.0619255134   -3.1556734945
 H   -0.6628886340   -1.9047469765    1.6928392336
 H   -2.1639605159   -2.4110815502    0.8667599727