15

 O    0.0155073143    1.3293808029   -0.2063267270
 C    0.0585124303   -0.0662917160   -0.0755111810
 C    0.8211705801   -0.8046539534   -1.1992135298
 C   -0.1016791149   -1.9387397228   -1.5745524017
 C   -1.2512269377   -1.9346195799   -0.8951260637
 C   -1.2922667094   -0.8088366608    0.0839290987
 O   -0.8884542929   -1.2221870961    1.4629545067
 C    0.2937675234   -0.5540687601    1.3649008375
 O    1.1334527184   -0.3985298051    2.1958684085
 H    0.7170300211    1.6984910813    0.3430762912
 H    0.9768316251   -0.1074565513   -2.0314029809
 H    1.8115825092   -1.1539162786   -0.8851522105
 H    0.1685234023   -2.6703082246   -2.3284638727
 H   -2.0564845715   -2.6500692579   -1.0057483325
 H   -2.2039309280   -0.2151104475    0.1438484872