19

 O   -0.9026077552    0.5364856107   -0.1591655559
 C   -0.3345376176    1.5750318558    0.0535272954
 C    1.1732367015    1.7806826323   -0.0311541551
 C    1.4561874166    2.5746365531   -1.3217096615
 C    2.9066337186    3.0216309677   -1.5071959666
 O    3.2113421361    4.1611773499   -0.7285547515
 C    3.6292142775    3.9077647679    0.5906968016
 C    2.6610318778    3.2220482880    1.5189647759
 C    1.6641388667    2.3717354119    1.2708170910
 H   -0.8992547003    2.4996608327    0.3198988146
 H    1.6064147438    0.7755934966   -0.1356660975
 H    1.1597356015    1.9522312303   -2.1746011180
 H    0.8353235382    3.4786093344   -1.3495333169
 H    3.6078975570    2.1987036484   -1.2937315707
 H    3.0569446299    3.3224133535   -2.5496641672
 H    4.5721202981    3.3269776879    0.5888880791
 H    3.8768895110    4.8908676265    1.0066903426
 H    2.8727934010    3.4330647256    2.5670660263
 H    1.1470719478    1.9753917766    2.1446196745