14

 O   -0.0869052129    1.2129472945   -0.4884013991
 C    0.0338913507   -0.0696945522   -0.1159681615
 N    1.2189993543   -0.5796880343   -0.1021222285
 C    1.4896431201   -1.8645764192    0.3175927347
 N    0.7965418095   -2.9433332020    0.3352537107
 C   -0.5413047367   -3.0469336382   -0.0647918430
 N   -1.0167038787   -4.0868823867   -0.6343423576
 C   -1.4931988169   -1.9740729787    0.2862280414
 C   -1.2441187109   -0.6560252231    0.2593627499
 H    0.8099684083    1.5213618890   -0.6917617153
 H    2.5213848506   -1.9646774376    0.6588893143
 H   -0.2569228465   -4.7534047685   -0.7974288319
 H   -2.4967512392   -2.3178871411    0.5182184773
 H   -2.0410778416    0.0539335381    0.4527037586