20

 C    0.1350790021    1.4442658671   -0.3166045866
 C    0.0113077031   -0.0037166611    0.1660273438
 O    0.4126994142   -0.1359276756    1.5262461165
 C   -1.4122750797   -0.5382195751    0.0931290044
 C   -2.4232907961    0.1406382714    0.9981183565
 C   -1.8783675628   -1.0869566217   -1.2222326978
 C   -1.5801698527   -2.0488848789   -0.0781731283
 C   -0.4424089998   -2.9200790917   -0.1620464156
 N    0.4716611957   -3.6261624813   -0.2366602770
 H    1.1828013143    1.7626804763   -0.2878215838
 H   -0.2156168946    1.5487722496   -1.3483726931
 H   -0.4393553440    2.1213823452    0.3211903233
 H    0.6427428095   -0.6387099859   -0.4733818410
 H    1.3433267935    0.0995818652    1.5898494458
 H   -2.5796262466    1.1833399610    0.7033704706
 H   -3.3934363293   -0.3627607606    0.9490059774
 H   -2.0754229579    0.1264865281    2.0336069176
 H   -2.9193480418   -0.9633951682   -1.4997341534
 H   -1.1858232620   -1.0937105543   -2.0567180901
 H   -2.4327425448   -2.4941932297    0.4235101606