18

 C    0.0644886321    1.5249180689    0.1077835532
 C   -0.0420096090   -0.0003722266    0.1751479832
 C   -1.3952612849   -0.5235395121   -0.3249190309
 C   -1.4896647321   -2.0279859036   -0.2439053306
 N   -1.8141048105   -2.6033718654    1.0629061615
 C   -2.7842916669   -2.7568910614   -0.0418421270
 C   -4.0391715435   -2.0563631957    0.0931946042
 N   -5.0511724461   -1.5022665998    0.1681169004
 H    1.0362402736    1.8714400475    0.4723434736
 H   -0.0547825606    1.8866404816   -0.9195565157
 H   -0.7105248964    2.0012526710    0.7177442322
 H    0.7653962364   -0.4524381606   -0.4166183259
 H    0.1043258574   -0.3393752917    1.2076623466
 H   -2.2053973131   -0.0837365847    0.2665416344
 H   -1.5568017904   -0.2132242642   -1.3655998721
 H   -0.7684208370   -2.5689427686   -0.8569608041
 H   -1.3353112395   -3.4873283954    1.2135358999
 H   -2.8827140493   -3.7315649990   -0.5123015431