21

 C   -0.4678993375    1.8478073411    0.2793423196
 C   -0.0645382495    0.3919516712    0.0489484589
 C    0.9773195558    0.1168952007   -1.0820032130
 C    1.7222303602   -0.8459587348   -0.1226934310
 O    3.1269940740   -0.8746340365   -0.1127394598
 C    0.9583926028   -0.2120826310    1.0691642812
 C   -1.3145227291   -0.4609437397   -0.0466522471
 C   -2.0347113986   -0.7210565741   -1.2985586156
 O   -1.2262086013   -1.7339262909   -0.6910063728
 H    0.4155454534    2.4804393914    0.4106485681
 H   -1.0416725333    2.2406715744   -0.5675555241
 H   -1.0867865204    1.9526126531    1.1785153801
 H    0.6241917077   -0.2948833759   -2.0292880066
 H    1.5714745736    1.0148951495   -1.2857383028
 H    1.4022631680   -1.8758010036   -0.2905251422
 H    3.4427160940    0.0238040917    0.0315607455
 H    1.5522556185    0.5758543874    1.5470063386
 H    0.5737745840   -0.8798156623    1.8448715708
 H   -1.9020577840   -0.4822904483    0.8750450386
 H   -3.1073359766   -0.9075739932   -1.2779057826
 H   -1.6523139817   -0.3204926901   -2.2360118035