23

 C   -0.6903898164    1.2096687310   -0.0254145621
 C    0.0365461829   -0.1321351659   -0.1570232095
 C    1.0740682333   -0.1941422767   -1.2700270296
 C    2.3915007234    0.5454984418   -1.0916812813
 C    2.2577812655   -0.9046645721   -0.6987725204
 O    2.0427263791   -1.2169747009    0.6477550098
 C    0.8011066672   -0.6383466526    1.1226495777
 C    1.1483489818    0.4532486489    2.1445220353
 C    0.0292674508   -1.7637493811    1.8183543011
 H    0.0030141520    2.0357475297    0.1547917105
 H   -1.2347381168    1.4325642844   -0.9486572070
 H   -1.4207119827    1.1956726340    0.7905698966
 H   -0.7198621045   -0.8900189576   -0.3967396963
 H    0.7232644008   -0.3838958272   -2.2784212506
 H    2.9487204007    0.7681361386   -1.9960483744
 H    2.4933665923    1.2904533965   -0.3112878364
 H    2.8158459364   -1.6758865145   -1.2182795039
 H    1.6916085073    1.2875430232    1.6959077286
 H    0.2487557232    0.8510895023    2.6237596717
 H    1.7851882390    0.0209629358    2.9214254984
 H    0.5969233314   -2.1497116645    2.6701943309
 H   -0.9378693371   -1.4033962216    2.1855158232
 H   -0.1478705997   -2.5887484813    1.1226140177