23

 C   -0.4577422780   -0.3689060132    0.6889689910
 C    1.0058859378   -0.8046814790    0.5304960111
 C    1.4345690575   -0.9543021063   -0.9174101762
 O    2.6050312684   -1.7706496681   -1.1421048762
 C    1.3263869470   -2.2458286238   -1.6238742289
 C    0.8032638904   -3.5325676556   -1.0402308450
 C    1.4634408564    0.3235735548   -1.7781794392
 C    2.2104331775    1.4791071933   -1.1002551837
 O    2.0383378841    0.0464831701   -3.0443874564
 H   -0.6417664415    0.6158460285    0.2480396419
 H   -1.1376149036   -1.0793855700    0.2075636746
 H   -0.7287729577   -0.3104110076    1.7470806928
 H    1.6644848117   -0.0824333495    1.0250796549
 H    1.1685109471   -1.7547572691    1.0449411198
 H    1.2412937486   -2.1790492205   -2.7076574633
 H    0.8948835606   -3.5714730920    0.0463247679
 H   -0.2507435765   -3.6651957991   -1.3080784048
 H    1.3581772083   -4.3808286955   -1.4549121548
 H    0.4305584953    0.6318138740   -1.9809024554
 H    1.6865876450    1.8511691275   -0.2147159240
 H    3.2161212870    1.1656052207   -0.7987671048
 H    2.3074192968    2.3023712095   -1.8120969262
 H    2.8251584478   -0.4842820988   -2.8531731049