16

 C   -0.0041147101    1.4857297600    0.0211004037
 C    0.0110006615   -0.0171478661   -0.0031788664
 C   -0.8616670038   -0.8930860804    0.8806270438
 C   -0.7471747053   -2.3121921701    0.2304073981
 C    0.7141455776   -2.3006765588    0.4299556507
 C    0.6281166034   -0.8813710654    1.0841162975
 N    0.1563731901   -2.1777901309   -0.9432979685
 C    0.1927140796   -0.7687987536   -1.2905542956
 O    0.3401885486   -0.3369810626   -2.3954858778
 H    0.9369698909    1.8861644701   -0.3675681775
 H   -0.8122749888    1.8724161137   -0.6069123472
 H   -0.1459477537    1.8681107984    1.0357505892
 H   -1.6556704275   -0.5153441678    1.5080814344
 H   -1.4797142682   -3.1079438641    0.2292905124
 H    1.4323908831   -3.0849943610    0.6269480755
 H    1.2188462027   -0.4927461615    1.9007182077