21

 C   -0.1113447053    1.5810151743    0.0942210809
 C    0.0121855225    0.0601693789    0.0272207189
 C    0.7558108321   -0.4379983367   -1.2682107132
 C    0.8643902968   -1.9720710305   -1.2684364881
 C    1.8145380008   -2.9578088165   -0.5288338747
 C    2.4064880600   -2.5378230788    0.8506573132
 C    1.0576289670   -1.8647703292    1.0575770715
 C    0.8587545792   -0.5462283331    1.1215046563
 C    0.4031603143   -2.6970561405   -0.0408964813
 H    0.8767588017    2.0548252330    0.1246790052
 H   -0.6411163196    1.9762051838   -0.7787728275
 H   -0.6577411320    1.8935404210    0.9899569082
 H   -0.9901399983   -0.3837746319    0.0118707781
 H    0.2013852670   -0.1237574686   -2.1619882078
 H    1.7344180880    0.0535993353   -1.3212215464
 H    0.5519857473   -2.4283788616   -2.2065499756
 H    2.1644003699   -3.8280820488   -1.0762007158
 H    2.5748387661   -3.4461204672    1.4409874306
 H    3.2979672248   -1.9031125571    0.8891424914
 H    1.5821233888    0.0978041173    1.6205961127
 H   -0.4465515713   -3.3629426732    0.0400910534