21

 C    0.0412276101    1.4030515418   -0.3273661057
 C   -0.1268731264   -0.0855642189   -0.0017045623
 C    0.7610072788   -0.4951189064    1.1858262244
 C   -1.5830590169   -0.4936047243    0.2316822675
 C   -2.5596860427    0.3857405623    0.8949942968
 O   -2.5717416537    0.2160311079   -0.5254744492
 C   -1.8161164632   -1.9797110943    0.3188249369
 C   -2.9144584323   -2.6316611656   -0.4010895618
 O   -1.5679876814   -2.7228492846   -0.8780446669
 H    1.0651898233    1.5963230726   -0.6611357398
 H   -0.6463318442    1.7150350597   -1.1157342990
 H   -0.1351089483    2.0323054756    0.5524916518
 H    0.1946786846   -0.6613426791   -0.8796811474
 H    0.4438738769    0.0093052124    2.1060026830
 H    0.7423446352   -1.5734431139    1.3670479029
 H    1.8009663766   -0.2133770652    0.9947709079
 H   -3.4059167775   -0.0544868619    1.4213619737
 H   -2.2609329758    1.3722151769    1.2425348783
 H   -1.4342113153   -2.4571725055    1.2221018429
 H   -3.3343167197   -3.5586313242   -0.0127635545
 H   -3.5777196381   -2.0172098553   -1.0035615694