15

 C    0.0860355552    1.5274799114    0.0392590210
 C   -0.0369046482    0.0431799795    0.0258658410
 C   -1.1793434631   -0.6733990318   -0.0858882718
 O   -2.3949967499   -0.1066443231   -0.2034466204
 C   -1.1818133931   -2.1392558279   -0.0876176038
 O   -2.2612612620   -2.7283131031   -0.1930934645
 C    0.1280568710   -2.7351456080    0.0390576577
 C    1.2135381661   -1.9408170475    0.1453662557
 O    1.1664463579   -0.6021628920    0.1421584178
 H    0.7154235734    1.8764117581   -0.7870170614
 H   -0.9030273638    1.9764511509   -0.0564611273
 H    0.5444249122    1.8746934271    0.9719607560
 H   -2.9922162923   -0.8812484826   -0.2623497014
 H    0.2341653373   -3.8122959906    0.0482723041
 H    2.2316018392   -2.2970568201    0.2439442274