16

 N   -0.0626034354    1.3169555176   -0.1865413455
 C    0.0026096838    0.0761212770    0.0367499791
 C   -1.2466595862   -0.7787610656    0.0412769292
 C   -1.2297005140   -1.8992291185    1.0740945437
 O   -2.1888882206   -2.1616577870    1.7610562107
 C    0.0671688547   -2.6138540660    1.1916286648
 C    0.8160798512   -3.0208726397   -0.0880600892
 C    1.2958270737   -1.8677617782    0.7175319982
 O    1.2060058996   -0.5474757971    0.2399681681
 H    0.8711421214    1.7319963428   -0.1735483836
 H   -2.1145739647   -0.1413647027    0.2015344882
 H   -1.3508138743   -1.2335008140   -0.9538493941
 H    0.1501379823   -3.2623346518    2.0554401435
 H    1.3767522296   -3.9474420204   -0.0489055503
 H    0.3364756031   -2.8214206977   -1.0391128526
 H    2.2064677859   -1.9727415887    1.2951108297