20

 C    0.0342586255    1.3524715447   -0.2249243714
 O   -0.0410980745   -0.0542324718   -0.2367697112
 C   -1.2816574432   -0.5385377467    0.2274730577
 C   -1.2456615570   -2.0422200223    0.1402270504
 C   -2.4804347197   -2.8970788726    0.1186366658
 C   -3.8863164947   -2.3420069942    0.1922804357
 C   -1.6314483586   -2.7683863997   -1.1476756425
 C   -2.1328992914   -2.0194643863   -2.2640240566
 N   -2.5502057834   -1.4158149480   -3.1592630360
 H    1.0246407833    1.6280666741   -0.5942848267
 H   -0.7277757825    1.8067631484   -0.8766642836
 H   -0.0931334861    1.7601457911    0.7908282789
 H   -1.4488793995   -0.2302270365    1.2746012020
 H   -2.1059056619   -0.1205099679   -0.3698222989
 H   -0.3775115975   -2.4658589603    0.6364987779
 H   -2.3666794922   -3.8616469002    0.6059721913
 H   -4.0065423286   -1.4349401014   -0.4037870033
 H   -4.6053555285   -3.0769315173   -0.1828744760
 H   -4.1548334459   -2.1091644593    1.2279019484
 H   -1.0259543938   -3.6220038138   -1.4319672521