15

 O   -0.0541800371   -0.0310364614    0.2372362850
 C   -0.0648232943    1.1444453236   -0.0283613359
 C   -1.2477187808    2.0806208340   -0.0947181974
 C   -0.6664267679    3.2957409980   -0.2548553510
 C   -0.0184983552    4.2385585141    0.7097608189
 C    1.2366343790    4.3628406404   -0.0981057908
 C    1.2601280131    3.2905128977    0.9604953566
 C    1.1634458016    2.1021089808   -0.0695170191
 C    0.6652897409    3.2392780781   -1.0142713056
 H   -2.1210753429    1.8542114275    0.5061170305
 H   -0.3905318638    4.8324684960    1.5346876808
 H    1.9000147578    5.1927213849   -0.2907452887
 H    1.7468046730    3.3005176757    1.9284400824
 H    2.1254212745    1.6167141845   -0.2465981055
 H    0.7065826421    3.1772020560   -2.0976844604