14

 C   -0.0041949231    1.3996306610    0.0057100352
 C    1.4261415319    1.9285105622   -0.0233055938
 O    2.1286899462    1.4073341204   -1.1415159113
 C    2.1214011273   -0.0122781836   -1.1257493565
 C    0.6910640080   -0.5411551739   -1.0967424916
 O   -0.0114869421   -0.0199806285    0.0214677011
 H   -0.5277619522    1.7298437812    0.9081954976
 H   -0.5505823391    1.7727380817   -0.8763266719
 H    1.4409167310    3.0185872857   -0.1190004549
 H    1.9390444715    1.6488591963    0.9118220117
 H    2.6449781886   -0.3424950531   -2.0282270529
 H    2.6677802808   -0.3853784326   -0.2437041961
 H    0.1781661906   -0.2614976831   -2.0318714017
 H    0.6762819706   -1.6312317237   -1.0010508048