17

 C    0.1331725127    1.3484066261   -0.3839114836
 O    0.0479690424    0.0618624686    0.2242709430
 C   -1.1710572148   -0.5381934001    0.1226975999
 C   -1.9090612435   -1.0408124152    1.1797623584
 C   -1.6181750437   -1.0272210634    2.6411092608
 N   -3.0091251930   -1.6077573253    0.6197447085
 N   -3.0437664114   -1.5005556704   -0.7352337994
 C   -1.9276284256   -0.8591108409   -1.0333771896
 O   -1.5884467134   -0.5539079484   -2.3070589379
 H    1.1554739705    1.6983354132   -0.2256145578
 H   -0.0739357683    1.2959278115   -1.4579938326
 H   -0.5693933338    2.0517265663    0.0826063635
 H   -2.4325207170   -0.5724114847    3.2164537548
 H   -1.4529880338   -2.0357472175    3.0380579473
 H   -0.7098794613   -0.4463696803    2.8146217279
 H   -3.7562642693   -2.0908996714    1.0853690765
 H   -2.2964019866   -0.8863759982   -2.8734096397