15

 O    0.0471491138    1.3567775219   -0.4188759427
 C    0.0643728453    0.1263502322    0.2840441786
 C   -1.3170963296   -0.4801681663    0.3219485475
 O   -1.7772134035   -1.0522400338   -0.9010420130
 C   -1.5683429761   -1.9475877886    0.2179174327
 C   -0.4719633574   -2.8802780887    0.0896172550
 C    0.4215252772   -3.6781508141   -0.0001032603
 C   -2.7692426014   -2.4900443193    0.8106087425
 C   -3.7613420556   -2.9415768519    1.3147256259
 H   -0.2249915494    1.1622135164   -1.3228613069
 H    0.7716729876   -0.5899282663   -0.1528720697
 H    0.3941170817    0.3560811745    1.3026092546
 H   -2.0730798820    0.1019796476    0.8496677025
 H    1.2127046247   -4.3821791793   -0.0841448228
 H   -4.6405403553   -3.3433505845    1.7552210363