13

 N   -0.0932689010    1.3098086159    0.0077304450
 C   -0.0159496825    0.0444229751    0.0009380012
 C   -1.2200543752   -0.8880565621    0.0032772459
 C   -0.6375221518   -2.3138008945   -0.0073647428
 C    0.8795963504   -2.1347666061   -0.0151395309
 O    1.7316749364   -2.9871116743   -0.0244361623
 N    1.1182295866   -0.7673872169   -0.0097558285
 H    0.8280808806    1.7511415914    0.0045639840
 H   -1.8308049600   -0.6827889695    0.8852889198
 H   -1.8410964867   -0.6739023138   -0.8693850797
 H   -0.9152712852   -2.9053264031    0.8687767356
 H   -0.9253218098   -2.8962926720   -0.8863160442
 H    2.0617886283   -0.4079592599   -0.0134483232