21

 C   -0.3578846412    1.6059980406   -0.1433244058
 C    0.0274191743    0.1380936366    0.0050286857
 C   -1.1754340011   -0.7854894998   -0.1766508922
 C    1.2747470697   -0.3066314550   -0.8295387584
 N    1.9090864286   -0.7592252592    0.4110054002
 C    0.8673165352   -0.1972380516    1.2819615593
 C    3.2692083167   -0.8009543448    0.6004836652
 N    3.6548814578   -0.8463793091    1.9352322122
 O    4.0632833693   -0.7733426696   -0.3224528378
 H    0.5073132938    2.2628963002   -0.0089328962
 H   -0.7748755156    1.8012811017   -1.1377806446
 H   -1.1155760532    1.8908013391    0.5957017144
 H   -1.6158974381   -0.6619935466   -1.1722862588
 H   -0.8881091267   -1.8361042043   -0.0651046128
 H   -1.9545423349   -0.5675041470    0.5626165784
 H    1.1031590473   -1.1018692894   -1.5623262675
 H    1.8225145936    0.5081478826   -1.3157166408
 H    1.1993159952    0.6793491822    1.8523169111
 H    0.4113529991   -0.9184750322    1.9718828601
 H    3.0231106664   -1.2813008299    2.5906981520
 H    4.6205084136   -1.1143975846    2.0503736761