21

 O   -0.2270348808    1.6071350961    0.2069127733
 C    0.0426360941    0.2097089575    0.2472669215
 C   -1.2697964324   -0.5137044952    0.0205002627
 C   -1.9723679723   -0.4729502919   -1.3804322498
 C   -2.1660270923   -2.0221225258   -1.3169289436
 C   -1.1407094623   -2.9560937042   -2.0046235139
 C    0.2378696952   -2.3710325441   -2.0265422672
 C   -0.2756831498   -2.9424552195   -0.7308715854
 C   -1.3318441924   -2.0728295087   -0.0062003116
 H    0.6074270860    2.0760147142    0.2990502832
 H    0.7881393510   -0.0671240651   -0.5109892177
 H    0.4530253724   -0.0892450499    1.2267932285
 H   -1.9664520616   -0.1472005851    0.7822420848
 H   -2.9024184424    0.0987546918   -1.3937572353
 H   -1.3493901132   -0.1143675109   -2.2038625893
 H   -3.1931087727   -2.3859868740   -1.3312370710
 H   -1.4075933295   -3.7940070485   -2.6383156260
 H    0.9831393112   -2.9931351646   -2.5137397755
 H    0.4048967375   -1.3103476150   -2.1738337195
 H    0.2444656829   -3.7671441607   -0.2569670646
 H   -1.7290663586   -2.5605305663    0.8854346962