20

 C    0.0640076936    1.4166635009    0.0585661842
 N   -0.0871972801   -0.0241476697   -0.0155903886
 C    0.5764190582   -0.6795630575   -1.0636473333
 C    1.1634521419   -0.1123377669   -2.1776856129
 N    1.6251312924   -1.1470774104   -2.9649352288
 C    1.3547643266   -2.3493348474   -2.3698847608
 N    1.7556417319   -3.5390710306   -3.0281730332
 C    0.6970787474   -2.1013810408   -1.1786995623
 C    0.1903860623   -3.1126048044   -0.1992650611
 H    1.1148881539    1.7531934267    0.0857705783
 H   -0.4083545883    1.8796481296   -0.8155094542
 H   -0.4459833540    1.7909459423    0.9499464919
 H    0.0829256643   -0.4713924424    0.8754411302
 H    1.2803813322    0.9152042546   -2.4756811115
 H    2.0953324275   -1.0654289948   -3.8486166426
 H    2.3926159401   -4.0875787196   -2.4593913165
 H    0.9625108474   -4.1348031991   -3.2440490097
 H    0.7055248918   -3.0572126437    0.7703437323
 H   -0.8798332537   -2.9819997880    0.0037801602
 H    0.3349418146   -4.1294470088   -0.5782820517