14

 N    0.0141914124   -1.1522142192   -0.0828072402
 C    0.0090320103   -0.0001069670   -0.0097915429
 C   -0.0045373575    1.4658020303    0.0116971945
 O   -0.6106161299    1.9331227915    1.2227361242
 C    0.1677678203    3.0169070764    1.6841876133
 C    1.6445563588    2.7748191874    1.9293617685
 O    2.0460597132    1.5864565029    1.2464674794
 C    1.4034145220    2.0831039743    0.0409401576
 C    1.1754929952    3.4745184545    0.6712053965
 H   -0.5725198563    1.8245900953   -0.8608248303
 H   -0.3856014136    3.7122737707    2.3022670138
 H    2.2232935729    3.0977286278    2.7862744218
 H    2.0096588923    1.9532350466   -0.8547303109
 H    1.3230136001    4.4540033485    0.2391679146