17

 C    0.0720090734    1.6457557173   -0.0228603882
 C    0.0765489723    0.1174820086    0.0407023056
 C    0.8031043959   -0.5093695671   -1.1586413679
 O    0.7100461588   -0.2020244519   -2.3095402993
 O    1.6251734306   -1.5201012009   -0.7385106328
 C    1.6304817320   -1.5962459041    0.6743049647
 C    2.2317216241   -0.4183033401    1.4006214151
 C    0.7265055424   -0.5494345312    1.2408982810
 O   -0.0594995082   -0.8590885580    2.3471415287
 H    1.0816456964    2.0516531697    0.0924756939
 H   -0.3166814470    1.9757547861   -0.9893054699
 H   -0.5574920463    2.0656516658    0.7673087756
 H   -0.9585108289   -0.2471237228   -0.0033491740
 H    1.7003294170   -2.6077328453    1.0511596597
 H    2.6180454215   -0.6154798125    2.3945082754
 H    2.7822181539    0.3162812861    0.8214146875
 H   -0.1168244680   -0.0759825997    2.9056264348