11

 O    0.1081683513    1.3812088181   -0.1120788990
 C    0.0694617186    0.0172485259   -0.0363892442
 C   -0.0070324590   -0.8110697596   -1.1326025537
 N   -0.0250442353   -2.1057781548   -0.6548879560
 C    0.0384125677   -2.1062444106    0.7080150434
 C    0.0985138062   -0.7952589388    1.1313550662
 H    0.1598633143    1.7307679837    0.7816777498
 H   -0.0489432265   -0.5868349770   -2.1843858265
 H   -0.0769769411   -2.9257661194   -1.2313251281
 H    0.0360022967   -3.0268571000    1.2685551287
 H    0.1564703070   -0.4569876876    2.1553224395