18

 O   -0.0359241604   -0.1404175040   -0.1274023241
 C   -0.0035729908    1.0752733364   -0.0795887655
 C   -1.3507889588    1.8146510186   -0.0305168326
 O   -1.3847852797    3.2144724368   -0.1019834172
 C   -1.3190813282    3.8816742569    1.1428465664
 C    0.0289029086    3.6648840308    1.8538696102
 C    1.1791420005    3.9266908450    0.9320027746
 C    1.6377945024    3.0536696784    0.0342776082
 N    1.2051027712    1.7329556528   -0.1753567926
 H   -1.8874195564    1.4379106691   -0.9076480706
 H   -1.8838999322    1.4312612466    0.8520168613
 H   -1.4595584250    4.9414853420    0.9102253883
 H   -2.1467625247    3.5622548838    1.7958875855
 H    0.0705795020    4.3162812496    2.7332189111
 H    0.0759107108    2.6320591325    2.2232602313
 H    1.6307258790    4.9135094970    0.9364352494
 H    2.4798005974    3.3172455735   -0.5996470874
 H    1.9370708242    1.0649422341   -0.3831419165