17

 N   -0.0998888893    1.2852364893   -0.0897777243
 C    0.0150102947    0.0228659345    0.0131778015
 N    1.1532450038   -0.7676574947    0.0990621849
 C    0.8522204554   -2.1978425283    0.0097239902
 C   -0.0134904706   -2.5291835809    1.2320092490
 O   -1.1841438387   -1.7037423326    1.1958675772
 C   -1.2047650313   -0.8904459259    0.0415646244
 O   -1.1992638361   -1.6810550181   -1.1365535837
 C   -0.0007871782   -2.4588438623   -1.2409195213
 H    0.8142905308    1.7435955684   -0.1247667394
 H    2.0107950965   -0.4211105257   -0.3054811806
 H    1.7745870635   -2.7809813111    0.0055944763
 H   -0.3180640099   -3.5832470784    1.2144484864
 H    0.5345533965   -2.3307194024    2.1598143276
 H   -2.1294300809   -0.3187902017    0.0503953931
 H    0.5401998769   -2.1735933297   -2.1527174504
 H   -0.2735356231   -3.5194626405   -1.3143987107