19

 C    0.0555556942    1.4327489098   -0.0544067035
 N   -0.0191375731   -0.0130171464    0.0059298835
 C    0.5519049704   -0.6664011775   -0.9131118143
 N    0.5388278346   -2.0676319287   -0.9472579045
 C   -0.1543163480   -2.8049841733    0.1090751968
 C    1.1849903385   -2.7075803435   -1.9832327164
 O    1.7701096258   -2.1146430972   -2.8760729618
 C    1.1593348785   -4.2364413542   -2.0020314356
 O    1.8579524880   -4.7076041747   -3.1127968561
 H    0.6180258050    1.8131620143   -0.9206932938
 H   -0.9574511683    1.8497014753   -0.0869097427
 H    0.5257584134    1.8125792617    0.8597846066
 H    1.1003854049   -0.2392764126   -1.7547693847
 H   -0.9630938883   -3.4153305486   -0.3025327304
 H    0.5374100743   -3.4505483028    0.6575915228
 H   -0.5729719027   -2.0666964186    0.7905595314
 H    1.5990847797   -4.6162520851   -1.0658362146
 H    0.1123571258   -4.5795847117   -2.0164601544
 H    2.1684946372   -3.9067818361   -3.5680398585