16

 C   -0.3233320190   -1.2293444543   -0.7080699470
 C   -0.1876322670   -0.1119162591   -0.2887773518
 C    0.0108248634    1.2578001702    0.1985812750
 N   -0.5447165815    1.3900255843    1.5503820323
 C    0.1189188532    1.9766777683    2.4509896393
 O    1.3607564276    2.5157235048    2.4193008116
 C    2.1001530588    2.3701350054    1.2279822074
 C    2.5572464164    0.9991065380    0.8199712113
 C    1.4655362708    1.7034393094    0.0451491733
 H   -0.4567647046   -2.2174383083   -1.0735102780
 H   -0.5950299281    1.9214831627   -0.4347621628
 H   -0.3056504925    2.1094778763    3.4440393133
 H    2.7526400549    3.2249756021    1.0973516970
 H    3.5353767438    0.8949886969    0.3647858113
 H    2.2584561556    0.1704484083    1.4536869370
 H    1.7192618682    2.0857033148   -0.9379523591