16

 C   -0.0225796080    1.4902147788    0.0528848409
 C   -0.0835821784    0.0049378864   -0.0297634811
 C   -0.0845437317   -0.8285811903   -1.0746921518
 C    0.0205273961   -2.2226642679   -0.4756712303
 C    1.4624397033   -2.3318139208    0.1188818296
 O    1.3980979039   -1.3994117508    1.2048942717
 C    0.0231300592   -0.9383342731    1.1744557302
 O   -0.7001872672   -2.0717648433    0.7652380647
 H    0.9002726701    1.8113816313    0.5520029629
 H   -0.0503511913    1.9503324538   -0.9383603294
 H   -0.8560823815    1.8937599746    0.6412542030
 H   -0.0199013565   -0.5912359495   -2.1280210513
 H   -0.3397925254   -3.0757642005   -1.0463977172
 H    1.6569349586   -3.3368290998    0.5080537452
 H    2.2452680016   -2.0470684156   -0.5910022574
 H   -0.2643177328   -0.5917001333    2.1657452105