22

 C    0.1151968389    1.5143798774    0.0063373330
 C    1.3374665855    0.6504391935    0.0320659824
 C    2.2406060754    0.7182825504    1.2488407687
 O    2.9251677765   -0.4811183535    1.5591044000
 C    2.1185451139   -1.6398213840    1.6836026586
 C    1.0124476781   -1.5872043606    2.7456342230
 C   -0.2090342068   -0.6784011653    2.4736881015
 C   -0.7082983242   -0.6819726915    1.0177563411
 N   -0.0049649697    0.0743635060   -0.0213189522
 H   -0.1144333210    2.0468263587    0.9310844981
 H   -0.1850045567    2.0416471625   -0.8970791372
 H    1.8890061218    0.5024411177   -0.8966933446
 H    3.0301425136    1.4476285654    1.0335260452
 H    1.6921810690    1.0941163265    2.1211205068
 H    1.6865268602   -1.9141789094    0.7094295031
 H    2.8219262999   -2.4339232516    1.9543700017
 H    0.6489141309   -2.6193187545    2.8418659348
 H    1.4588528328   -1.3288853029    3.7132211733
 H   -1.0374086105   -1.0411733203    3.0951890294
 H   -0.0289977623    0.3468753118    2.8098865456
 H   -0.7503688666   -1.7244102722    0.6735970353
 H   -1.7417400088   -0.3178492140    0.9965494125