20

 C   -0.0155386994    1.5337164892    0.0571131024
 C    0.0591559225    0.0351900663    0.0051137759
 C   -0.8376282538   -0.8639500774    0.8132969425
 C    0.6553476213   -0.9627143681    1.0087223989
 C    1.2599649133   -1.7523188010   -0.1338500591
 C    2.6362120688   -2.3399212925   -0.1707763945
 C    1.4194784852   -3.2412171483   -0.2456646752
 C    0.6697406405   -0.7645147742   -1.1632754764
 H    0.9462261041    1.9922592001   -0.2009804085
 H   -0.7645234779    1.9199193409   -0.6457182715
 H   -0.2943802218    1.8822283985    1.0572313960
 H   -1.3791533210   -0.3704771816    1.6152320120
 H   -1.3810649125   -1.6826106090    0.3459722087
 H    1.1287473572   -0.7718410176    1.9658501648
 H    3.2303301917   -2.2048525496   -1.0695826748
 H    3.2162221154   -2.3444372250    0.7471477961
 H    1.1812175627   -3.8512506116    0.6199664226
 H    1.1951572797   -3.7116333986   -1.1979185139
 H   -0.0396355272   -1.1676129299   -1.8953318565
 H    1.4457617213   -0.2050068004   -1.6951226995