17

 C    0.0098053144    1.4645046638   -0.1434364209
 C   -0.1491485856   -0.0575778044   -0.1235924718
 C   -1.4896147010   -0.4911555768    0.4841345200
 N   -1.6650649840   -1.9340900971    0.5249347566
 C   -2.3580853610   -2.6133412286   -0.4332964304
 O   -2.9301966257   -2.0848754170   -1.3699634286
 C   -2.3640663542   -4.0584165974   -0.2276014942
 C   -2.3849049305   -5.2525814247   -0.0890570488
 H    0.9690322974    1.7555020759   -0.5810084407
 H   -0.7827868576    1.9368601032   -0.7336213420
 H   -0.0352578038    1.8839229031    0.8680071728
 H   -0.0842976285   -0.4586617049   -1.1411913043
 H    0.6713055534   -0.5124597645    0.4463963940
 H   -1.5882974351   -0.0993286441    1.5035763967
 H   -2.3163874725   -0.0927955609   -0.1091563023
 H   -1.1826536473   -2.4718216118    1.2271234611
 H   -2.4127345385   -6.3092845338    0.0206841725