15

 O    0.1526211505    0.0266109388   -0.6005855537
 C    0.0515668309    1.1313743675   -0.1688275919
 C   -1.0794345816    1.9894925811    0.4353721325
 N   -0.1310566371    3.1384812195    0.5810027338
 C    0.5853113555    3.1339482200    1.8942317352
 C    1.8543439524    2.4776165966    1.2564241030
 C    2.3880055343    1.2771062037    1.8740519012
 N    2.7978806359    0.3262432876    2.3882613384
 C    1.0000575995    2.3445855010   -0.0415100822
 H   -1.8862551865    2.2035664843   -0.2738714504
 H   -1.5212261694    1.6195087433    1.3670673444
 H    0.7514681884    4.1375866591    2.2904523730
 H    0.1056770882    2.5213147981    2.6636575178
 H    2.6633308230    3.1981345660    1.1191207226
 H    1.4564214360    2.7009860836   -0.9681773636