24

 C   -0.0200025807    1.5628917975   -0.1122596385
 C    0.0322234176    0.0344619425   -0.0398985832
 C    0.6876612101   -0.4869811474    1.2440571697
 C    0.7385170472   -2.0178085724    1.3147540089
 C    1.4672126913   -2.5841713167    2.5458333822
 C    0.7684116720   -2.2412225305    3.8682316871
 C    1.6348287391   -4.0982027919    2.4018177506
 O    2.4391653815   -4.5717766322    3.4736681189
 H    0.9857687384    1.9957140126   -0.0691539137
 H   -0.4895345351    1.9046836280   -1.0400925084
 H   -0.5930906023    1.9797148085    0.7235771402
 H   -0.9854668647   -0.3711617209   -0.1168702627
 H    0.5785600498   -0.3556065802   -0.9091064937
 H    1.7086719937   -0.0864827645    1.3175276939
 H    0.1428813263   -0.0883834815    2.1090057673
 H   -0.2868463294   -2.4150770022    1.2882655413
 H    1.2313967568   -2.3925723491    0.4066550388
 H    2.4813763764   -2.1603049772    2.5714936534
 H   -0.2736689965   -2.5854970179    3.8571918197
 H    1.2763993669   -2.7312270515    4.7017280091
 H    0.7616451590   -1.1642837761    4.0574908416
 H    0.6421010261   -4.5797672538    2.4085557778
 H    2.1030944524   -4.3258989838    1.4305993194
 H    2.4762915840   -5.5308087395    3.4214530202