16

 O   -0.1767741866    1.3328097170    0.1593846501
 C   -0.1192928840   -0.0508688908    0.0187237531
 C   -1.4271922912   -0.7498704030   -0.0555466813
 C   -2.7330944543    0.0309943035    0.0430811552
 C   -3.2707194653   -0.0102525220    1.4037152588
 N   -3.6900333684   -0.0603476563    2.4789560653
 C   -0.5450246324   -0.6909174308   -1.3128798712
 C   -0.8938500513    0.1635300851   -2.4714802169
 O   -0.6951716313   -0.1595305463   -3.6182598147
 H    0.6242507955    1.7165444148   -0.2130751245
 H    0.6961747950   -0.5406243964    0.5482230841
 H   -1.4709412787   -1.7332388023    0.4005279210
 H   -2.5792167095    1.0773065985   -0.2320284457
 H   -3.4840730191   -0.3846911435   -0.6378091009
 H   -0.0579834179   -1.6177651465   -1.5969203485
 H   -1.3430964105    1.1486822392   -2.2270994139