18

 C   -0.1191615346    1.3694197613    0.0279031721
 N    0.1171818901   -0.0641372587    0.0085712614
 C    0.7113099056   -0.6485611592    1.0889650633
 N    1.3558337346   -0.0616182453    2.0543142966
 C    1.8077211899   -1.1238109850    2.8359657738
 N    2.6096015897   -0.8550254580    3.9467919623
 C    1.4039546090   -2.3068271195    2.3102955623
 C    1.5609355845   -3.7388319319    2.6532958866
 O    0.6721359429   -1.9901419792    1.1506447799
 H    0.8173467096    1.8793178112    0.2617742058
 H   -0.4553143495    1.6847869659   -0.9622700056
 H   -0.8649666862    1.6743459002    0.7752762676
 H   -0.5864357211   -0.6356430681   -0.4329986841
 H    2.4639789629    0.0931519309    4.2685018640
 H    2.4781687023   -1.5066828743    4.7086070905
 H    0.6028617711   -4.2330891943    2.8626305759
 H    2.0514510556   -4.3058823026    1.8515998034
 H    2.1858485436   -3.8337332435    3.5461687244