19

 C    0.0428576038    1.4000570748   -0.1544498110
 C   -0.0011822217   -0.0865728575   -0.0165279017
 O    0.5691652755   -0.9197498908   -1.0745966999
 C    0.0766902365   -1.8904944384   -0.1004446560
 C    0.2428899697   -3.3488790651   -0.3787723315
 C    0.4832674328   -1.0281082385    1.1370782496
 C   -0.9200564562   -1.1034299317    1.7750601399
 C   -1.2061738503   -1.0383442682    0.2570967217
 O   -2.4068826921   -0.9561734898   -0.4114491690
 H    1.0757666904    1.7481283534   -0.2502628434
 H   -0.5139215293    1.7149749940   -1.0421173800
 H   -0.4056879059    1.8778847560    0.7221559965
 H    1.2995054930   -3.5983821298   -0.5175021245
 H   -0.1452575981   -3.9454801180    0.4533376844
 H   -0.2968078257   -3.6284666060   -1.2893421249
 H    1.4605163769   -1.0113006904    1.6142591507
 H   -1.1735124574   -2.0364051096    2.2881406446
 H   -1.2353249334   -0.2414227621    2.3694563895
 H   -2.9415909284   -1.7259790226   -0.1884679249