19

 C   -0.1367624292    1.5660108414   -0.0060615256
 C   -0.0181049763    0.0541758864   -0.0201984830
 C    1.2683969316   -0.5922360082   -0.6069265079
 O    2.0333795728   -0.0960281888    0.5602640890
 C    0.7764888659   -0.6419531076    1.1256768324
 C    0.9689216633   -1.8915207917    0.2294759856
 O   -0.1787518889   -2.6375188714   -0.0530964749
 C    2.1379629658   -2.8168847001    0.5278883495
 O    2.1776559414   -3.7473770007   -0.5597523465
 H    0.8081978789    2.0262772724    0.2898402361
 H   -0.4117228557    1.9420631050   -0.9975677029
 H   -0.9166219116    1.8880654427    0.6925588322
 H   -0.9449534452   -0.4482270024   -0.3003655444
 H    1.7260618341   -0.4778469331   -1.5906296000
 H    0.6437100008   -0.5791102699    2.2075953282
 H    0.1362793074   -3.4166496689   -0.5322275107
 H    3.0671861138   -2.2480581402    0.6128368070
 H    1.9466651010   -3.3407532487    1.4760186547
 H    2.7505916102   -4.4790697763   -0.3159083588