19

 C   -0.1437888948    1.5058816489    0.1998333055
 C   -0.0224969431   -0.0087855016    0.0206091178
 C    0.7539659460   -0.4483907426   -1.2463809257
 N    2.1402690311    0.0357352062   -1.1541792174
 C    0.8057885180   -2.0048392913   -1.2499786911
 C    1.5675497655   -2.5461935095   -2.3726425878
 N    2.1907398700   -2.9564393965   -3.2551687824
 C    0.0579772181    0.0188953875   -2.4588768047
 C   -0.4896046390    0.4136536049   -3.4542632316
 H    0.8327275980    1.9738490345    0.3595549784
 H   -0.6132125341    1.9719698137   -0.6713737966
 H   -0.7568909321    1.7339794276    1.0763620909
 H    0.4952796909   -0.4431965065    0.8828801801
 H   -1.0232143790   -0.4529980036   -0.0236043107
 H    2.6609646212   -0.2775674521   -1.9704521599
 H    2.1440933273    1.0502794205   -1.1971778590
 H    1.2781147945   -2.3333356862   -0.3187529558
 H   -0.2106805866   -2.4076958089   -1.2818492613
 H   -0.9635589520    0.7567993050   -4.3410288786