21

 C   -0.0334799483    1.5070674477   -0.0458637335
 C    0.0723885634   -0.0070267662   -0.0048216878
 O    1.1419953906   -0.5725808109   -0.0130273799
 C   -1.2447464963   -0.7819590339    0.0301793282
 C   -1.7444974661   -1.0223638529   -1.4159185201
 C   -2.9996627175   -1.8995884175   -1.4003527448
 O   -2.7767492558   -3.1293722803   -0.7397120197
 C   -2.3977800790   -2.9458493466    0.6144456088
 C   -1.1084700527   -2.1337537247    0.7459946244
 H    0.9429026949    1.9467995055   -0.2525266525
 H   -0.7611069429    1.8347467328   -0.7958531154
 H   -0.3946589185    1.8706013478    0.9240591052
 H   -1.9963081908   -0.1652324868    0.5438271001
 H   -1.9636206232   -0.0757049437   -1.9234717008
 H   -0.9583765445   -1.5309645695   -1.9857873084
 H   -3.8291298044   -1.3525412696   -0.9169830247
 H   -3.3114905905   -2.1490782049   -2.4189840569
 H   -3.2151624041   -2.4492644344    1.1677028205
 H   -2.2729817282   -3.9482608516    1.0339071160
 H   -0.2732955512   -2.6841868765    0.3032429585
 H   -0.8711656050   -1.9864682438    1.8058220528