14

 O   -0.1145129241    1.4621496607    0.1303998366
 C   -0.0030504469    0.0761375394   -0.0064213114
 C    0.7799644812   -0.2751542259   -1.2939577919
 C    0.1153966714    0.2685922776   -2.5553649313
 O    0.1681533311   -0.2979547770   -3.6129299448
 C    0.7547408737   -0.5041046895    1.2078268118
 O    1.1663023565    0.2279485152    2.0667918840
 C   -1.3391778888   -0.5659312588   -0.0232782442
 N   -2.3665795562   -1.0947987299   -0.0218279857
 H    0.2483560741    1.6737198519    1.0081288789
 H    1.7650632823    0.2015017087   -1.2063321579
 H    0.9213352986   -1.3534270686   -1.4074120781
 H   -0.3998078179    1.2422730874   -2.4315625370
 H    0.8972972850   -1.5994912410    1.2231963410