18

 C   -0.0126169215    1.5330507624    0.0019075898
 C   -0.0165318387    0.0268474607    0.0455755013
 C    1.2308812469   -0.7623507859   -0.3039669060
 C    0.6962795218   -0.7789815780    1.1098347104
 O    1.4159750224   -0.2529350345    2.1655321967
 C   -0.2024000703   -1.9321029253    1.4548003468
 O   -0.0369316778   -2.6726024593    2.4053110204
 N   -1.2195986682   -1.9423589998    0.5450269904
 C   -1.3266725232   -0.7158235483   -0.2411891610
 H    0.9431883071    1.9247722856    0.3596715186
 H   -0.1714602622    1.9043363534   -1.0170404931
 H   -0.8007172062    1.9487388241    0.6393553443
 H    1.1604818085   -1.6515062521   -0.9241958854
 H    2.1365165353   -0.1784037001   -0.4329045793
 H    1.3971222606   -0.9428609722    2.8464926233
 H   -1.9746294389   -2.6038267533    0.6308354608
 H   -2.1896004746   -0.1164453425    0.0803475716
 H   -1.4479193810   -0.9380458449   -1.3086189494