16

 C   -0.0026461491    1.4887018755   -0.0044033548
 C    1.3833263665    2.1327332566    0.0087044920
 O    2.0859484739    1.6811284340    1.1628606707
 C    2.3716387239    0.3307778750    0.8363601441
 C    1.1455525726   -0.6016638209    0.8038431464
 C    1.1706016416   -0.6247463226   -0.7101452854
 C    2.3975674745    0.3068816854   -0.7304916048
 O    2.1235164341    1.6465076408   -1.1072715958
 N    0.0866016710    0.0181900580    0.0194959920
 H   -0.5752848527    1.8105680453    0.8710844862
 H   -0.5458558787    1.7834462287   -0.9077527814
 H    1.3757452325    3.2244554061   -0.0080670774
 H    3.2497023990   -0.0115203599    1.3819464737
 H    0.8854399915   -1.3777363380    1.5146842637
 H    0.9337472084   -1.4222538225   -1.4052162903
 H    3.2930249509   -0.0514461916   -1.2360468090