21

 O    0.0523226460   -0.0359789347    0.2922094206
 C    0.0035547943    1.1585634405    0.1141713890
 C   -1.3251103909    1.9017144936    0.0491359221
 C   -1.4175784777    3.0605889078   -0.9547739287
 C   -1.2949762583    2.6639273019   -2.4343510211
 C   -0.0246966449    1.8965328014   -2.8508292332
 C    1.3260786104    2.4783593214   -2.3802090668
 O    1.9178419765    1.7860840773   -1.2896322606
 C    1.3177122783    1.9632555246   -0.0216904368
 H   -2.1077430305    1.1549228832   -0.1194995919
 H   -1.4901619892    2.3045584488    1.0600832916
 H   -2.3832907443    3.5585927666   -0.8117942292
 H   -0.6637501039    3.8180742666   -0.7115542196
 H   -2.1660605650    2.0586478502   -2.7159088703
 H   -1.3635579628    3.5827557369   -3.0306441329
 H   -0.0643672425    0.8555840672   -2.5121101917
 H   -0.0181541797    1.8462802821   -3.9456670460
 H    2.0650728431    2.3843374416   -3.1807751757
 H    1.2352640747    3.5520531342   -2.1468445310
 H    1.1711853659    3.0309165606    0.2007142455
 H    2.0210465906    1.5442295382    0.7030803167