21

 C   -0.1707409415    1.5839652698   -0.0254549303
 C   -0.0393230109    0.0684864943    0.0136856345
 C    1.1766828242   -0.6121488319   -0.6538708899
 C    2.1245339924   -0.3158052072    0.5598832539
 C    2.5832016089   -1.7870351900    0.6620286146
 C    1.0909376053   -1.8490171915    0.2838489800
 O    0.3004202033   -2.9478521658   -0.0035675192
 C    0.7124494207   -0.6065140658    1.1916728286
 C    0.3515423417   -0.6238381423    2.6524912431
 H    0.7773345587    2.0822989849    0.2030434471
 H   -0.4940711847    1.9247263610   -1.0154763749
 H   -0.9146230960    1.9352083612    0.6988376967
 H   -0.9957916810   -0.4117990530   -0.2257759260
 H    1.4759152833   -0.6317494524   -1.7033240996
 H    2.7218679225    0.5808951504    0.7059240292
 H    3.2951368889   -2.1325358840   -0.0943562943
 H    2.8693361050   -2.1494963820    1.6557105396
 H    0.2512560569   -3.5017750164    0.7831778743
 H    1.0948402567   -1.1705841229    3.2444715400
 H    0.2881857352    0.3914260732    3.0599829089
 H   -0.6220833195   -1.1028087895    2.8109692538