19

 C   -0.1652438093   -1.3149184672   -0.0439918734
 C   -0.0804573408   -0.1147919320   -0.0058226398
 C   -0.0261722444    1.3307063583    0.0163702004
 C   -0.2947894316    2.0602587253    1.4250357771
 C    1.2197399045    2.3459699403    1.4538403497
 C    2.4780498697    3.2682348682    1.3950741892
 C    2.8013620829    1.9705534253    0.5168942065
 C    2.2024622051    1.1460066255    1.6711260119
 C    1.3530002923    2.1423253384   -0.0533178685
 H   -0.2239086995   -2.3745687053   -0.0743282124
 H   -0.6945931338    1.7082895365   -0.7627725479
 H   -0.9194094837    2.9453061429    1.2781938121
 H   -0.7093818027    1.4457955728    2.2272673355
 H    2.3647376038    4.2100694116    0.8514792769
 H    3.0847135892    3.3925251785    2.2978778870
 H    3.7372865753    1.7853166591   -0.0177943348
 H    2.7518820018    1.1531710079    2.6167966687
 H    1.8406013051    0.1481767177    1.4302697066
 H    1.2077080061    3.0289955063   -0.6766677848