18

 C    0.1247594254    1.6211974154   -0.0231125420
 C    0.0833906850    0.0886583070   -0.0041097364
 C    0.7922900274   -0.5706256594   -1.1663464641
 C    1.5367219350   -1.6123945814   -0.8027457757
 C    1.4914238709   -1.8457628693    0.6840146351
 O    2.7738866610   -2.0263594237    1.2847715770
 C    0.7497740275   -0.5737993329    1.2357409215
 O    1.6883083111    0.3207095236    1.8034853909
 H    1.1539710523    1.9838110016    0.0034555908
 H   -0.3577802804    2.0017806588   -0.9295828075
 H   -0.3995554620    2.0394802653    0.8408859452
 H   -0.9723776547   -0.2192696912   -0.0235274468
 H    0.6573017963   -0.2254550661   -2.1868385763
 H    2.1063251991   -2.2557736223   -1.4646695101
 H    0.9376195789   -2.7576436668    0.9370135100
 H    3.3615282411   -1.3829523860    0.8712844177
 H   -0.0029795525   -0.8539016153    1.9863222946
 H    2.2735731989   -0.2284173973    2.3410983561