15

 O   -0.0690577764   -0.0178230983   -0.1246662064
 C   -0.0087505924    1.1725423626   -0.1738840829
 O    1.1128984287    1.8602391375    0.1214246807
 C    1.0840316924    3.2841085201    0.0423348190
 C    1.5850535182    4.0621783688    1.2817355941
 N    2.6147685910    4.7945990710    0.4603947116
 C    3.5102742125    3.7441431305   -0.0457764048
 C    2.2168881821    3.9284422447   -0.7340356263
 H   -0.8515040656    1.8315769887   -0.4625650954
 H    0.0959028892    3.6156616884   -0.2913774754
 H    0.8523850883    4.7574364513    1.6945801346
 H    2.0086796447    3.4508198450    2.0836497029
 H    4.3876415444    4.1401347814   -0.5468139097
 H    3.6848781591    2.8549503575    0.5551768111
 H    2.1374214937    4.3326408607   -1.7373849331