17

 O   -0.0104154823    1.4062510834   -0.1231359186
 C    0.0073392464    0.0151464036    0.0348817433
 C    0.2382718455   -0.5786159507    1.4613123121
 O    0.8828790575   -1.8766453302    1.4377575921
 C   -0.3760167534   -2.5691539882    1.6602567017
 C   -1.1416539793   -1.2771587572    1.4375434536
 C   -2.4132766663   -0.5869685325    1.8905640711
 O   -2.4264368145    0.1971975908    0.6688332692
 C   -1.4078747050   -0.6207724222    0.0523111278
 H    0.9004038716    1.7165329207   -0.1510992884
 H    0.6645493844   -0.4938918880   -0.6857658554
 H    0.6028672411    0.0753840737    2.2600408837
 H   -0.5372360413   -3.3856770966    0.9470080773
 H   -0.4334856261   -2.9656414478    2.6832196711
 H   -3.2978680421   -1.2361020705    1.9559674359
 H   -2.3554589545    0.0376576007    2.7892804395
 H   -1.7747362714   -1.1321509591   -0.8429940358