17

 O    0.0067276159   -0.0054840650   -0.0796358164
 C    0.0018783701    1.1955241406    0.0128338178
 C   -1.2767087500    2.0422625770    0.1122763277
 C   -0.8799237889    3.3633358865    0.7628243622
 O   -0.1001302030    3.0197595812    1.9537716752
 C    1.0807693395    3.1732864777    1.1617360148
 C    0.3796647715    4.0317357268    0.0965971474
 C    1.0278952219    3.2065245961   -1.0252564414
 C    1.2465557169    2.0658024197    0.0277978722
 H   -1.7078290134    2.1863886815   -0.8862902016
 H   -2.0121483535    1.5050276539    0.7163630560
 H   -1.7222515622    4.0144186628    1.0033822383
 H    1.9721107549    3.4318402280    1.7345532701
 H    0.3837398938    5.1211233406    0.0873598940
 H    0.4511562026    2.9656694960   -1.9224959463
 H    1.9796582364    3.6497491169   -1.3286252904
 H    2.1578807674    1.4716151796   -0.0110768397