18

 C   -0.0340286143    1.6003375772   -0.0662909894
 C   -0.0192139021    0.0718073912    0.0109931809
 C   -1.4278433596   -0.5745083633    0.0275370521
 C   -1.3623255108   -2.1117343652   -0.0164227858
 N   -0.9390972217   -2.7063450265    1.2465911126
 C   -1.2260472384   -2.0721855603    2.2932229577
 O   -1.9180495103   -0.8828126906    2.4026736836
 C   -2.1854969027   -0.1380926686    1.2639261017
 O   -2.9294025416    0.7918372765    1.3545894527
 H    0.9871854008    1.9919459048   -0.0885284089
 H   -0.5455879340    1.9446265891   -0.9712282511
 H   -0.5482852208    2.0460398739    0.7896783732
 H    0.5087175798   -0.3376081022   -0.8586464932
 H    0.5453597299   -0.2564817692    0.8912197263
 H   -1.9927956865   -0.1961454121   -0.8295402944
 H   -2.3431278906   -2.5324602547   -0.2770075406
 H   -0.6693514585   -2.4315270241   -0.8012633752
 H   -0.9665555788   -2.4348454161    3.2839299478