16

 O    1.1530080922    1.6167549198    0.5492370013
 C    0.4608669173    0.5782814701   -0.1087160042
 C    1.1898085680    0.2109074247   -1.4073882006
 O    0.4773338154   -0.8010802398   -2.1188638872
 C   -0.0913257388   -0.4756334849   -3.3033082338
 O   -0.7311509065   -1.2523352317   -3.9401938934
 C    0.2506089056   -0.6638888750    0.7807525291
 C   -0.4847692840   -0.3581358239    2.0042533875
 N   -1.0678850607   -0.1175203346    2.9717504007
 H    1.9735376212    1.2667240932    0.9153416364
 H   -0.5192850525    0.9958288856   -0.3633143599
 H    1.3076553802    1.1145987770   -2.0160435950
 H    2.1876906284   -0.1868710125   -1.1864032377
 H    0.1132489222    0.5715187230   -3.5993094064
 H   -0.2857421788   -1.4296198519    0.2113644122
 H    1.2245129808   -1.0950480591    1.0496497208