22

 C    0.0566867983    1.5748636588    0.0631451159
 C    0.0069057289    0.0504808408   -0.0472493296
 C   -1.4159422420   -0.5339027163   -0.0025605274
 C   -1.3960444935   -2.0690955172   -0.1248758481
 O   -0.7466078836   -2.6719061555    0.9747330175
 N   -2.0492093121   -0.2297923113    1.2745608793
 C   -3.0627875123    0.5156503979    1.2858399634
 O   -3.6960033226    0.7987172443    2.4387582139
 C   -4.8205449175    1.6648936037    2.3284064517
 H    1.0865262203    1.9384855333   -0.0057008920
 H   -0.5167542552    2.0535295147   -0.7400502336
 H   -0.3546245440    1.9160329618    1.0176138991
 H    0.4666822558   -0.2680886266   -0.9910842118
 H    0.5894054551   -0.4104276547    0.7562676213
 H   -1.9959853180   -0.1271569147   -0.8515189142
 H   -2.4334674306   -2.4292969922   -0.2247721969
 H   -0.8503766278   -2.3671691279   -1.0270907363
 H   -1.1087137050   -2.2311579772    1.7554307196
 H   -3.5053324610    0.9827360992    0.3922964521
 H   -5.5944047108    1.2370413571    1.6798967801
 H   -5.2211270315    1.7764208372    3.3363593272
 H   -4.5308105907    2.6508559147    1.9458408187