22

 C    0.0840426945    1.4923144354   -0.1688062279
 C    0.0212797007   -0.0211296658    0.0601252770
 C   -1.4001451512   -0.5677933866    0.0767334764
 C   -2.2093847625   -0.5806808159   -1.2594550461
 C   -2.6729621640   -2.0006780644   -0.9101363168
 C   -4.1028130137   -2.4368384019   -0.7685633810
 C   -3.2086940840   -3.0655112930   -1.8162953075
 C   -1.5991236157   -2.1111023335    0.1798239316
 H    1.1177670230    1.8513928676   -0.1883391037
 H   -0.3820050954    1.7683747229   -1.1209862304
 H   -0.4420282146    2.0343199040    0.6251191524
 H    0.5923227694   -0.5364885350   -0.7244640436
 H    0.5147722279   -0.2707355005    1.0091900701
 H   -1.9801377875   -0.0625045546    0.8575743127
 H   -2.9836805448    0.1811191189   -1.3874017021
 H   -1.5500996082   -0.5574928822   -2.1356790058
 H   -4.3744207748   -3.0354585772    0.0956839479
 H   -4.8824779064   -1.7591577175   -1.1032765844
 H   -3.3858771727   -2.8124887767   -2.8572564815
 H   -2.8782098511   -4.0877057145   -1.6585150824
 H   -0.7118544626   -2.6599484408   -0.1575356493
 H   -1.9078381563   -2.5115857688    1.1498446344