22

 C   -0.6020967689    1.5750643845   -0.5567716324
 O   -0.7278022582    0.1782967734   -0.6622586094
 C   -0.4334008608   -0.4912635680    0.5419228844
 C   -0.6092631059   -1.9829194431    0.2977397230
 O   -0.3510093443   -2.6408146390    1.5168280340
 C   -0.2599933934   -4.0594509396    1.4390075974
 C    0.3949866621   -4.5177998022    2.7373876458
 C   -1.6283273717   -4.7129882734    1.2226088324
 H   -0.8497089688    2.0016785633   -1.5319517894
 H   -1.2880031277    1.9916749980    0.1981243485
 H    0.4234273857    1.8748583747   -0.2878035577
 H    0.5983220311   -0.2861076556    0.8710394766
 H   -1.1068103661   -0.1683050824    1.3527624038
 H   -1.6300162060   -2.1674717257   -0.0683100280
 H    0.0885868077   -2.3140219499   -0.4881625476
 H    0.3968654384   -4.3233761977    0.5920707233
 H   -0.2350705799   -4.2547817118    3.5931379398
 H    0.5411167684   -5.6019497415    2.7357643623
 H    1.3662114259   -4.0330925264    2.8665423033
 H   -2.3069815527   -4.4485664010    2.0402156572
 H   -2.0859953187   -4.3980833685    0.2805841536
 H   -1.5290365960   -5.8027490083    1.1940978290