15

 O    0.1403907641    0.1793408524   -0.4566472877
 C    0.1506839736    1.3205358829   -0.1395017104
 O   -0.9531214924    2.1607325914    0.0527957080
 C   -0.0657918899    3.3185496962    0.0979995838
 C    0.7881346991    3.2734153821    1.3144131946
 C    1.1604358172    2.4332394489    0.0941623607
 O    2.1029925160    2.8976645032   -0.7974067159
 C    1.3688612858    3.6360687102   -1.8054940461
 C    0.1227854973    4.2487840243   -1.0801951328
 H    1.4569310351    4.1118338286    1.4776778378
 H    0.4067462901    2.7902315376    2.2072629485
 H    2.0482799576    4.3780472574   -2.2309471833
 H    1.0501598159    2.9512829641   -2.6019193543
 H   -0.7584736002    4.2597044292   -1.7243668545
 H    0.3145315305    5.2725131414   -0.7492927384