17

 C   -0.0214379246    1.4671445888    0.1007878506
 C    1.3004600369    0.7508191160    0.0292381231
 C    2.0286819777    0.4319241924    1.3414309199
 N    1.0790153607   -0.4365947271    2.0230886738
 C    0.9763660525   -1.0991096607    3.2243728808
 C   -0.2020132885   -1.8016407551    3.1321126602
 N   -0.8283476390   -1.5814240962    1.9201084717
 C   -0.0248526905   -0.7593058625    1.2875781565
 C   -0.0003088337   -0.0457498931   -0.0076380244
 H   -0.3367990020    1.9033617080    1.0434288777
 H   -0.3246470895    2.0249046780   -0.7787804775
 H    1.9065677830    0.8673607861   -0.8601515983
 H    2.9739832202   -0.0918793985    1.1572279442
 H    2.2459361827    1.3275531071    1.9338511348
 H    1.7205312496   -1.0232165400    3.9993393591
 H   -0.6361681874   -2.4555726902    3.8736651406
 H   -0.3644999281   -0.5321238430   -0.9029152128