12

 N   -0.0443532807    1.3092661799    0.2020573735
 C   -0.0046201072    0.0426231842    0.0320642920
 C   -1.1953429416   -0.7632442756   -0.1547154810
 C   -1.0800872324   -2.0843496209   -0.3272210588
 O    0.1024329171   -2.7590351370   -0.3426512199
 N    1.2808848693   -2.0833662950   -0.1744261936
 C    1.2205598039   -0.8011075670   -0.0037143179
 C    2.4940697059   -0.1579320552    0.1665576454
 N    3.4799548163    0.4291117060    0.3104442199
 H    0.8910840953    1.7056380911    0.3165155379
 H   -2.1658901352   -0.2850360837   -0.1523306687
 H   -1.8986890107   -2.7773972168   -0.4745590988