21

 C    0.0207337077    1.5814195404    0.0570108886
 C   -0.0180397949    0.0800113114    0.0484549509
 C    1.1502812543   -0.7780392413   -0.3673655416
 C    0.5916132114   -0.9417313056    1.0212442049
 C    1.4042790976   -0.7702423037    2.2715253383
 C   -0.6962058004   -1.7974865057    0.9491611657
 C   -1.3000786359   -0.7538572091   -0.0647126841
 C   -0.5748084103   -3.1829643565    0.5320071127
 C   -0.4635506748   -4.3243712087    0.1676032659
 H    1.0077548695    1.9529920966    0.3520340960
 H   -0.1977213155    1.9895322679   -0.9376082414
 H   -0.7160358951    1.9988972724    0.7534395781
 H    1.0350140645   -1.5649206391   -1.1096287266
 H    2.1060986364   -0.2636002945   -0.4114899062
 H    2.1471188427    0.0258657992    2.1555550921
 H    0.7733592177   -0.5166280241    3.1317191072
 H    1.9459640500   -1.6915323829    2.5179041193
 H   -1.2377775682   -1.7465419810    1.8995541027
 H   -2.1819151158   -0.2571755568    0.3476008097
 H   -1.5425288998   -1.1404132162   -1.0589092354
 H   -0.3681112610   -5.3341156128   -0.1462566469