19

 C   -0.0940587915    1.4930252973   -0.0194708756
 N    1.2120702964    0.8054158385   -0.0099746845
 C   -0.0341011874    0.0112146118    0.0137465935
 C   -0.2884107457   -0.7425423623    1.3133060554
 C    0.1492250052   -2.1849926554    1.2336974078
 C    0.1677177468   -2.8674902732    0.0884079490
 C   -0.2447713821   -2.2378095505   -1.1912582821
 N   -1.5833655533   -1.5797056020   -1.2040463719
 C   -0.3701728758   -0.7514340195   -1.2320966361
 H   -0.3234358589    2.0476373909    0.8869817902
 H   -0.4292737425    1.9739512582   -0.9356251547
 H    1.6123101255    0.8063139208   -0.9462174184
 H    0.2392650945   -0.2255034198    2.1201831534
 H   -1.3599799150   -0.7009818834    1.5490230516
 H    0.4372726135   -2.6711326424    2.1614830662
 H    0.4819350881   -3.9065862709    0.0621479589
 H    0.0606048985   -2.7413833832   -2.1042523002
 H   -1.9821452432   -1.6332553001   -2.1383135586
 H   -0.1177504031   -0.2435225047   -2.1627044640