11

 N   -0.0378384513    1.3105750158   -0.1928541283
 C   -0.0292942454    0.0562667135   -0.0049414179
 N    1.1967230521   -0.6427213250    0.2382119095
 N    1.2569855609   -1.8494250639    0.4251089461
 O    0.0221823579   -2.6290914900    0.4017103322
 N   -1.1885623862   -2.0566904826    0.1794777196
 C   -1.2339042291   -0.7722968527   -0.0170250782
 C   -2.5064161549   -0.1889912238   -0.2487579131
 C   -3.5762933960    0.3220965151   -0.4466489774
 H    0.9186121407    1.6721916334   -0.1386596578
 H   -4.5219241885    0.7746913302   -0.6216645746