15

 O   -0.1199171344    0.0044650049    0.0523714495
 C   -0.0336841316    1.2087944737    0.0044202911
 C    1.2465645583    1.9290901545    0.0297054148
 C    1.3717373381    3.4036188207    0.3440709959
 C    1.7990381983    2.9739730829   -1.0162262088
 N    3.1402550897    2.3767097519   -0.9439687273
 C    2.6224410112    1.2712687577   -0.0644274644
 C    1.2131209105    3.4354142738   -2.2306382093
 N    0.7591042823    3.8047477514   -3.2295921592
 H   -0.9331447748    1.8583836500   -0.0756414528
 H    0.4260587217    3.9344246398    0.3938222509
 H    2.1394319270    3.7381937648    1.0352644472
 H    3.4364576205    2.0222597629   -1.8471060426
 H    3.1800981392    1.1583030841    0.8692811040
 H    2.5562570141    0.3072779169   -0.5734549089