16

 C   -0.2193927119    1.5817195135    0.2381566484
 N   -0.1703505584    0.1230102675    0.3210236917
 C    0.9781067812   -0.5570816444   -0.2331339604
 C    0.7659922815   -0.5111778213    1.2634603149
 C    1.6801262009    0.3102392563    2.0256950016
 N    2.3803221313    1.0179626969    2.6127671923
 C    0.2759369426   -1.7563616878    1.9982978407
 N   -0.9090882970   -2.2225586552    1.5290473731
 O    0.9364332555   -2.2671432163    2.8765218825
 H    0.7664512027    2.0573221942    0.3246014375
 H   -0.6613117181    1.8508939233   -0.7247821557
 H   -0.8612838476    1.9629003295    1.0363417889
 H    0.7841581125   -1.4911357684   -0.7519885605
 H    1.7987210045    0.0424312391   -0.6225378750
 H   -1.4625828247   -1.6278634478    0.9319293360
 H   -1.3322489249   -3.0009715592    2.0066691039