17

 N   -0.0854334807    1.3243949226    0.0972353204
 C   -0.0035141893   -0.0492947587    0.0303144039
 O    0.9048711944   -0.6928489331    0.5116510398
 N   -1.0795569366   -0.6162525210   -0.6837827493
 C   -2.4228217353   -0.6664722888   -0.0641736834
 C   -3.4525400672   -1.1935346532   -1.1069689845
 C   -2.8090719182   -1.5355793670   -2.4249431802
 C   -2.6144401702   -2.4611497054   -1.2556161204
 C   -1.6057571236   -1.8944883644   -0.2107598843
 H    0.7710638776    1.7853747619    0.3606935695
 H   -0.6533330603    1.7963622304   -0.5881576646
 H   -2.6373432626   -0.0778272531    0.8182197748
 H   -4.5225432704   -1.1009459778   -0.9765502245
 H   -3.5005044106   -1.9030193060   -3.1767722307
 H   -1.9828703865   -0.9474529229   -2.8047746330
 H   -2.9454338427   -3.4909058404   -1.2543020128
 H   -1.0488677478   -2.4525872133    0.5287318194