19

 C    0.0388250546    1.4484395352    0.0603562436
 C   -0.0042769532   -0.0388085436    0.0018052577
 C   -0.0184704634   -0.8943478715   -1.0278243780
 C   -0.0513502356   -2.2721967764   -0.3580199365
 C   -1.1060628929   -2.0179777071    0.7686339760
 C   -0.0303732364   -0.9772558088    1.2222859262
 C    1.0499117657   -2.0460280679    0.7635193930
 C    1.3114780517   -3.1485611441    1.6674170672
 C    1.5523537731   -4.0616506356    2.4137164270
 H    0.9261975620    1.8036431698    0.6001931583
 H    0.0550988957    1.8855304772   -0.9422060898
 H   -0.8305753607    1.8546357881    0.5934879617
 H    0.0031899085   -0.6967851078   -2.0905570700
 H   -0.0527165030   -3.1688894764   -0.9758467890
 H   -2.0771531301   -1.6262448390    0.4591024133
 H   -1.2171316455   -2.8562399965    1.4608467754
 H   -0.0108791083   -0.5444586206    2.2223415785
 H    1.9869874008   -1.6174474261    0.3978845824
 H    1.7619453470   -4.8678999687    3.0719692130