18

 C   -0.0459521944    1.5417790059   -0.3971796707
 N   -0.0206717448    0.0874106309   -0.4663727539
 C   -0.9650450618   -0.5678923074    0.0182054098
 C   -1.3028235942   -2.0384254653    0.1341083703
 C   -2.5794814453   -1.5268839703    0.8371159420
 C   -2.7721738545   -1.8754054841    2.3070785037
 C   -3.8500631880   -1.0317177430    2.9622872621
 O   -4.7895779280   -1.4826625359    3.5647505682
 O   -2.1270156793   -0.1434571975    0.6613860413
 H    0.8440756577    1.8889463599    0.1387724866
 H    0.0150037637    1.9477563823   -1.4126639903
 H   -0.9358255024    1.9528043377    0.0934585115
 H   -1.4519338512   -2.5533089835   -0.8161264005
 H   -0.6215910769   -2.6185599674    0.7600637235
 H   -3.5021133488   -1.6830002062    0.2695866851
 H   -3.0349051672   -2.9318215950    2.4183873441
 H   -1.8270546823   -1.6897420346    2.8360436101
 H   -3.7079668223    0.0641859835    2.8450623570