17

 O   -0.0316431454    1.3215802213   -0.2822147393
 N    0.0175604405   -0.0775520935   -0.2382071933
 C   -1.1133165541   -0.5966471536    0.0892891276
 C   -2.3475867325    0.1245472071    0.3782120411
 C   -3.4004210296   -0.4714482271    0.9517842963
 C   -3.4386603352   -1.9079310487    1.3912723500
 C   -2.2892179418   -2.7408127898    0.8598934703
 N   -2.1600762788   -2.7808812081   -0.6017546155
 C   -1.1283767115   -2.0778131238    0.2013911414
 H    0.8612720262    1.5449791672   -0.5638544502
 H   -2.3756614175    1.1758772345    0.1223879306
 H   -4.2964330460    0.1124598389    1.1476273746
 H   -3.4352051938   -1.9431755546    2.4907338071
 H   -4.3909005725   -2.3624011614    1.0849096645
 H   -2.0873260585   -3.6570760750    1.4103771182
 H   -1.7913699213   -3.6813603496   -0.8966064839
 H   -0.1461780181   -2.5328969436    0.2786563503