18

 C    0.1064459347    1.5573016682    0.0320612203
 C   -0.0166215788    0.0293063861    0.1081790313
 O    0.6969327701   -0.5164810556    1.2026950545
 C    2.0621791058   -0.7882526038    0.9308077538
 C    2.6739420345   -1.3700172289    2.1744856136
 C    4.1182805622   -1.2815548898    2.4168280808
 O    3.2033622174   -0.4452331963    3.1229553673
 C   -1.4264256178   -0.3743125848    0.2595827976
 N   -2.5387627041   -0.6705449952    0.3505694976
 H    1.1513089171    1.8406946669   -0.1175214259
 H   -0.4813570074    1.9483589014   -0.8027779144
 H   -0.2519130618    2.0054772245    0.9611419936
 H    0.3424514154   -0.4152162106   -0.8341541948
 H    2.1453820778   -1.5076167232    0.0987413449
 H    2.6113679590    0.1233440548    0.6548070605
 H    2.1153543524   -2.1976118655    2.6113695049
 H    4.6103301693   -2.0517313363    3.0081937046
 H    4.7575690843   -0.7719684119    1.6963351996