17

 N    0.4123925397    0.3254587061    0.7604931297
 C    0.0722402250   -0.1245545751   -0.4801860193
 O    0.6256758667    0.2469072761   -1.4972568663
 C   -1.0985817905   -1.1127521407   -0.5110903992
 C   -1.1158451568   -2.1765469047    0.5914758104
 O   -1.3422438859   -1.6245674974    1.8951793170
 C   -2.1509895832   -3.2777149950    0.3162361718
 O   -1.9443658328   -3.9414349267   -0.9158910581
 H    1.2082523840    0.9372503574    0.8370005627
 H   -0.0036757593   -0.0813302930    1.5849776578
 H   -2.0367832405   -0.5399122441   -0.4661409321
 H   -1.0760202768   -1.6049593080   -1.4848376248
 H   -0.1239946122   -2.6414300738    0.6643339378
 H   -2.2167129385   -1.2165794676    1.8931107195
 H   -2.1579037284   -3.9715559123    1.1690727868
 H   -3.1500009866   -2.8269557897    0.2499855521
 H   -1.1444314640   -4.4720200814   -0.8420450857