18

 C   -0.0102505255    1.5349043275   -0.1035368324
 O    1.2872190057    2.1262546611    0.0490351984
 C    2.2163205028    1.3976565526    0.8022476419
 C    1.8577824653    1.2208032047    2.2853532867
 N    0.6044029454    0.4744462180    2.4380466764
 C    0.3542136696   -0.5171245258    1.4132465239
 C   -0.0241972997    0.0228976339    0.0375513811
 C    1.3046581586   -0.6640384060    0.2531106861
 O    2.4638716648    0.1248135120    0.2286110080
 H   -0.6961485091    1.9810006040    0.6298620269
 H   -0.3441592011    1.8206418447   -1.1055155626
 H    3.1549661970    1.9500759374    0.7182593677
 H    2.7231998882    0.7178817125    2.7449681098
 H    1.7524861168    2.2064545558    2.7528191838
 H    0.5516721669    0.0553290083    3.3558106423
 H   -0.1605856454   -1.4015969232    1.7721445174
 H   -0.7918577061   -0.4899970335   -0.5327528418
 H    1.4972910057   -1.6356832139   -0.1880857337