15

 O   -0.2391964643   -0.0312618391    0.1900928748
 C   -0.0874737568    1.1237072510   -0.1153998544
 C    1.1949150265    1.9062553409   -0.0143290363
 C    1.5920268781    2.6347167827    1.3096956437
 C    1.9288426724    1.2241557961    1.8337259410
 N    2.4915006220    1.1733686684    0.3898574229
 C    3.0293392562    2.5904761971    0.7314481569
 C    3.4056916213    3.4424096507   -0.3876117405
 N    3.7151556474    4.1420003637   -1.2542121238
 H   -0.9294482990    1.7277403129   -0.5244457278
 H    1.3083921319    2.5017284313   -0.9272225409
 H    1.0932911598    3.4730696236    1.8041646311
 H    2.7043741738    1.1432372512    2.5984848522
 H    1.1220089978    0.5155489336    1.9966297836
 H    3.8439802429    2.5519269957    1.4583990774