16

 C    0.7292102236    0.8142218852   -0.2103165874
 C   -0.5346029587    0.1032140622    0.1763230246
 N   -1.3408540680    0.3162946941    1.1151009561
 O   -0.9065613646   -0.9129403185   -0.7254862914
 C   -0.1767045710   -2.0528046285   -0.7522416418
 O    0.7874861141   -2.2631795360   -0.0634578292
 C   -0.7415699575   -3.0304924342   -1.7593536606
 C    0.3598545236   -3.7686202050   -2.5105836376
 O    0.2710208612   -4.0831792727   -3.6665677230
 H    1.5738495758    0.1236582224   -0.1448089902
 H    0.6596380664    1.1651737837   -1.2449713186
 H    0.9089582568    1.6672951215    0.4462198170
 H   -1.0309088579    1.1075871295    1.6788372284
 H   -1.2965154680   -3.7862065581   -1.1847965461
 H   -1.4359154293   -2.5604667662   -2.4557885852
 H    1.2518504136   -4.0047997594   -1.8957292750