20

 C    0.0383555765    1.5266354266   -0.2402068132
 C    0.0749027287    0.0202590261   -0.0281110264
 C    1.3944731049   -0.6939307497   -0.0428112103
 N    0.6512983755   -0.5643470271    1.2019353095
 C    1.1835537564    0.3128254854    2.2453242049
 C    1.7458096671   -0.5555497672    3.3711331488
 O    2.7571959772   -1.4347433667    2.9123108646
 C   -1.0991080660   -0.6675656334   -0.5168344383
 C   -2.0832526533   -1.2050614794   -0.9502603869
 H    0.9678814413    2.0039721357    0.0756298470
 H   -0.1141255379    1.7455239877   -1.3007485269
 H   -0.7918948020    1.9750956660    0.3143316234
 H    1.4659967991   -1.6945587815   -0.4602767755
 H    2.2811964879   -0.0747202853   -0.1750478234
 H    1.9744098499    0.9828541401    1.8751887643
 H    0.3699356602    0.9325316392    2.6409880436
 H    2.2069864895    0.0819164327    4.1330713784
 H    0.9215231608   -1.1090399188    3.8446556733
 H    2.3268238675   -2.0483786188    2.3072582477
 H   -2.9493821633   -1.6934773815   -1.3227559948