15

 N   -0.0255764735   -1.2121308314   -0.0471442432
 C    0.0057811201   -0.0581243255    0.0036601075
 C   -0.0268329535    1.3937395173   -0.0009308668
 C    0.0516801925    2.1277830094    1.3750501722
 N    1.4908209986    1.6345695686    1.4584341387
 C    1.3375507103    2.1523939764    0.0337577253
 C    0.5522137352    3.3541566322    0.5901628630
 C    0.0535228796    4.6445003710    0.1357680006
 O    1.1004537774    4.5143221440    1.1370415070
 H   -0.7698023825    1.7704772283   -0.7062850802
 H   -0.6445456806    2.0533100941    2.2086489453
 H    2.0454278711    2.3014933321    2.0023586150
 H    2.1421471990    2.1066456318   -0.6981542364
 H    0.3823873899    5.0550267592   -0.8169188924
 H   -0.8917514934    5.0306283124    0.5121420944