21

 C    0.3882783305    1.7407490947   -0.1342391903
 C    0.1526301182    0.2652608900    0.0822933558
 N    1.3535166717   -0.6191590829   -0.0341291345
 C    0.6835231073   -0.4817792580    1.2290119975
 C    1.2745816032   -0.1516669647    2.6102029844
 C   -0.1711664941   -0.3091710982    3.1707980274
 C    0.0877941635   -1.5071722256    2.2074950019
 N    1.5120018773   -1.6559525229    2.7325356547
 C    1.7125540106   -2.2250301783    4.0615348676
 H    1.3418199131    2.0432427488    0.3062825149
 H    0.4194980083    1.9783269754   -1.2029877122
 H   -0.4105369623    2.3368975922    0.3208234892
 H   -0.7732937534   -0.1182526229   -0.3477050427
 H    1.1254997986   -1.5028047134   -0.4829265405
 H    2.0430568290    0.5760635629    2.8728312245
 H   -0.2666953962   -0.5408170957    4.2302024960
 H   -0.9139358649    0.4312670704    2.8620599419
 H   -0.5452819357   -2.3718066931    1.9963941049
 H    1.6061207271   -3.3127091034    3.9886633852
 H    2.7421370791   -2.0160384667    4.3706573378
 H    1.0438689988   -1.8756806387    4.8634904265