17

 C    0.0046910803    1.5332857942    0.0066029415
 C    0.0312526693    0.0141242924    0.0736491283
 C   -1.1246657802   -0.6476444986   -0.4737267432
 C   -2.0926913946   -1.1677837443   -0.9626563302
 C    1.3288818437   -0.7787807405   -0.1540567342
 O    2.4572371543   -0.0351862912    0.2972825686
 C    1.9616230288   -0.0575753783    1.6649664689
 C    0.6850077424   -0.7665214085    1.2146348903
 O   -0.0338300530   -1.6655142305    1.9621836921
 H    0.9965001238    1.9449011926    0.2042515534
 H   -0.3004402508    1.8560639614   -0.9923974438
 H   -0.7064721626    1.9461923409    0.7282113595
 H   -2.9528210394   -1.6295746471   -1.3797756297
 H    1.4610935776   -1.5099165036   -0.9421469037
 H    2.5980193296   -0.6950451953    2.2914716664
 H    1.8833362179    0.9405491192    2.1075452074
 H    0.5197003729   -2.4342389025    2.1413800786