14

 N    0.2316076857    1.4351794660    0.0065697369
 C   -0.0376527228    0.0524762963    0.0118424568
 C   -1.1463414198   -0.7737790734   -0.0136325746
 N   -2.5192745942   -0.9177131070   -0.0538522986
 C   -2.7476065930   -2.2862296528   -0.0474218684
 N   -1.6714194289   -3.0259706513   -0.0076020930
 C   -0.6465355220   -2.0970870981    0.0144074004
 N    0.6871940625   -2.1458040220    0.0552612850
 N    1.0112600234   -0.8375699205    0.0522994983
 H   -0.1120575930    1.8942361061   -0.8299690948
 H   -0.1637721873    1.9105154730    0.8105262609
 H   -3.2251782251   -0.2039668441   -0.0820152135
 H   -3.7588455071   -2.6688008607   -0.0743207480
 H    1.9799307616   -0.5623606615    0.0790277928