19

 C    0.0424259598   -1.2093124449   -0.1582187406
 C    0.0321486066   -0.0102365737   -0.0687453938
 C    0.0247994433    1.4388229474    0.0204585281
 C   -0.8223903011    2.1489302094   -1.0453659015
 C   -0.2394209315    3.5721744674   -1.0962655583
 C    1.2783726684    3.3556910066   -0.9191213441
 C    1.3984152485    2.1996904221    0.0822602117
 C    0.9890477771    2.5145981830    1.5321592328
 O   -0.3110115410    1.9115693421    1.3579860898
 H    0.0478081094   -2.2689579358   -0.2289484972
 H   -0.6884848330    1.6372410423   -2.0051061309
 H   -1.8836281048    2.1125635298   -0.7863571235
 H   -0.4862793633    4.0984403585   -2.0217861438
 H   -0.6393981569    4.1638985105   -0.2664906114
 H    1.7274221066    3.0583009656   -1.8739508674
 H    1.8025993638    4.2555004919   -0.5812642575
 H    2.3017306799    1.6020121937   -0.0336105340
 H    1.5750745090    1.9958782642    2.3007964947
 H    0.9145128191    3.5773468801    1.7945433466