16

 O   -0.1114553500    1.3350880411   -0.0055111432
 N    0.0219830525   -0.0633490602   -0.0135868839
 C   -1.1165031126   -0.6438550377    0.0184061014
 C   -1.2398836882   -2.1584374064   -0.0004261578
 C   -2.7536069665   -2.3854820072   -0.0655953095
 C   -3.3947734877   -3.5422907487   -0.7124198583
 O   -3.3258770317   -3.4512129605    0.7093777761
 C   -3.3845930292   -1.0433944520    0.0224000526
 C   -2.4627126856   -0.0695805539    0.0631137641
 H    0.8061942955    1.6252969266   -0.0270335924
 H   -0.7038284882   -2.5983471785   -0.8448801083
 H   -0.8412308887   -2.6041603075    0.9157399149
 H   -4.3911489729   -3.4446816427   -1.1433332971
 H   -2.7671819668   -4.3085294194   -1.1671601770
 H   -4.4599737164   -0.9152927915    0.0521971028
 H   -2.6443176635    0.9938994384    0.1158030157