23

 C    0.3139103096    1.4011886987   -0.6410985717
 C    0.1905384991   -0.0043755124   -0.2808041716
 C    0.0974576218   -1.1689437702    0.0174739439
 C   -0.0335482693   -2.5638473800    0.3849747401
 C   -0.1742762189   -2.9543260346    1.8893660214
 C   -1.1930103966   -4.0464472656    1.4791092957
 C   -1.3863587326   -3.3371226497    0.1011551986
 C   -2.6053969855   -2.4143881495    0.0990137821
 C   -1.3744791607   -4.2294622221   -1.1346693726
 H    1.3547896058    1.7387111110   -0.5800135785
 H   -0.0304841769    1.5827012629   -1.6655712175
 H   -0.2792270400    2.0395022314    0.0234990367
 H    0.7885634440   -3.1386283749   -0.0582207665
 H    0.7382591038   -3.2728903796    2.3973993514
 H   -0.6324324012   -2.1500075647    2.4687259156
 H   -0.7226275217   -5.0283318344    1.3688058521
 H   -2.0848682928   -4.1580938113    2.1012270422
 H   -2.6337787554   -1.7730385138    0.9852052457
 H   -2.6012002376   -1.7604492563   -0.7786596624
 H   -3.5279932193   -3.0057623401    0.0818312253
 H   -2.2785124332   -4.8480872431   -1.1827034350
 H   -1.3333436367   -3.6304818175   -2.0519227726
 H   -0.5097601956   -4.9018745342   -1.1327757622