14

 O    0.1751986859   -0.0042959513    0.0000806159
 C    0.0008851991    1.1713211353    0.0092820633
 C   -1.2625003661    2.0240786205    0.0328111217
 N   -0.7997665187    3.4065056686    0.0342347787
 C    0.4652827411    3.3435485042    0.0155297810
 C    1.4659384302    4.4606814169    0.0078812133
 C    0.8832482825    5.7929446241    0.0221760896
 C    0.4370961776    6.9064206429    0.0336007522
 O    1.0519613339    2.0896285143   -0.0003637979
 H   -1.8880662902    1.8101849338   -0.8404167796
 H   -1.8623161412    1.7997686516    0.9213603012
 H    2.1306073823    4.3174412197    0.8707330141
 H    2.1077171731    4.3260644536   -0.8734645272
 H    0.0282525806    7.8864464358    0.0439861136