16

 N   -0.0575229062    0.9133211445   -0.9818166715
 C    0.0390257709    0.0520675603   -0.0621575968
 O    1.1728371776   -0.6706859853    0.1378804611
 C    1.3161156987   -1.4371278495    1.3354889991
 C    0.6262161370   -2.7895925193    1.2323455856
 C   -0.8701487987   -2.7200683350    1.1832001653
 C   -1.6295187545   -1.6297552275    1.0271296820
 C   -1.2085403377   -0.2259996460    0.7829189774
 O   -1.9082629103    0.6963794149    1.1357461273
 H    0.8240919128    0.9762075968   -1.4975435282
 H    2.3933034509   -1.5676512158    1.4613773164
 H    0.9395940560   -0.8723130293    2.1978717790
 H    1.0066866448   -3.3243596820    0.3506161936
 H    0.9206323265   -3.4002189013    2.0970420858
 H   -1.3803351826   -3.6674738173    1.3459925723
 H   -2.7088706954   -1.7161972284    1.1178262614