19

 C   -0.0262379484    1.4586885899   -0.0072221803
 C   -0.0112666712    0.0034422870   -0.0157493719
 C   -0.0029141830   -1.2033201923   -0.0299677464
 C    0.0338621049   -2.6232885091   -0.0128285774
 C   -0.3556925346   -3.4802543906   -1.2020417788
 C   -1.1318979249   -3.6288843010    0.0695672454
 C   -0.3910506892   -4.4009667125    1.1917991809
 C    0.9838636426   -4.8829573042    0.8105512597
 C    0.7678883386   -3.4264357262    1.1128408627
 H    0.7425175207    1.8564434530    0.6650801764
 H    0.1669411798    1.8693162681   -1.0050060999
 H   -0.9923131177    1.8513980644    0.3309733102
 H   -0.8725618075   -2.9212670981   -1.9753304464
 H    0.2944889538   -4.2561835645   -1.5903209812
 H   -2.1849322560   -3.3872633192    0.1286103763
 H   -0.9021464033   -4.7607523797    2.0748351836
 H    1.4945419555   -5.4205209665    1.6045975097
 H    1.2282776095   -5.2542750335   -0.1782007462
 H    1.2738135006   -2.9141906248    1.9201186036