20

 O    0.0026197514    1.4158221687    0.0403344578
 C    0.0442284381   -0.0003928305   -0.0023713947
 C   -1.3623401504   -0.5977688370    0.0713501682
 N   -2.3093476765   -0.0445132211   -0.9237760292
 C   -1.8026370628   -1.4229115221   -1.0818568277
 C   -0.7420763932   -1.6738532950   -2.1483073761
 C   -0.0368898873   -0.3474704852   -2.5365881403
 C    0.8014956990   -0.5241459863   -1.2400904699
 C    0.5757879644   -2.0573034562   -1.4041253865
 H   -0.7417200818    1.6685867612   -0.5214538483
 H    0.5990515370   -0.3135255980    0.8908289263
 H   -1.7520106725   -0.8084620600    1.0630504540
 H   -3.2524536391   -0.0572731205   -0.5458611724
 H   -2.4992434500   -2.2365696332   -0.8945218977
 H   -1.1082644143   -2.3244069569   -2.9456675446
 H    0.5830438347   -0.4824109922   -3.4265754026
 H   -0.6540150276    0.5437413231   -2.6497056299
 H    1.8244331130   -0.1420987309   -1.2324748372
 H    0.4907022026   -2.6700707824   -0.5005831977
 H    1.3127157453   -2.5028460454   -2.0771116414