16

 N   -0.2536589754    1.4054433084    0.0899748413
 C   -0.1124077111   -0.0236661803    0.1060120153
 C   -0.7335839157   -0.8069947027    1.2193196068
 C   -1.3919302378   -0.8379748166   -0.1544349744
 N   -2.5786035596   -0.0701869369   -0.3535503008
 C   -3.8052462405   -0.5045556935    0.0632410645
 O   -4.0289998698   -1.6016692357    0.5194582115
 C   -1.2605555489   -2.0333053811   -0.9525400980
 N   -1.1034084845   -2.9807394612   -1.5966175412
 H    0.1546216574    1.8248223893    0.9180310590
 H    0.2070626245    1.8072594896   -0.7188133519
 H    0.7830029275   -0.4543413443   -0.3372043482
 H   -0.2271206660   -1.6997630751    1.5648512796
 H   -1.2918957303   -0.2638360051    1.9729025778
 H   -2.4281103567    0.9127656724   -0.5405586195
 H   -4.5831349931    0.2699466030   -0.0864798418