14

 N    0.2543741506    1.3331018106   -0.3330363510
 C    0.0778416057   -0.0389025416   -0.1425918887
 C   -1.0493423163   -0.7777940752    0.0566558904
 O   -0.7273821344   -2.0700127969    0.2917506946
 N    0.6392991872   -2.2116158244    0.2339795303
 C    1.1159900184   -1.0138994350   -0.0092688278
 C    2.6036372082   -0.8068967126   -0.0871099677
 C    2.9928639158   -0.0517470457   -1.2802409865
 N    3.2548392662    0.5792221057   -2.2124107389
 H    0.9523712584    1.5504123032   -1.0355124911
 H   -0.6059804663    1.8185338923   -0.5494639015
 H   -2.1010878280   -0.5415783359    0.0689149907
 H    2.9583429414   -0.2543781985    0.7920725984
 H    3.1005911930   -1.7811360159   -0.0851418611