14

 C   -0.0112528635    1.5057293949    0.0414206953
 C   -0.0228496328    0.0128389210   -0.0474137673
 C   -0.9112389042   -0.9287321667    0.7685429963
 O   -1.0857140844   -2.1555596428    0.0529460209
 C    0.3439687014   -2.1032890866   -0.2136897434
 C    0.5498371755   -1.0716797832    0.9524684372
 C    0.4936448191   -0.8715336937   -1.1428561329
 O    1.0488155443   -0.6639321831   -2.1843834415
 H    0.9507140092    1.9083943326   -0.2904815139
 H   -0.7918937006    1.9360400602   -0.5943117556
 H   -0.1905142165    1.8473559751    1.0658535929
 H   -1.7014271460   -0.5772543265    1.4202423446
 H    0.8201002004   -3.0649411626   -0.3810252682
 H    1.2641031383   -0.9513644884    1.7531876957