18

 C    0.3416667231    1.7644843975   -0.1615438880
 C   -0.0137379623    0.2855609227    0.0004628500
 N   -1.4625056785    0.1467163774    0.1851052919
 C   -2.0163739252   -0.8643581815    0.8966412523
 O   -1.3959198449   -1.7665234660    1.4280526748
 C    0.4941558732   -0.5488707058   -1.1625263344
 C    1.7780163660   -1.2837906053   -1.0281537096
 N    0.5031685655   -2.0123060699   -1.0701703741
 H    1.4234780871    1.8836586697   -0.2600218647
 H   -0.1207741612    2.1831375203   -1.0635678925
 H    0.0042350023    2.3472845324    0.7001588267
 H    0.4374960551   -0.1056443034    0.9188147298
 H   -2.0748907187    0.8232675997   -0.2430865954
 H   -3.1183311427   -0.7785741239    0.9601118671
 H    0.2085728338   -0.1713672156   -2.1449168933
 H    2.4207667268   -1.4226851303   -1.8931012201
 H    2.3083471491   -1.2075062085   -0.0810951792
 H    0.2139738616   -2.2896487896   -0.1332203014