21

 C    0.4989535488    1.6865495870   -0.2481764511
 C   -0.0019064359    0.2570722532    0.0392660213
 C    0.2661595072   -0.6817194252   -1.1541112621
 C    0.5890747219   -0.2724557165    1.2691486765
 C    1.0949050667   -0.7034454469    2.2753846469
 C    1.6849255322   -1.2438384237    3.4813662882
 C    0.7841076732   -2.0312496568    4.4757007476
 O    1.7079386885   -3.1347504038    4.5010741714
 C    2.4634282049   -2.5884832519    3.4044718289
 H    1.5809470551    1.6893522965   -0.4126905204
 H    0.0142449967    2.0853980357   -1.1450888197
 H    0.2821624908    2.3553382406    0.5888522258
 H   -1.0902020716    0.3075022159    0.1859100085
 H    1.3402884017   -0.7590026948   -1.3492459417
 H   -0.1155003056   -1.6870112383   -0.9576496757
 H   -0.2197291106   -0.2965609946   -2.0563231118
 H    2.2702796441   -0.4799060698    4.0015429157
 H    0.6414991799   -1.5863299622    5.4663174098
 H   -0.1891456421   -2.3137376615    4.0553259533
 H    2.2961734860   -3.1384167603    2.4699134452
 H    3.5365878079   -2.5470364327    3.6195131035