19

 C   -0.1043037090    1.5707039015   -0.1001220813
 C   -0.0014662648    0.0613915776    0.0589985911
 C    0.9843041256   -0.7011337231   -0.8690391633
 C    0.7453897898   -1.2160259334   -2.2501950359
 O    2.2994283229   -0.2246533919   -0.5339036009
 C    1.7180070868   -1.2568878600    0.2854342166
 C    0.7976697505   -0.5323196273    1.2507872842
 C    1.0305519018   -0.0627877408    2.6130353863
 O    0.1610368158   -1.1779252223    2.3362044942
 H    0.8927029874    2.0187095666   -0.1182189573
 H   -0.6192289958    1.8366659913   -1.0296711502
 H   -0.6682293493    2.0159937805    0.7261778116
 H   -0.9882692413   -0.4154181743    0.0415205763
 H    0.6356301889   -0.3891494973   -2.9609110292
 H    1.5860403702   -1.8340106720   -2.5764200243
 H   -0.1696042116   -1.8156922877   -2.2874241782
 H    2.2697375579   -2.1812848261    0.4150070262
 H    1.9603045551   -0.3104320905    3.1229383920
 H    0.5283163592    0.8353212593    2.9691922021