17

 C   -0.0712438960   -1.1946118708   -0.0894528069
 C   -0.0382864667    0.0059869725   -0.0363215381
 C   -0.0221777189    1.4632891883    0.0052764585
 C   -1.0028965812    1.9984257874   -0.9314938272
 C   -1.8183525742    2.4141421363   -1.7109545943
 C    0.0867176847    2.1560330343    1.4297874736
 C    1.5411456113    1.6135907397    1.5164824511
 C    1.3927194992    2.1802267689    0.0763388426
 C    0.6743889871    3.4037106543    0.7121105904
 H   -0.1005990047   -2.2550609367   -0.1365489924
 H   -2.5386424131    2.7811472143   -2.3995198768
 H   -0.6903612244    2.1230636971    2.1937643370
 H    2.2123188082    2.1693597500    2.1740617740
 H    1.6685761953    0.5363182758    1.6201886059
 H    2.1288301143    2.1752895125   -0.7278477254
 H    0.0025104042    3.9772561369    0.0740380248
 H    1.3019547749    4.0495414792    1.3292205734