16

 N    0.2869183468    0.1598983739    0.9992508266
 C   -0.0009880761    0.0664017418   -0.3308582001
 O    0.4360924721    0.8476856906   -1.1528531554
 C   -0.9388246078   -1.0802577407   -0.7241760792
 C   -0.9732698006   -2.2804934690    0.1976079861
 C   -1.9091919418   -2.3185690117    1.3905516652
 C   -2.1644382033   -3.2012038414    0.1944639660
 H    0.8593137414    0.9271062656    1.3100427919
 H   -0.1069236140   -0.4727248172    1.6730003579
 H   -1.9457641617   -0.6500347410   -0.8086064984
 H   -0.6481878570   -1.3700729183   -1.7384896958
 H   -0.0099066589   -2.7628338304    0.3419005710
 H   -1.5670817709   -2.7857023300    2.3079925266
 H   -2.5735268486   -1.4734733794    1.5428222193
 H   -2.9980572873   -2.9462211737   -0.4513728221
 H   -1.9918017822   -4.2664788491    0.2973597905