15

 O   -0.5778647716    0.7146209347    0.6573364555
 C    0.1766132213    0.9571755150   -0.2525491547
 C    1.3532148021    1.8404477942   -0.1166474163
 C    1.7977289417    2.5609377946    1.1596334711
 C    2.1608537560    3.8226736177    0.2921563040
 C    3.5457526004    4.2715834590    0.3067465040
 N    4.6583335772    4.5866749530    0.3110209072
 C    1.7155793272    3.0495008749   -0.9758373890
 N    2.3954332793    1.7963698113   -1.1371317188
 H    0.0381787659    0.5444857539   -1.2740174139
 H    0.9701951570    2.7577310292    1.8410336427
 H    2.6196460204    2.0948066410    1.7072869699
 H    1.4973803360    4.6613447911    0.5133121984
 H    1.1978862995    3.4838625543   -1.8228577908
 H    3.3405246976    1.7737795663   -0.7572828593