18

 O   -0.5057318695    1.1607119293    0.9720405294
 C    0.0624764056    0.1886970512    0.1181662009
 C    0.9178480320   -0.8446966889    0.9002186417
 C   -0.0637175425   -1.9359738945    1.2796870718
 N   -1.3417996679   -1.4322006550    1.7822135038
 C   -1.2585186589   -1.8283848695    0.3587210235
 C   -1.0271756489   -0.6672814495   -0.5887454233
 C   -1.9519340034   -3.0774595787   -0.0298606198
 O   -2.3996937285   -3.8661015915    0.7721928998
 H   -1.0397766939    0.6646354344    1.6109028451
 H    0.6647065449    0.7432372578   -0.6055208459
 H    1.7059027616   -1.2701258991    0.2681881718
 H    1.3905142853   -0.3712194886    1.7651195426
 H    0.2747760548   -2.9100424202    1.6183092598
 H   -1.8335503362   -2.1816839067    2.2706318935
 H   -1.9202337556   -0.0630813987   -0.7687496330
 H   -0.6691333398   -1.0492532898   -1.5529924126
 H   -2.0291220089   -3.2581043219   -1.1230265489