19

 C   -0.3236113734    1.4848053310   -0.1382066048
 C    0.0074544122    0.0067074684   -0.0020269469
 C    0.8208230119   -0.3258133701    1.2434884387
 O   -1.2750077305   -0.6869915949    0.0568154796
 C   -1.3027884917   -1.9582952926   -0.3659067397
 O   -0.3539683023   -2.5689788843   -0.7965485924
 C   -2.6955105061   -2.5478022820   -0.2483046682
 C   -3.0702125988   -3.3488722274   -1.4884821590
 O   -4.1830687472   -3.3872714228   -1.9405687165
 H    0.5985738896    2.0675407184   -0.2196030981
 H   -0.9276636897    1.6681526870   -1.0306441461
 H   -0.8796903271    1.8407187109    0.7345839153
 H    0.5301856846   -0.3580048668   -0.8902479579
 H    0.2827316892   -0.0241199268    2.1476953535
 H    1.0299074629   -1.3966605333    1.2928137528
 H    1.7760186885    0.2075918728    1.2178770099
 H   -2.6683502841   -3.2601729951    0.5886851268
 H   -3.4545761391   -1.7956468211   -0.0336984078
 H   -2.2255587788   -3.9096895414   -1.9378618390