21

 O   -0.1456208697    1.5893683404    0.1186672504
 C    0.0932151222    0.1875012882    0.0270391392
 C   -1.2704085009   -0.4813076755   -0.0192111217
 C   -2.0721270708   -0.4716492483   -1.3966726793
 C   -1.8230618083   -1.9952709783   -1.4456171386
 C   -2.2588088724   -3.4937625525   -1.3709177762
 C   -0.8891812625   -3.3595420423   -0.5586049310
 C   -0.3765810512   -2.5188324422   -1.7388821363
 C   -1.5128099441   -2.0540168527    0.0526030094
 H    0.7010397608    2.0418628935    0.0599952281
 H    0.6952430129   -0.0360917189   -0.8633848986
 H    0.6480849778   -0.1815253506    0.9049519772
 H   -1.8470288229   -0.0104642156    0.7817334464
 H   -3.1176445137   -0.1894120338   -1.2479567063
 H   -1.6555523872    0.1258203031   -2.2128562039
 H   -3.1544772886   -3.7083537842   -0.7821569752
 H   -2.2167344736   -4.1050783167   -2.2787350426
 H   -0.3702227171   -4.1815839553   -0.0557093856
 H   -0.2428177897   -3.0351757011   -2.6941117795
 H    0.4624264136   -1.8540548591   -1.5410179698
 H   -2.3679081045   -2.2487836880    0.7066021839