19

 C   -0.1857809861    1.3771850093   -0.0452126531
 O   -0.0129763585   -0.0187237619   -0.0122867058
 C    0.6666165513   -0.5140369216   -1.1435518384
 C    0.7886617645   -2.0330729380   -0.9938277748
 C    1.4754958336   -2.6771254687   -2.1464099235
 C    2.6661127210   -3.3205052748   -2.2923247528
 C    2.7599376998   -3.7073742252   -3.6701103412
 C    1.6195470404   -3.2678230330   -4.2590049114
 O    0.8263998103   -2.6388351373   -3.3494926839
 H    0.7789271247    1.9088732565   -0.0714322561
 H   -0.7747665926    1.6962086963   -0.9199033864
 H   -0.7210500597    1.6630287724    0.8636181575
 H    0.1185903305   -0.2686738009   -2.0677397963
 H    1.6686494451   -0.0603816433   -1.2280299919
 H    1.3469859899   -2.2576581827   -0.0805391243
 H   -0.2190635850   -2.4463895953   -0.8666957832
 H    3.3889012401   -3.5010421948   -1.5118520757
 H    3.5660125488   -4.2409882514   -4.1486459607
 H    1.2306243318   -3.3177455953   -5.2625493579