17

 C    0.0425661705    1.3397715736   -0.0534890784
 O    0.0845087433   -0.0821997759   -0.0182031443
 C    0.7291150321   -0.6068747444    1.0746218578
 C    0.5977958505   -2.1327274297    1.0933617586
 C    1.9425542402   -2.5838642178    1.6587056229
 O    2.3734215526   -3.8373270130    1.2050930374
 C    2.8742508314   -1.4645717771    1.1984726586
 O    4.0589472311   -1.5625243846    1.0375918968
 O    2.1654547889   -0.3378612642    0.9867361023
 H    1.0466075611    1.7629269625   -0.1630786057
 H   -0.5651904401    1.6130356761   -0.9173659712
 H   -0.4215175861    1.7428991138    0.8576097926
 H    0.3934623897   -0.1227222300    2.0039810649
 H   -0.2685392030   -2.4646462425    1.6660498614
 H    0.5015635179   -2.4834967547    0.0623605781
 H    1.9202054485   -2.5474396416    2.7626249681
 H    3.3346498514   -3.7715754103    1.1128598702