21

 C   -0.2256291067    1.4687229706   -0.0115030023
 C   -0.0344791840   -0.0295544945    0.0194388438
 C    0.9081723300   -0.7746911733   -0.9778924110
 C    0.8432489553   -1.8959034101    0.0962936812
 C    0.7766343677   -0.7507375040    1.1435909689
 C   -0.6563706957   -2.3257661642    0.0273080591
 C   -1.3029470680   -0.9127172064   -0.0510412900
 C   -0.9177491365   -3.2347874306   -1.1479352616
 O   -1.4250422651   -2.9036266669   -2.1911826002
 H    0.7326132602    1.9958924174    0.0452750791
 H   -0.7260916970    1.7827133067   -0.9346998575
 H   -0.8432742212    1.8064560291    0.8290416731
 H    0.5314340097   -0.9900747000   -1.9811501039
 H    1.8989325997   -0.3168738849   -1.0334443631
 H    1.5851774900   -2.6931119947    0.1538855506
 H    1.7527389354   -0.2894636128    1.3163322725
 H    0.2788791457   -0.9501271555    2.0983771909
 H   -0.9244897211   -2.8767382213    0.9370835712
 H   -1.9857588617   -0.7230316024    0.7826137446
 H   -1.8509906561   -0.7818000255   -0.9875870782
 H   -0.5668654207   -4.2830749369   -1.0003226171