17

 C    0.0753446557    1.5416805460   -0.1227389369
 N    0.0491959678    0.0826125265   -0.0343613855
 C   -1.1074389015   -0.4881292436    0.7130522390
 C   -0.2840942149   -1.7382966025    1.1638193577
 N   -0.5992918859   -1.6157041372    2.6232943035
 C   -0.5422596267   -0.2004859904    2.1575486831
 C    0.6794003145   -0.5217903873    1.1832122210
 C    2.1382758638   -0.4742660900    1.4941371880
 O    2.7460733882   -1.3625965713    2.0340005472
 H    1.0566531321    1.8710661179   -0.4773888203
 H   -0.6660652029    1.8624176250   -0.8615438873
 H   -0.1411625196    2.0603776773    0.8264072446
 H   -2.1378937767   -0.4367175949    0.3537592652
 H   -0.1348681372   -2.6830537987    0.6438657562
 H   -1.5711185212   -1.8856368091    2.7973545451
 H   -0.6863993026    0.6474109407    2.8271878611
 H    2.6405172272    0.4736533117    1.1936698282