12

 O   -0.9663023904    1.0927516181    0.2635661975
 C    0.1635525006    0.8593401407   -0.0596864753
 C    1.2783215783    1.9118044263   -0.0650853198
 N    2.5937029767    1.2976192038    0.1260718386
 C    3.2697176579    1.5785114195   -0.9213938092
 N    2.6217398545    2.3474201845   -1.8762780982
 C    1.3322598843    2.6415629690   -1.4340184806
 O    0.5027186243    3.2971361886   -2.0029448958
 H    0.4989801112   -0.1450657468   -0.3941537863
 H    1.0519001140    2.6367419582    0.7224130823
 H    4.2923767179    1.2580381655   -1.0909729286
 H    3.0046143007    2.6817449928   -2.7460734646