17

 O    0.2029665845    1.3503391093   -0.2982942910
 C    0.0828572365   -0.0019724385   -0.0166826810
 C   -1.3408918332   -0.7078846242   -0.0836738302
 O   -2.0602042242   -0.4740127622   -1.3257841092
 C   -1.6094675836   -1.7520812369   -1.9180189685
 C   -0.6509517463   -1.5565660685   -3.1119819096
 C    0.4862256407   -0.8119247765   -2.4154855702
 C    0.4422802779   -1.0288078265   -1.0943361387
 C   -0.7064296535   -1.9632758115   -0.6998117563
 H   -0.2777301187    1.4979468352   -1.1238324686
 H    0.5102466945   -0.1765177492    0.9769646596
 H   -1.9909082342   -0.6500911442    0.7936569786
 H   -2.4666033758   -2.4097940356   -2.0945034144
 H   -0.3917236761   -2.5247070941   -3.5633746293
 H   -1.0941798064   -0.9410068535   -3.9024641944
 H    0.9959274127    0.0248547893   -2.8812746461
 H   -0.5317953049   -2.9143636623   -0.2032998908