11

 N    0.0247197235    1.3235423199    0.0082404333
 C   -0.0896189032   -0.0138534640    0.0014899213
 N   -1.2284166625   -0.6134451684    0.0045106643
 C   -1.2113505563   -1.9854804193   -0.0034752153
 N   -2.2482550706   -2.7029177258   -0.0016933258
 O    0.0595009553   -2.6179335510   -0.0143567482
 N    1.2442037146   -1.8813147184   -0.0169164705
 N    1.1898206926   -0.6470229584   -0.0095571648
 H    0.9364391111    1.7454113032    0.0052885103
 H   -0.8057375076    1.8905814688    0.0160987245
 H   -2.0027820069   -3.6920083667   -0.0087636390