17

 O    0.1500193664    1.3537744556   -0.1040591010
 C    0.1005084666   -0.0440642080   -0.0763827742
 C    0.1298714251   -0.6480757705    1.3613920492
 O   -1.2908802972   -0.2780379033    1.4562604960
 C   -1.3444453931   -0.6222784449    0.0268921743
 C   -1.2670432762   -2.1867147347   -0.0801684960
 C   -1.2424371254   -2.7666587143    1.3546336888
 C    0.1986247259   -2.2123609868    1.2465025356
 O    0.1541058205   -2.5281817188   -0.1836167135
 H   -0.4612648149    1.6632225011    0.5772531727
 H    0.7799393225   -0.4206498916   -0.8342776366
 H    0.7354544535   -0.1992862041    2.1510503165
 H   -2.1814649103   -0.1482463096   -0.4892423955
 H   -1.8679065738   -2.6242406910   -0.8787103305
 H   -1.9194906702   -2.3768275347    2.1101588839
 H   -1.2348697170   -3.8559866218    1.3252150572
 H    1.0442313976   -2.6751967227    1.7572540431