21

 C    0.5004085148    1.4147294156    0.0876507598
 C    0.1353924126   -0.0286548236    0.0774783326
 C   -0.3653537353   -0.8164732924   -0.8823190424
 C   -0.4790649915   -2.1887581490   -0.2021496192
 C   -1.0835291183   -1.7539221564    1.1767210447
 C    0.2851616985   -0.9971831287    1.2675234041
 C    0.9188209927   -2.2339398141    0.5231685516
 C    1.2788107367   -3.4636944917    1.3376886269
 O    2.4359717515   -3.1358594223    2.1001492290
 H    1.5638427577    1.5566683258    0.3202870631
 H    0.3004066758    1.8837756992   -0.8803241379
 H   -0.0597815557    1.9660795289    0.8541203347
 H   -0.6319746890   -0.5785316112   -1.9028916969
 H   -0.8685013285   -3.0295573617   -0.7776684507
 H   -1.9871029344   -1.1407900027    1.1469904194
 H   -1.2002823504   -2.5645631236    1.9006472792
 H    0.6905630144   -0.6166841896    2.2048572400
 H    1.7713215549   -1.9826835759   -0.1144397359
 H    0.4554318315   -3.7817703932    1.9925435802
 H    1.4836868607   -4.2979883516    0.6459611483
 H    2.6976345713   -3.9160896320    2.5975564693