19

 C    0.1786738693    1.3760761361   -0.1774088884
 O   -0.1232113242   -0.0028495057    0.0248591366
 C    0.4810695214   -0.5224266620    1.1333304052
 C    1.9214115182   -1.0527064153    1.1268134255
 C    0.7770041084   -1.9710733102    1.4621319264
 N    0.2975821327   -1.7594903381    2.8378233384
 C    0.0385989432   -0.3729502001    2.5653067211
 N   -0.4323749076    0.5859155104    3.2291676864
 C   -0.7666845621    0.3568271883    4.6266527003
 H    1.2558034169    1.5243141896   -0.3363951025
 H   -0.3645145440    1.6859711560   -1.0722195191
 H   -0.1451215397    1.9772162779    0.6791951966
 H    2.3245157376   -1.1596495471    0.1235381306
 H    2.6400773859   -0.7656101616    1.8897959564
 H    0.5141853911   -2.8661337696    0.9140562703
 H    0.9237667953   -1.9971400030    3.6019291472
 H   -0.8894723885   -0.7047498903    4.8840443469
 H    0.0112537707    0.7820042261    5.2737206166
 H   -1.6983521446    0.8803005185    4.8633507455