16

 O   -0.0528140605    1.3282184609    0.2044732048
 C    0.0060327395   -0.0496186040   -0.0009415943
 C   -0.5256776246   -0.9752525312    1.0805064091
 C   -1.3275273953   -0.7496372359   -0.1797922926
 C   -2.6078308038    0.0619392971   -0.1696245139
 C   -3.7694996677   -0.7211479048    0.4123927192
 O   -4.8559374964   -0.8096946074   -0.0952014248
 C    1.1271078859   -0.4969920434   -0.8007172445
 N    2.0375048927   -0.8447735248   -1.4236071220
 H    0.6755779601    1.5832678429    0.7826754178
 H   -0.0399364519   -1.9317136218    1.2322783786
 H   -0.8524466058   -0.4702873491    1.9834704683
 H   -1.3123168472   -1.5677210927   -0.8931637840
 H   -2.4610375134    0.9550794218    0.4504791805
 H   -2.8798121957    0.3960946902   -1.1744241171
 H   -3.5444443359   -1.2219687580    1.3824669751