20

 C   -0.0028978494    1.5025675554    0.0338217722
 C    0.0585756441   -0.0011732967   -0.0038706250
 C    0.8629669732   -0.8170700558   -1.0478483234
 C    0.7737471492   -1.9506201897   -0.0089524580
 C    1.6196141998   -3.1906754287   -0.0235271424
 C    0.6571816107   -0.9107899580    1.1551564719
 C   -0.7519078544   -1.4668301196    1.4648520720
 C   -1.2313127655   -0.8268224899    0.2175609945
 N   -0.7223531705   -2.2349728992    0.1802843641
 H    0.9994443849    1.9438084008    0.0251615322
 H   -0.5471289079    1.8969649555   -0.8330191453
 H   -0.5176830763    1.8539043498    0.9353651335
 H    0.4277176504   -0.9826975417   -2.0384915247
 H    1.8904634480   -0.4484924127   -1.1434112228
 H    2.6848761801   -2.9407130130   -0.0596866005
 H    1.4381257468   -3.7961495001    0.8705839892
 H    1.3796426692   -3.8061638367   -0.8977200666
 H    1.4502476443   -0.5979776924    1.8307574272
 H   -1.2629719795   -1.8149495411    2.3544166666
 H   -2.2354291872   -0.6376949862   -0.1444578347