15

 C   -0.0259294903    1.5629877722    0.0163150649
 C   -0.0284073304    0.0151165551   -0.0399326191
 C   -1.3878885017   -0.5178697342    0.0514309603
 C   -2.5142621296   -0.9308438343    0.1159807488
 C    0.6600807258   -0.4783251943   -1.2875819214
 N    1.9297628412   -0.7834164843   -1.3024714299
 O    2.2157771916   -1.1443677455   -2.5891476565
 N    1.1078414248   -1.0674203337   -3.3846694752
 C    0.1466543608   -0.6612946168   -2.6043438050
 H    1.0014357759    1.9338656783   -0.0154701861
 H   -0.5779795766    1.9820835103   -0.8290531294
 H   -0.5003585439    1.9031401267    0.9397012956
 H    0.5554350279   -0.3556860052    0.8104321016
 H   -3.5047217250   -1.3084059973    0.1857279583
 H   -0.8571755305   -0.5232462570   -2.9733610370