22

 C   -0.0726263255    1.6385292078    0.1853462757
 C   -0.1890544591    0.1133473071    0.1915480149
 C   -1.6229262775   -0.3171016832   -0.1002824130
 C    0.9762719058   -0.6431590532   -0.4889761239
 N    1.9507876171   -0.2261987803    0.6465329886
 C    2.4096868107   -1.6659923186    0.7716071193
 C    0.9325420610   -1.8921447425    0.4668921110
 C    0.2438780205   -3.2312653211    0.3501170125
 C    0.5992043289   -0.6069658909    1.3110235512
 H    0.9498996306    1.9573999136    0.3929869145
 H   -0.3742674299    2.0429816142   -0.7879297590
 H   -0.7358677514    2.0775697479    0.9397990070
 H   -1.9435955636    0.0655224174   -1.0761449019
 H   -1.7596121737   -1.3989038726   -0.1074079838
 H   -2.3051968614    0.0998752114    0.6495009990
 H    1.3115381169   -0.6171187646   -1.5301093569
 H    3.1442117982   -1.9583439539    0.0119627421
 H    2.7755325820   -1.9228995322    1.7727098522
 H    0.3498798416   -3.7914225597    1.2863956705
 H   -0.8222572803   -3.1592306487    0.1257975635
 H    0.7113010854   -3.8267754640   -0.4426684837
 H    0.4889181936   -0.5379961636    2.3973561000