19

 C   -0.1864972151    1.4782355145   -0.5881298381
 C   -0.0883134588    0.0453393321   -1.1164990957
 C    1.3366772654   -0.5168341853   -1.0305062312
 O    1.8445962163   -0.4808575456    0.2964883479
 C    1.4631080585   -1.9548452821   -1.5455531561
 O    0.6770226453   -2.8844797135   -0.7466930930
 C   -0.0910160375   -3.3629085525   -1.8724730011
 C    0.6810416931   -2.4047609019   -2.7884928513
 O    0.6788115468   -2.1312510789   -3.9488393656
 H    0.1686361960    1.5324733239    0.4437721636
 H    0.4252206606    2.1616778135   -1.1872942344
 H   -1.2185907144    1.8390123110   -0.6197703080
 H   -0.7565928698   -0.6129095869   -0.5463295079
 H   -0.4202765413    0.0080668144   -2.1617475571
 H    2.0125768637    0.1107311262   -1.6246647094
 H    1.3454994891   -1.1383614184    0.7978183324
 H    2.5219247932   -2.2450583679   -1.5576465223
 H    0.0669216068   -4.4297045301   -2.0734889082
 H   -1.1649948181   -3.1620655727   -1.7762373343