19

 C   -0.0307493986    1.5584075099    0.0120586505
 C    1.4684583825    1.8775187873    0.0350572506
 C    2.0558272875    0.9561133301    1.1277113610
 C    2.5902082462    0.0049815279    0.0725467239
 C    1.2932617210   -0.3027557950    0.8078317284
 C    0.0356033341    0.0118685041   -0.0315917980
 C    0.3065024368   -0.3999613899   -1.4886203088
 O    1.3320221963    0.4297545665   -2.0463893405
 C    2.1791877145    0.9610017147   -1.0446651939
 H   -0.5203539623    1.9202634480    0.9224445263
 H   -0.5487271368    1.9790628088   -0.8555080166
 H    1.7453670856    2.9312550647    0.0283400151
 H    2.4620998229    1.2210087993    2.0937024982
 H    3.4513471542   -0.6523417653    0.0957871705
 H    1.3020709858   -1.1345942607    1.5012133830
 H   -0.8619873571   -0.4828044997    0.3463838118
 H    0.6079609657   -1.4575703715   -1.5373636600
 H   -0.5805098366   -0.2685226832   -2.1187579971
 H    3.0065903984    1.4522772941   -1.5577324344