25

 C   -0.1423094268    1.7451214944   -0.2823265894
 C   -0.0089625709    0.2418384436   -0.0068129652
 C   -1.3581874335   -0.4694855456   -0.0322615286
 C   -2.1033909390   -0.8079908498   -1.3692673265
 C   -1.0812413626   -1.9620889247   -1.5838245709
 C   -1.4800107031   -2.0292025159   -0.0800792127
 C   -2.9573697511   -1.8496728528   -0.5650339718
 C   -4.0985260621   -1.4547309278    0.3652506768
 C   -5.3521209768   -1.0260297755   -0.4083324331
 H    0.8258742929    2.2506750365   -0.2119936129
 H   -0.5428918886    1.9298338604   -1.2849189191
 H   -0.8195306738    2.2215206032    0.4355933563
 H    0.6976526678   -0.1935958407   -0.7200960240
 H    0.4368240878    0.0950791978    0.9862972361
 H   -1.9992883931    0.0007579805    0.7190008837
 H   -2.4646930666   -0.1046284916   -2.1227491612
 H   -1.4169367382   -2.7939337890   -2.2097289032
 H   -0.0534760691   -1.6903459442   -1.8233784134
 H   -1.1171883189   -2.7407464745    0.6657031632
 H   -3.2932287449   -2.6825490189   -1.1963388036
 H   -4.3406540120   -2.3209864457    0.9954033124
 H   -3.8091050323   -0.6553665253    1.0542754420
 H   -6.1786334624   -0.7929271971    0.2701706687
 H   -5.1570050659   -0.1354697878   -1.0153638014
 H   -5.6902767766   -1.8182108297   -1.0857487620