24

 C    0.0690359126    1.5674267076    0.0223774007
 C    0.0532622827    0.0599803241    0.2084821881
 O   -1.2712804914   -0.4040666311    0.0303869727
 C   -1.3985678130   -1.7996047361    0.1964367675
 C   -2.8247348337   -2.2712210478   -0.0134497349
 C   -3.9645201300   -1.3171763055   -0.1075567534
 N   -3.5693973508   -2.1224860253   -1.2616249945
 C   -2.9579568553   -1.4367338674   -2.4003885195
 C   -4.0399603199   -0.9841582581   -3.3778074928
 H    1.0814230695    1.9576995625    0.1628239679
 H   -0.2690718978    1.8349167777   -0.9828074333
 H   -0.5928821568    2.0503977790    0.7467382804
 H    0.7271047599   -0.4285348555   -0.5152406995
 H    0.4132295553   -0.2103302756    1.2155787306
 H   -0.7209410487   -2.3282178444   -0.4975667419
 H   -1.0909679631   -2.0876990536    1.2165938676
 H   -2.9958256936   -3.2351344329    0.4659506699
 H   -4.9267286201   -1.5567820135    0.3383673311
 H   -3.7037342128   -0.2614433185   -0.1112050152
 H   -2.3412070083   -0.5811136683   -2.0926815901
 H   -2.2929344574   -2.1559090835   -2.8955419668
 H   -3.5933896900   -0.5162349850   -4.2608633853
 H   -4.6475166460   -1.8341568679   -3.7014751919
 H   -4.7066526314   -0.2525733910   -2.9091386576