18

 O    0.1004261550    1.3395209438    0.2278782659
 C   -0.0167619678   -0.0516135289    0.0330006381
 C   -1.4879301144   -0.4736903235   -0.0036892413
 C   -1.5468333805   -1.9905240777   -0.3475006149
 C   -1.3828798239   -1.5413029636   -1.8231985595
 C   -2.0807538247   -0.2091808658   -1.4178565737
 N    0.0376595946   -1.2864652540   -2.0810491894
 C    0.7103792769   -0.4151858554   -1.2815889309
 O    1.7884220705    0.0874655062   -1.5507003603
 H    0.9619144176    1.5757741399   -0.1466302321
 H    0.4922270661   -0.6024328255    0.8440212784
 H   -2.0202413932   -0.1022306454    0.8735013139
 H   -0.7761197188   -2.6505936006    0.0596688208
 H   -2.5365722028   -2.4115786559   -0.1581214815
 H   -1.7883641137   -2.1556776929   -2.6271655281
 H   -3.1690666276   -0.3024149463   -1.4257576823
 H   -1.7772337017    0.7011866554   -1.9394054266
 H    0.4201449385   -1.4389518399   -3.0030531265