19

 C   -0.3548812307    1.5311172395   -0.0474537218
 C    0.0267450844    0.0595044105   -0.0778011872
 C    1.4267646891   -0.3282920757   -0.6039001160
 O    1.7013576469   -1.1196237813    0.5722751739
 C    0.5098378420   -0.6716187694    1.2242035734
 C    0.7854935101    0.2420057830    2.4053498233
 O    1.7844495729    0.9233268141    2.4896639396
 C   -0.2654147725    0.3128573021    3.5034940987
 O    0.0464813342    1.2943161667    4.4430198567
 H    0.4126494067    2.1356706015    0.4440368833
 H   -0.4769282858    1.9076807614   -1.0685334320
 H   -1.3044783676    1.6910424449    0.4743386372
 H   -0.7610296016   -0.5257530269   -0.5584284459
 H    1.4624490244   -0.9286748110   -1.5193201811
 H    2.1238041301    0.5142627963   -0.6917787026
 H   -0.1228858706   -1.5096442136    1.5460075538
 H   -1.2503799100    0.5000277041    3.0434927062
 H   -0.3314486469   -0.6899737242    3.9628137269
 H    0.9274264048    1.6136251879    4.1871732337