21

 C    0.0214205433    1.5894799610    0.0163384282
 C    0.0271014529    0.0770888015    0.0391334126
 C    1.3020866708   -0.7013661533   -0.2125138112
 C    0.6804786486   -0.6812753003    1.1551051906
 C    1.3108852477   -0.1289970250    2.4178808218
 O    0.2566103605    0.0216409662    3.3873411654
 C    0.8277124637   -1.2777033257    3.1990636143
 C    0.1614034556   -1.9144925238    1.9582762623
 C   -1.3365298945   -2.1707917776    2.0288324894
 H    0.9590634438    1.9941849232    0.4112378458
 H   -0.0993786487    1.9705520969   -1.0037022290
 H   -0.7939562446    1.9913793094    0.6269892193
 H   -0.8771661748   -0.3824325126   -0.3546843105
 H    1.2507182341   -1.6203105397   -0.7886207368
 H    2.2178277179   -0.1355253582   -0.3620071558
 H    2.1910933944    0.4914533046    2.5419305916
 H    1.2479191112   -1.7661566067    4.0710897619
 H    0.7057823953   -2.8163400940    1.6558039500
 H   -1.8533478985   -1.2828704666    2.4023389210
 H   -1.7448933761   -2.4168219081    1.0425848024
 H   -1.5615951228   -3.0090637212    2.6973104370