17

 C   -0.2975673670    1.5614200848    0.4337120510
 C   -0.0536224882    0.0926298367    0.1086992657
 O    0.7447806914   -0.5618215003    1.0839682537
 C   -1.3985984150   -0.6551307939   -0.1345636203
 O   -2.0316190990   -0.1652850237   -1.2898737655
 C   -1.1363395343   -2.1444492752   -0.2695954263
 O   -1.1328089330   -2.6903556969   -1.3511243612
 C   -0.9223330097   -2.9922245637    0.9857609097
 O   -1.1374882130   -2.5906539288    2.0996439487
 H    0.6546542649    2.0903628189    0.5250620090
 H   -0.8954875275    2.0300277724   -0.3519072934
 H   -0.8395572345    1.6606326038    1.3823226938
 H    0.5143848795    0.0102235352   -0.8254820842
 H    0.2585864441   -0.5767610367    1.9174260108
 H   -2.0544878620   -0.4939826046    0.7321365411
 H   -1.8491623000   -0.8095393687   -1.9902409414
 H   -0.6058406166   -4.0305631292    0.7595469688