21

 C   -0.0539349283    1.6134969942   -0.1286217697
 C   -0.1921261721    0.0925087262   -0.2223097252
 C    0.8406331155   -0.5395750508   -1.1655046761
 O    2.1716880200   -0.2271198339   -0.7785709694
 C    0.6571492813   -2.0543140840   -1.3093807674
 C   -0.3760881679   -2.5666885988   -2.3004015309
 C    1.0844263893   -2.7000302541   -2.6175536751
 C    0.8805029171   -2.7945105457   -0.0954551080
 C    1.1040041317   -3.3704354614    0.9384422226
 H    0.9553245902    1.8879275067    0.1885682430
 H   -0.2367623731    2.0884263453   -1.0993801338
 H   -0.7682776616    2.0319843814    0.5866308670
 H   -0.0777825867   -0.3602990418    0.7709332291
 H   -1.1967450426   -0.1788654939   -0.5697238385
 H    0.7269227990   -0.0983507294   -2.1642007192
 H    2.3536298761   -0.7221442066    0.0301413958
 H   -0.9305785091   -3.4577028980   -2.0313513511
 H   -0.9539862028   -1.8188120631   -2.8333654359
 H    1.5180664748   -2.0423252268   -3.3627303531
 H    1.5323048184   -3.6849765100   -2.5646078294
 H    1.2833610606   -3.8968418554    1.8430990052