16

 C    0.1224703647    1.3864502397    0.4860618510
 C    0.0308875364   -0.0492176229    0.0305544484
 C    0.4155491847   -0.4514887389   -1.3412287913
 O    1.2714139142   -0.7113196608   -0.2407639486
 C   -0.9607232877   -0.9711314225    0.7021294765
 O   -1.0429909377   -2.1520983694    0.5118988825
 O   -1.7701618842   -0.2664742318    1.5555085414
 C   -2.7423059921   -0.9575307499    2.2419100948
 N   -3.4911455738   -0.3021877068    3.0090829282
 H    0.8975045797    1.8997180399   -0.0873091576
 H   -0.8296353165    1.9040805850    0.3457478676
 H    0.3791871628    1.4427702767    1.5472719252
 H   -0.0475999492   -1.3294503747   -1.7855076506
 H    0.7468375292    0.3257460756   -2.0286036050
 H   -2.7360113805   -2.0252894423    2.0239886669
 H   -4.1607752101   -0.9274533971    3.4555395806