18

 C   -0.0507654045    1.5586151160    0.0548922067
 C    1.4891746992    1.5582529409   -0.0326028483
 C    2.1717064976    0.8970962865    1.2160512684
 C    1.1844852561    0.1359820341    2.1378548540
 C    1.4998008182   -1.1803923745    1.4879121851
 C    2.3945563049   -0.4495126813    0.4523516779
 C    1.4626938267    0.1167002291   -0.6516780258
 C    0.0229956999    0.0113932217   -0.0263399326
 N    0.1864109227   -0.5682710425    1.3212277432
 H   -0.5333099498    1.9805308936    0.9419513856
 H   -0.5003257139    1.9896775390   -0.8438676854
 H    2.0199344571    2.4013179948   -0.4765422437
 H    2.9888175597    1.4136588332    1.7185863456
 H    0.9213301023    0.3829685071    3.1605775370
 H    1.5885285798   -2.1834716347    1.8881392883
 H    3.3843169492   -0.8263134755    0.2050581921
 H    1.5959864584   -0.1082006781   -1.7097410942
 H   -0.7535561237   -0.5309148794   -0.5683396440