27

 C   -0.0142824018    1.4071279922   -0.1086246769
 O    0.0241235291    0.0024847269   -0.0787969292
 C    0.6453857681   -0.5062729149    1.0820963357
 C    0.6393022795   -2.0272873653    1.0159664373
 C    1.2929235566   -2.6783783238    2.2395364580
 C    1.2808073453   -4.2105268867    2.1739820019
 C    2.0087095696   -4.9235839164    3.3283842732
 C    1.3486220582   -4.6645898454    4.6903211746
 C    2.1007986296   -6.4309578118    3.0540012391
 H    0.9964773474    1.8464997007   -0.0908204132
 H   -0.5099950466    1.7036403067   -1.0365186276
 H   -0.5789327510    1.8211560277    0.7426722550
 H    1.6807494126   -0.1285257208    1.1587938530
 H    0.1124704884   -0.1581885804    1.9850923913
 H   -0.3989528786   -2.3672504943    0.9174693655
 H    1.1567345889   -2.3386885559    0.1003575680
 H    2.3311900510   -2.3286799745    2.3293694854
 H    0.7772979531   -2.3371647412    3.1459430468
 H    0.2401233959   -4.5643292438    2.1352775108
 H    1.7396055761   -4.5229908871    1.2259986833
 H    3.0341438369   -4.5269674322    3.3699601105
 H    0.3113639180   -5.0218150782    4.6946385243
 H    1.8817726630   -5.1902104145    5.4896073861
 H    1.3360513089   -3.6015343343    4.9474282975
 H    2.6125969022   -6.6345679572    2.1074403859
 H    2.6474543983   -6.9476913946    3.8498951998
 H    1.1016303912   -6.8793546812    2.9939477340