20

 C    0.1760054149    1.5155391583   -0.3205412567
 C    0.0724320117    0.0358594391   -0.0613145914
 O    1.3105149125   -0.6944349285    0.0351457780
 C    0.4996448953   -0.5918689872    1.1919312971
 C    0.9598141097    0.0616095003    2.5059225688
 C    0.1905554456   -1.0504907307    3.2441499335
 C    0.4026555563   -1.5640338124    4.6107629542
 N   -0.8414241367   -0.8427598204    4.2575006725
 C   -0.0917287333   -1.8005588231    1.9318644908
 H    0.9399459240    1.9723460255    0.3138328825
 H    0.4427012143    1.7051396004   -1.3655049727
 H   -0.7833032059    2.0075364653   -0.1251572551
 H   -0.6927352872   -0.4859984516   -0.6402064294
 H    2.0451949556    0.0184244855    2.6390567863
 H    0.6204235790    1.0869532081    2.6867627442
 H    0.2699357996   -2.6214928171    4.8249217031
 H    1.1374912733   -1.0645461581    5.2380996607
 H   -0.7964373318    0.1105968176    4.6112775912
 H   -1.1423257941   -2.0320459447    1.7402337855
 H    0.5110454870   -2.7043356064    1.8000864870