16

 C   -0.1121683031    1.4807264679    0.2303910235
 C   -0.0318827112   -0.0007318752    0.0724501977
 C    0.0120509053   -0.7104675019   -1.0614532412
 N    0.0829256536   -2.0959836745   -0.8153736319
 C    0.0862987748   -2.3725035814    0.5310880422
 O    0.1549471657   -3.4575337047    1.0613651998
 C    0.0173115215   -0.9853048687    1.2174034153
 C    1.1731188668   -0.8544460973    2.2060310293
 O    1.9006352176    0.0983677023    2.2937535966
 H    0.7468989976    1.8541684785    0.7964852788
 H   -0.1357630366    1.9787345558   -0.7432842473
 H   -1.0135288703    1.7791138791    0.7814166994
 H   -0.0068792356   -0.3558692355   -2.0822756359
 H    0.1372804410   -2.8158466615   -1.5165065398
 H   -0.8960233153   -0.9777744848    1.8327373588
 H    1.2839221482   -1.7454664582    2.8590463445