21

 C   -0.0206254084    1.5523632530   -0.1566887304
 C    1.4312531769    2.0100592581    0.0065761931
 C    2.2326007516    1.7783866158    1.2726924565
 C    1.6972639246    1.3706558630    2.6304601219
 C    0.4757693300    0.4299530935    2.5974696912
 C    0.4128567421   -0.4912007412    1.3870003833
 C   -0.0285497396    0.0375520773    0.0423604889
 C    1.4033949422   -0.4248586757    0.2362398066
 C    2.3154186938    0.7800594862    0.1442746248
 H   -0.7113949275    2.0714755115    0.5196992834
 H   -0.3491284521    1.7855750920   -1.1755604001
 H    1.7492770774    2.8472101343   -0.6067071278
 H    3.0922718039    2.4409279481    1.3488047763
 H    2.5193318250    0.8728371931    3.1616279643
 H    1.4530167990    2.2623446990    3.2199870888
 H    0.4777994960   -0.1749426278    3.5096220264
 H   -0.4463153433    1.0233786823    2.6383842366
 H    0.0518199868   -1.4915112614    1.6089917647
 H   -0.7414307330   -0.5477558177   -0.5290129681
 H    1.7588510735   -1.3569652887   -0.1873597821
 H    3.2396618510    0.6673488556   -0.4109217281