19

 C   -0.6355706014    1.5588148750   -0.0963134975
 C    0.0851459899    0.2137067848    0.0235826269
 C    1.3771581823    0.0193016229   -0.8570161389
 C    2.0931332357   -0.5127303311    0.3874577717
 C    2.8536499863   -1.7757881658    0.4907120254
 N    3.5107657768   -0.4669083856    0.7046327669
 C    0.9786007263   -0.0039045122    1.3025209217
 C   -0.8533506268   -0.8897794903   -0.1659145791
 N   -1.5999813149   -1.7599225577   -0.3177651242
 H    0.0780090050    2.3751801021    0.0484013843
 H   -1.0959994830    1.6721475000   -1.0822688106
 H   -1.4218827365    1.6507380781    0.6586181387
 H    1.2897851473   -0.6417001779   -1.7214620987
 H    1.7623379027    0.9912801599   -1.1824859561
 H    2.7677000165   -2.3927014043    1.3810684113
 H    3.0604738899   -2.3243228663   -0.4249008123
 H    4.0510807818   -0.2063501657   -0.1174613422
 H    1.2290511088    0.9528163347    1.7695180225
 H    0.5914068433   -0.6868209008    2.0602287899