23

 C    0.1055105772    1.5865037444   -0.1490364121
 C   -0.0457214955    0.0758806749    0.0448643373
 C    0.7858099662   -0.4538845732    1.2119645548
 N    0.6345928518   -1.9032984573    1.3446446979
 C    1.3557465328   -2.4884141229    2.4703220532
 C    0.9685661319   -3.9681717955    2.6833526261
 C   -0.4802518768   -4.1594419550    3.1408961745
 C    2.8074603427   -2.3919123994    2.2251694795
 N    3.9486289234   -2.3232987930    2.0576441700
 H    1.1470183122    1.8561818078   -0.3545229251
 H   -0.5011091474    1.9394601951   -0.9880832151
 H   -0.2091837522    2.1373565056    0.7441563787
 H   -1.1038479634   -0.1677491246    0.2157427200
 H    0.2507943112   -0.4572466101   -0.8652911399
 H    1.8467407914   -0.2403192163    1.0337355909
 H    0.5100857954    0.0834432890    2.1397726781
 H   -0.3493258406   -2.1273154851    1.4477901048
 H    1.1705539897   -1.9456198248    3.4189560808
 H    1.1508357964   -4.5066345545    1.7478776286
 H    1.6465304280   -4.3874303845    3.4333180009
 H   -0.6704144362   -5.2136240026    3.3615883244
 H   -0.6908814633   -3.5861751443    4.0504229697
 H   -1.2043055549   -3.8603744737    2.3759086720