15

 O   -0.0191232608    1.4339109031   -0.4264042762
 C    0.0039299491    0.2195093359    0.2763656115
 C   -1.4015267196   -0.3734543920    0.4498885513
 O   -2.1377778673    0.5899661972    1.1982528994
 C   -3.4466767054    0.2065824377    1.5711609528
 C   -3.4467460755   -0.8939687570    2.5512352734
 N   -3.4214744748   -1.7645557364    3.3100109375
 C   -2.0569461846   -0.6365903379   -0.8464404343
 N   -2.6041661158   -0.8558058321   -1.8398736644
 H   -0.5859235738    2.0398651057    0.0642195170
 H    0.6201034283   -0.4785618557   -0.2968251407
 H    0.4365056246    0.3209882041    1.2824815283
 H   -1.3346404367   -1.3218166133    1.0029223068
 H   -3.9099771527    1.0893838874    2.0191819343
 H   -4.0453675350   -0.0903611969    0.6992579135