19

 C   -0.0264994455    1.3861829669   -0.1230095566
 O   -0.0199520287    0.0149443345    0.2056045145
 C   -1.2772142187   -0.6058419754    0.0849138802
 C   -1.7381293763   -0.9290653432   -1.3763748210
 C   -1.8790217567   -2.4587442505   -1.2743884089
 O   -0.5856391049   -3.0496106977   -1.2837475182
 C   -0.0712592931   -2.8110077314    0.0413453484
 C   -1.2307057010   -2.0316731408    0.6853640735
 O   -2.3583289185   -2.6492064414    0.0492101022
 H    0.9843172791    1.7643689664    0.0462534796
 H   -0.2969784189    1.5579788681   -1.1751083133
 H   -0.7291358855    1.9494637717    0.5105624815
 H   -2.0386002037   -0.0111699555    0.6089149116
 H   -2.6902720960   -0.4563949342   -1.6292671316
 H   -0.9844049601   -0.6423825783   -2.1124799222
 H   -2.5187338413   -2.9616957729   -1.9990122587
 H    0.1063336313   -3.7685479902    0.5426838215
 H    0.8530988463   -2.2316660459   -0.0040107132
 H   -1.3129028576   -2.0953817403    1.7685284608