21

 C   -0.0774398287    1.5566529012   -0.3321885931
 C    0.9004064820    0.3927951787   -0.0887124354
 C    1.0746796271   -0.4687403736   -1.2533790030
 C    1.2239036215   -1.1740629291   -2.2198399475
 C    1.3423435843   -2.0214831472   -3.4012451833
 O    0.5145101911   -3.1928131556   -3.3057165844
 C    1.0013821657   -1.2739867129   -4.7145867452
 C    1.9965342074   -0.1729284606   -5.0463101600
 O    1.0011714228   -2.2085352823   -5.7745185550
 H    0.2720294554    2.1937692160   -1.1490400836
 H   -1.0699868490    1.1824366724   -0.5973321139
 H   -0.1699740131    2.1702601503    0.5686279918
 H    1.8783157976    0.7899099852    0.2121187761
 H    0.5503134495   -0.2123832960    0.7573439616
 H    2.3636032663   -2.4105572466   -3.4962515432
 H   -0.3255260767   -2.9159082634   -2.9220515277
 H   -0.0038119171   -0.8331858683   -4.5850801790
 H    3.0058688522   -0.5871144056   -5.1375083507
 H    1.7327067655    0.2884171812   -6.0015242053
 H    1.9976275993    0.5975989330   -4.2713685257
 H    0.5730771469   -2.9998346968   -5.4200578836