13

 N   -0.0411594589    1.2151582996    0.5268878492
 C   -0.0099793669    0.0273674571    0.0767199287
 N    1.1333247073   -0.6569561806   -0.3433541330
 C    1.1311080839   -1.9472510724   -0.8264388806
 N    0.0799259731   -2.6668755586   -0.9458426477
 N   -1.0853489278   -2.0623765105   -0.5528977592
 C   -1.2725869892   -0.7826813361   -0.0472035228
 N   -2.3895287827   -0.2767763334    0.3010869940
 H    0.8918783918    1.6325564929    0.5504386974
 H    2.0119806863   -0.1645191150   -0.2850098902
 H    2.0869735995   -2.3628024892   -1.1185936675
 H   -1.8956983921   -2.6519455921   -0.6585525802
 H   -3.1560981542   -0.9391313218    0.1618693419