20

 C    0.3229942831    1.5498963727    0.1657365419
 C   -0.0911755514    0.0961862581   -0.0598214678
 N    0.5593732878   -0.4937219509   -1.2176397339
 C    1.4922866854   -1.4634291623   -1.2822660089
 N    1.8412729273   -1.6925075647   -2.5334339876
 C    1.0694234592   -0.8054375910   -3.2309611480
 C    1.1014044972   -0.6943078183   -4.7219944974
 C    0.6552447450   -1.9877744912   -5.4212950012
 N    0.2767577842   -0.0586601008   -2.4720089026
 H    1.3977728672    1.6256164979    0.3548074173
 H    0.0833878267    2.1503677098   -0.7145601311
 H   -0.2106224852    1.9618630111    1.0272676056
 H    0.1682812325   -0.5259677030    0.8018306471
 H   -1.1729287576    0.0245844167   -0.2089500471
 H    1.8761470447   -1.9642822212   -0.4053185029
 H    0.4633705993    0.1436386225   -5.0166736612
 H    2.1241460744   -0.4506515512   -5.0336491801
 H    1.2812048656   -2.8277344684   -5.1085564195
 H   -0.3830115596   -2.2290954741   -5.1726927290
 H    0.7301458142   -1.8863331316   -6.5081743237