21

 C    0.0589266864    1.5190288526    0.2664731800
 C   -0.0441884654    0.0380933159   -0.1399744868
 C   -1.4432726425   -0.4887834076   -0.1308573511
 C   -2.1856791333   -0.9634410300   -1.1337872605
 C   -3.5227426595   -1.4499645199   -0.5410883177
 C   -3.6985868200   -0.3503535830    0.5496620763
 C   -2.2962729134   -0.6548612353    1.1552283188
 C   -2.4748890620   -2.1678722244    1.3958384746
 C   -3.2073181305   -2.6414459026    0.3882751588
 H    1.1012088478    1.8528233399    0.2611338121
 H   -0.5055947323    2.1516337751   -0.4254948478
 H   -0.3395605649    1.6876615606    1.2720845228
 H    0.3873467154   -0.0961681621   -1.1386579954
 H    0.5725978206   -0.5599341470    0.5471118906
 H   -1.9015032320   -1.0681873342   -2.1730920986
 H   -4.3362116057   -1.5988107333   -1.2507734422
 H   -3.7820877881    0.6579960184    0.1346913464
 H   -4.5206451953   -0.5530849664    1.2421711765
 H   -1.9748884610   -0.0711018561    2.0180844959
 H   -2.0296418197   -2.7137264796    2.2167982658
 H   -3.4976060245   -3.6649752509    0.1924513714