23

 C    0.1422835157    1.3968929765   -0.5971709375
 C    1.4284302516    1.6264071378    0.2404393979
 C    1.3099266428    0.1762803538    0.7989146162
 C   -0.1623692231    0.1410400692    0.2615839549
 C    2.2295222358   -0.8208231210    0.0758009292
 C    2.0380028545   -2.2397777134    0.6180986868
 O    2.2441029818   -2.2998599627    2.0189371512
 C    1.3421898269   -1.4613090972    2.7211628946
 C    1.4966314348    0.0051145335    2.3087988337
 H   -0.6037074225    2.1946219510   -0.5897896290
 H    0.3608222311    1.1474662920   -1.6387604139
 H    2.3470349718    1.8686332602   -0.3023245238
 H    1.2845483308    2.3759640869    1.0251836791
 H   -0.8911209204    0.3451403133    1.0521965157
 H   -0.4807343192   -0.7606673622   -0.2689672196
 H    2.0462011486   -0.8104927966   -1.0058636923
 H    3.2749008668   -0.5235854900    0.2302009576
 H    1.0259290577   -2.6058478656    0.3711400877
 H    2.7587375569   -2.9317662462    0.1723369572
 H    0.3037402876   -1.7938017554    2.5454103469
 H    1.5601665884   -1.5992498947    3.7843275166
 H    2.5010829035    0.3464958221    2.5926020294
 H    0.7760744181    0.6235688987    2.8584437915