19

 O    0.0679056902    1.5054578005    0.6663448233
 C   -0.0146700652    0.2124326429    0.0629546741
 C    0.8084165267   -0.8038364244    0.8166304874
 C    0.0378805451   -1.6517111410    1.4989123554
 C   -1.4326606835   -1.4027312210    1.2643414356
 C   -1.4427496037   -0.4100812051    0.0835237955
 C   -2.6103026868    0.5797398658   -0.0981400674
 O   -2.8640905302    0.1144077283   -1.4412790141
 C   -1.9121067350   -0.9532249938   -1.2907414463
 H    0.0315519586    1.3811515641    1.6214559633
 H    0.3235460230    0.3768005325   -0.9653845585
 H    1.8913798439   -0.7637217703    0.8417961936
 H    0.3986718032   -2.4294272072    2.1637793236
 H   -1.9864977958   -2.3201173144    1.0330614566
 H   -1.9094235905   -0.9840007813    2.1624682828
 H   -3.4694934190    0.4001279689    0.5632621029
 H   -2.3364156293    1.6387967620   -0.0653313149
 H   -1.1672454179   -0.9612130643   -2.0968630114
 H   -2.4010584739   -1.9369572022   -1.2492229515