19

 C    0.0444381232    1.3685557363    0.3353679546
 C   -0.0394200488   -0.1067001057    0.0235267656
 C    1.2063375645   -0.9241033340   -0.2060877620
 N    0.3976841212   -1.0937866760    0.9844465417
 C    0.7610697247   -0.8713671958    2.2978832968
 O    0.1061581076   -0.1829414909    3.0602339974
 C    1.9748193985   -1.6225515193    2.7553590756
 C    2.9474419718   -0.8502981841    3.5919411640
 N    2.0914744414   -1.8616970510    4.1999294951
 H    1.0005733485    1.6238998819    0.8006300000
 H   -0.0576091559    1.9501380133   -0.5862854115
 H   -0.7494224618    1.6637050805    1.0259200185
 H   -0.9276860742   -0.4088809099   -0.5294088319
 H    1.2010925195   -1.7508525747   -0.9117176018
 H    2.1611415670   -0.4130377623   -0.1014070796
 H    2.3318068596   -2.4209350643    2.1130791934
 H    4.0029758161   -1.1009857923    3.5369542980
 H    2.7180344706    0.1968434676    3.7682706080
 H    1.2965415666   -1.3887657692    4.6325731181