19

 O    0.5261455795   -0.4325423125   -1.2440304760
 C   -0.0563887349    0.1207484465   -0.0675314094
 C   -1.4492974839   -0.3930355541    0.2914280619
 C   -2.2835362303   -1.2529951674   -0.6255294256
 O   -1.7708788165   -1.7216442733   -1.8341122911
 C   -1.7660898181   -1.8350315321    0.6759071298
 C   -0.6787614460   -2.9114438875    0.7186167629
 C   -0.1964987747   -3.4563014141   -0.6136625464
 O    0.8892509249   -3.1956948660   -1.0866378291
 H    0.9479109166   -1.2838692910   -1.0368409254
 H    0.6218966017    0.0011772649    0.7901697471
 H   -0.1357510544    1.1964631009   -0.2576401974
 H   -2.0040938963    0.3495969045    0.8603768561
 H   -3.3499786111   -1.0474938980   -0.6861207291
 H   -0.9614586287   -1.2126063812   -2.0168432656
 H   -2.4980834625   -1.9382765039    1.4711681008
 H    0.2050010270   -2.5556767996    1.2616451531
 H   -1.0796137452   -3.7690890186    1.2730200270
 H   -0.8665658669   -4.1837397974   -1.1088092338