19

 C    0.3940985579    1.3989544593    0.3079658146
 C   -0.2537285777    0.1163935672   -0.2246475589
 C    0.5051492667   -0.4811173701   -1.3925078594
 C    1.7210760039   -1.3599748837   -1.1481966664
 C    0.4391910689   -1.9468743611   -1.6933555848
 O   -0.3577286677   -2.7329719640   -0.8647594258
 C    0.0818650863   -4.0728605101   -0.7867137765
 H    1.4154769655    1.2093812074    0.6546109378
 H    0.4478405702    2.1698790511   -0.4690261775
 H   -0.1757428773    1.8117222831    1.1464734091
 H   -0.3274023436   -0.6299341272    0.5720935558
 H   -1.2847365913    0.3270724351   -0.5367807990
 H    0.5610150846    0.1644952058   -2.2664084693
 H    2.5856241966   -1.2744461461   -1.7976221922
 H    1.9517998285   -1.5888705187   -0.1122429755
 H    0.4296475705   -2.2588285673   -2.7397099844
 H    0.0667750078   -4.5621300860   -1.7728058148
 H    1.1023503727   -4.1436804587   -0.3832351583
 H   -0.6055189125   -4.6001962759   -0.1208876046