23

 C    0.6625825945   -0.4054107971    1.3883404840
 C   -0.0052797520   -0.1590883537    0.0293160293
 C    0.8539423721   -0.5330409151   -1.1547903841
 O    0.1353857792   -0.8004048872   -2.3787139596
 C    0.8758573832   -1.8698355367   -1.7658168447
 C    2.2200623807   -2.1212236598   -2.4171832693
 C    2.8139983851   -0.7018869293   -2.5683030841
 C    2.1979414362    0.1459464403   -1.4251581937
 C    2.0918301124    1.6352735134   -1.7601035785
 H    0.9540402872   -1.4548276302    1.5028002163
 H    1.5615739810    0.2055859645    1.5171986608
 H   -0.0224434294   -0.1575070718    2.2044793824
 H   -0.9362485658   -0.7314412402   -0.0418719219
 H   -0.2898048622    0.8977373640   -0.0547558034
 H    0.2719262424   -2.6938867939   -1.3908528082
 H    2.8264762586   -2.7459201378   -1.7489541228
 H    2.1388258915   -2.6486182120   -3.3729307363
 H    3.9068101227   -0.6968484323   -2.5427112845
 H    2.5070885411   -0.2800060000   -3.5288781017
 H    2.8109398537    0.0256920251   -0.5210938304
 H    1.4221554374    1.7859927716   -2.6132147235
 H    1.7030185001    2.2165377219   -0.9173286131
 H    3.0713752204    2.0488905765   -2.0212643932