20

 C   -0.5971017280    1.3113110913   -0.0768170351
 C   -0.3409772038   -0.1558168285    0.1886371583
 C    0.9631978490   -0.7908862217   -0.2145142140
 C    0.6175729621   -0.6778004586    1.2492220591
 N    1.3926936882   -0.0347116784    2.3292571131
 C    1.1234571619    1.3349561460    2.7227364107
 C    0.9910232229   -1.0841435860    3.3048264437
 C    0.3132369337   -1.8361429095    2.1483264530
 O   -0.2345875774   -2.8923680678    2.0118386050
 H    0.3204375725    1.9025006357   -0.0176062807
 H   -1.0032617636    1.4379821898   -1.0863225568
 H   -1.3186150203    1.7346346140    0.6290103345
 H   -1.2201717796   -0.7884528130    0.0828606343
 H    0.9703171000   -1.7856251720   -0.6485030198
 H    1.7437711754   -0.1244730759   -0.5696360819
 H    0.0603787503    1.5349617377    2.9486405683
 H    1.7077019669    1.5628197114    3.6199366715
 H    1.4439495020    2.0277332982    1.9399557806
 H    1.8231089677   -1.5871880945    3.8074842453
 H    0.2619616202   -0.7491360282    4.0584150207