16

 O   -0.7057613369    0.8320723936    0.5850176087
 C    0.1973976666    0.8885649009   -0.2132709625
 C    1.3607561954    1.8087355321   -0.0815806821
 C    1.7023812832    2.6366157357    1.1932594613
 C    2.5333514522    3.5185175503    0.1952174587
 C    3.5517448201    2.4895502444   -0.3434922891
 N    2.6570998107    1.3028395109   -0.5833792989
 C    1.3710239442    3.2353390902   -0.7665693260
 O    0.6836731888    3.8359920141   -1.5257540741
 H    0.2119626764    0.2651203416   -1.1326403832
 H    0.8418631805    3.1475830772    1.6262029088
 H    2.2757178489    2.1087856848    1.9593453575
 H    2.8775926525    4.5259684188    0.4172079928
 H    4.0264768894    2.8173886537   -1.2734096742
 H    4.3353822512    2.2703528537    0.3882625228
 H    2.9604809268    0.5290712479   -0.0002390005