21

 C   -0.7780943230    1.1768019762    0.1288843821
 C    0.1816655685    0.0156303347   -0.1273448513
 C    1.3092233992    0.2594025809   -1.1415503447
 C    2.4402663854   -0.7253681740   -0.7668023383
 C    2.2261921913   -2.1124064196   -1.3829390344
 O    3.6573378327   -0.1609166471   -1.2470584253
 C    2.3695893358   -0.7660740693    0.7768915750
 C    0.9187874697   -0.4467274186    1.1404746192
 O    0.4292244787   -0.5297006648    2.2377081826
 H   -0.2285220363    2.0836139679    0.4031604813
 H   -1.3761547552    1.4007087835   -0.7593283021
 H   -1.4529585000    0.9305330508    0.9526492176
 H   -0.4086355326   -0.8576345081   -0.4452518482
 H    0.9939147679    0.1457468141   -2.1821071397
 H    1.7050052909    1.2750548095   -1.0265808782
 H    2.2352429039   -2.0458468189   -2.4745554375
 H    3.0221488880   -2.7999307822   -1.0716656442
 H    1.2756863791   -2.5570348027   -1.0703170941
 H    4.3613517640   -0.8032876883   -1.1073995474
 H    2.7007801711   -1.7016994934    1.2364671509
 H    2.9967109010    0.0400620093    1.1778302466