18

 C   -0.3760769162    1.3247332077   -0.1220886256
 C    0.2803022013   -0.0388230870   -0.0803497819
 O    1.6175259605   -0.0183049707   -0.6501630795
 C    2.1822813336   -0.5744792379    0.5551943000
 C    0.8238291402   -0.5438591366    1.2803142367
 C    0.4980678624   -1.9952602357    1.6736778839
 N    1.4851782641   -2.7679821606    0.9377672648
 C    2.5257248428   -2.0642853091    0.3874097989
 O    3.5053313607   -2.5341442745   -0.1449097716
 H    0.2271774801    2.0640408832    0.4137767718
 H   -0.4873498527    1.6593621083   -1.1579290446
 H   -1.3714669309    1.2854799175    0.3344397013
 H   -0.3447228529   -0.7821337559   -0.5957007856
 H    3.0380177992   -0.0001709444    0.9190393347
 H    0.7016138150    0.1590763611    2.1038517095
 H    0.5945914384   -2.1471851604    2.7571430381
 H   -0.5241394422   -2.2746414545    1.3902047594
 H    1.5206385967   -3.7752035305    0.9628305296