18

 C   -0.0953368037    1.5377884712    0.0323879631
 C    0.0505911171    0.0206509649    0.0086184403
 C    1.0816019578   -0.5983390427   -0.9592472084
 C    2.4019941653   -0.0799013026   -0.3748995094
 O    2.1439213543   -0.0822031892    1.0466106385
 C    0.8133303774   -0.6045480891    1.1946077713
 C    0.8418981770   -2.0782739854    0.7748300987
 O    1.0024108560   -1.9991406215   -0.6598137526
 H    0.8354472003    2.0271633994    0.3287517879
 H   -0.3913907024    1.9231476749   -0.9491125672
 H   -0.8681115227    1.8366230638    0.7480201744
 H   -0.9192826216   -0.4618783250   -0.1442601157
 H    0.9403123244   -0.4557456325   -2.0304432018
 H    3.2284875039   -0.7581879077   -0.6111476817
 H    2.6614579929    0.9340465325   -0.7040856409
 H    0.4663277017   -0.3995396235    2.2072874380
 H    1.6912264989   -2.6063793557    1.2214391528
 H   -0.0850215967   -2.6146617118    1.0160943026