17

 O    0.0351751688   -0.0121937540    0.0040912686
 C    0.0015666682    1.1903590533    0.0104712758
 C   -1.2798585640    2.0328800088    0.0317145358
 C   -0.8691021737    3.5360556950    0.0335646503
 C    0.0241603498    3.7114119956    1.2568154630
 C    1.1161911299    2.9487185829    1.2467465408
 C    1.2692632580    2.0928470832   -0.0020315146
 C    1.0830035247    2.9608405637   -1.2378794920
 C   -0.0088136603    3.7234435391   -1.2113456635
 H   -1.8823557242    1.7780547187   -0.8448462294
 H   -1.8587429081    1.7694316727    0.9215383172
 H   -1.7418556391    4.1891216324    0.0484070715
 H   -0.2547949984    4.3786840185    2.0633052057
 H    1.8414621573    2.8849584733    2.0483095895
 H    2.1648970767    1.4754826327   -0.0170111061
 H    1.7865942475    2.9049847693   -2.0591141414
 H   -0.3091289430    4.3985050549   -2.0035555712