14

 N   -0.0312341784    1.3000131267   -0.3040713851
 C   -0.1161481425   -0.0626645242   -0.1320234358
 C   -1.1323464572   -0.9105478766    0.0664013131
 C   -2.6095008324   -0.7215088331    0.0784520180
 O   -2.9815115812    0.3756195234   -0.7542025333
 O   -0.5837778703   -2.1795432440    0.3115020059
 C    0.7642425909   -2.0705084069    0.2242103961
 O    1.5588664703   -2.9449042349    0.3524653085
 O    1.0722123246   -0.7546534609   -0.0495628715
 H    0.6744992502    1.5807617529   -0.9740962502
 H   -0.9393197804    1.6967417078   -0.5147143709
 H   -3.1008598592   -1.6581093593   -0.2215726200
 H   -2.9886167758   -0.4661113317    1.0753108771
 H   -2.7913195186    0.1199433408   -1.6638386821