15

 O    0.0520846528    1.3442790548   -0.2452363488
 C    0.0283434855   -0.0596368394   -0.1188022193
 C   -1.3761215721   -0.5495844268    0.2457295680
 O   -2.3266404405   -0.1488390939   -0.7493896997
 C   -2.5714332948   -1.2679517020   -1.5651487223
 O   -2.2741577548   -2.4272134775   -0.7925938347
 C   -1.4957522761   -2.0571444141    0.2673039168
 N   -0.9597314966   -2.8262634923    1.1073918495
 H   -0.6574357062    1.5771637158   -0.8557356027
 H    0.3661884692   -0.5603432903   -1.0414592372
 H    0.7206396774   -0.3359707459    0.6811251251
 H   -1.6825874358   -0.1065096169    1.1966458612
 H   -3.6277304545   -1.2858022508   -1.8484907591
 H   -1.9354303369   -1.2700066803   -2.4635219471
 H   -1.1637580265   -3.8044164904    0.8985815603