16

 O    0.0262887770   -0.0923467020   -0.0933050593
 C   -0.0540258402    1.1099405799   -0.0688065015
 C    1.1725247850    1.9247417043    0.0984881994
 N    2.1167865841    2.5791032711    0.2310571170
 C   -1.3258201709    1.9184431817   -0.1548413634
 C   -2.5785532434    1.1035032778   -0.5512356199
 C   -3.5654872624    1.3719458495    0.6060758094
 O   -3.1226999920    2.5773207463    1.2186387934
 C   -1.7178627809    2.5115479662    1.2431668604
 H   -1.1492089916    2.7506837606   -0.8429311177
 H   -2.9746345175    1.4613483117   -1.5033640431
 H   -2.3418101280    0.0432331875   -0.6533411719
 H   -4.5969630968    1.5220724103    0.2813421730
 H   -3.5437839792    0.5452495948    1.3326397521
 H   -1.3655344682    1.8461977827    2.0488857350
 H   -1.3218499251    3.5137408474    1.4156618970