20

 C    0.0248667943    1.5585681284   -0.4941624985
 C   -0.0191818798    0.1033930805   -0.0795102929
 C    1.1570031591   -0.7505073846   -0.3024649135
 O    0.8666274775   -0.2366493892    1.0018133321
 C   -1.3992504005   -0.5073462183    0.0097123600
 C   -1.5710650476   -1.9445297864    0.5736372283
 C   -2.8400876545   -1.4596676577    1.3242318229
 C   -2.3484293563    0.0001785051    1.1388537061
 H    1.0509197523    1.9341525799   -0.4802152548
 H   -0.3820316932    1.6871389513   -1.5031278092
 H   -0.5726158074    2.1722998809    0.1882545654
 H    1.0349744350   -1.8268772548   -0.4148612220
 H    2.0435898906   -0.3346709257   -0.7803022806
 H   -1.8899236844   -0.4130706273   -0.9662955541
 H   -1.6803306197   -2.7631222311   -0.1418521077
 H   -0.7612450345   -2.1779192083    1.2698950888
 H   -3.7511785242   -1.6558360260    0.7514243730
 H   -2.9893355715   -1.8166770664    2.3456470444
 H   -1.7707543083    0.3418854896    2.0027545166
 H   -3.0884811569    0.7621535901    0.8829783956