17

 C   -0.0850797848    1.5362038991    0.0107804105
 C   -0.0222864560    0.0279122009    0.0023791124
 C    0.0139643339   -0.6650929287   -1.2082953141
 C    0.1038016877   -2.0554289777   -1.2130229004
 O    0.1341213148   -2.6786172266   -2.4259847023
 C    0.1556002080   -2.7669472772   -0.0137485020
 C    0.1160997469   -2.0685719184    1.1936273347
 O    0.1588132817   -2.7048491074    2.3993937923
 C    0.0262812820   -0.6782114518    1.2049436036
 H    0.9217665273    1.9714402309    0.0016921105
 H   -0.6120091515    1.9186809987   -0.8679302517
 H   -0.5923727317    1.9096531535    0.9047485068
 H   -0.0280205318   -0.1418639990   -2.1567341273
 H    0.1939499801   -3.6296779024   -2.2911441811
 H    0.2208527561   -3.8532152524   -0.0200123119
 H    0.2167762707   -3.6544194744    2.2536649851
 H   -0.0059903934   -0.1653513171    2.1594000950