16

 C   -0.1172341804    0.8393624021   -0.5604094560
 O   -0.4220739167    0.4982082824    0.7922741438
 C    0.4800002669   -0.3250832888    1.3785232623
 C    1.0639052289   -1.5158021330    1.0588494167
 O    0.9052855726   -2.2295570380   -0.0873897793
 N    1.8811312579   -1.9553008096    2.0745013431
 C    1.7990923475   -1.0368956816    3.0133070570
 N    2.5157934843   -1.0227603180    4.2117454912
 N    0.9686698555   -0.0226746585    2.6543879834
 H   -0.0929280699   -0.0523942674   -1.1953287309
 H   -0.9126358478    1.5079412024   -0.8959073877
 H    0.8506970961    1.3518564456   -0.6265297863
 H    1.4836798475   -2.9965940126   -0.0043050494
 H    1.9215347986   -0.9433048967    5.0301850309
 H    3.0615035657   -1.8734299231    4.2801299691
 H    0.8065796934    0.8404298749    3.1441207421