13

 O    0.0277225074    1.4006847489    0.0589523699
 C    0.0223125540    0.0174806786   -0.0042888559
 C   -1.3278431407   -0.6434902646    0.0734708652
 C   -2.5678856512    0.1846418900    0.1851232682
 O   -3.5108230085   -0.1620708201    0.8496127805
 C   -0.5250004500   -0.6657096319   -1.2440713157
 C   -0.9179998311    0.1476455296   -2.3594516978
 N   -1.1927912486    0.8068854076   -3.2694659650
 H    0.6844948258    1.7436371099   -0.5580825866
 H    0.8469056533   -0.4874436282    0.4975176840
 H   -1.3915220928   -1.5911403413    0.5957421892
 H   -2.5630934764    1.1353505437   -0.3799355641
 H   -0.1026349414   -1.6265443325   -1.5182738720