10

 N   -0.0473158278    1.3722505583    0.0105329372
 C    1.2764945807    1.7467043870   -0.0009478088
 N    2.1376275277    0.7370903907   -0.0145461449
 C    1.3144821032   -0.3430941563   -0.0123199700
 C   -0.0141807131   -0.0033953710    0.0025938894
 N   -0.7648683654   -1.1255437579    0.0039336381
 N    0.0016790295   -2.1316364730   -0.0096436509
 O    1.4255308785   -1.6585407971   -0.0201353492
 H   -0.8449534169    1.9849085944    0.0218953313
 H    1.5596304537    2.7890279250    0.0018505076