19

 C   -0.1103259463    1.4502123459   -0.0158738936
 C   -0.0699397208   -0.0397815608    0.0573036220
 C   -1.0211220307   -0.9446531653    0.2711303505
 C   -2.4243816619   -1.3891480231   -0.0635850862
 C   -2.3773298200   -1.7890708158   -1.5240603455
 C   -1.8400030968   -2.7575123089   -0.5136695588
 C   -0.4841628898   -2.3260794538    0.0986732779
 O    0.7539935700   -2.1822514175   -0.5785821162
 C    1.1970895106   -0.8507254409   -0.2582002998
 H    0.5156887057    1.9088570805    0.7607606585
 H    0.2744353469    1.8107146786   -0.9784777573
 H   -1.1282920913    1.8274489850    0.1112082967
 H   -3.3490713335   -1.1839741321    0.4588851476
 H   -3.3299204734   -2.0748057169   -1.9607390136
 H   -1.7090589860   -1.2644386008   -2.1997259567
 H   -2.2756291230   -3.7405777894   -0.3848108628
 H   -0.3479121041   -2.8722010416    1.0469293927
 H    1.7281797816   -0.4422543303   -1.1278159419
 H    1.9110967528   -0.8760018529    0.5831820165