15

 O   -0.1033960165    0.0109448057    0.3497351568
 C   -0.0261188826    1.1405717888   -0.0291414288
 O   -1.0500020449    1.7642036138   -0.7097053094
 C   -0.8825808469    3.2001005828   -0.7902971796
 C    0.5325757053    3.4404929329   -0.3316362390
 C    1.2626942255    4.1936263754    0.8018864197
 C    1.8447395831    2.8113850731    1.2858372140
 C    1.0676382610    2.1515241451    0.1355010642
 O    1.4851611570    2.7294612565   -1.1058468133
 H   -1.0743024240    3.5002819296   -1.8231799724
 H   -1.6136779168    3.6778718541   -0.1298164405
 H    1.9751085939    4.9495728386    0.4682646768
 H    0.5754450456    4.6314870949    1.5282790531
 H    2.9266284073    2.6802399386    1.2440547021
 H    1.4759842631    2.5205298501    2.2704000964