18

 C   -0.0489526699    1.5249855507   -0.0674158484
 C    0.0066819300    0.0034275912   -0.0193249483
 C    1.3314015793   -0.7044252502   -0.2162076753
 C    0.7140071070   -0.7004118276    1.1699826074
 C    1.3539034548    0.1020803521    2.2946381825
 C    0.1343743231   -1.9416471113    1.6252972404
 N   -0.3065681137   -2.9298816983    2.0337849214
 C   -1.1687109330   -0.6339276963   -0.5534572900
 C   -2.1645107825   -1.1298100638   -1.0087131871
 H    0.8855910918    1.9821619567    0.2629820187
 H   -0.2344000984    1.8477447862   -1.0958602768
 H   -0.8631599534    1.9057357768    0.5557642962
 H    1.3332770497   -1.6338695871   -0.7714945302
 H    2.2107747006   -0.0833506359   -0.3509797901
 H    1.8610695243    0.9894058084    1.9131439781
 H    0.6066479299    0.4177499287    3.0283169638
 H    2.0969294070   -0.5116280704    2.8122819876
 H   -3.0397493667   -1.5882967099   -1.3981163100