14

 N   -0.6869615250   -0.3668685365   -1.1571927993
 C   -0.2419922009    0.3053127993   -0.3306209849
 C    0.3127620549    1.1471313947    0.7303273840
 C    1.6167797939    1.7901544784    0.3443573182
 N    2.7056481575    1.6651382984    0.9794832682
 C    3.6912768312    2.4921802477    0.2619627502
 C    2.9135235575    3.0695301227   -0.9507850719
 O    1.5646101619    2.5727137355   -0.7602689113
 H   -0.4181816728    1.9283362600    0.9708544364
 H    0.4810247001    0.5497551929    1.6287347762
 H    4.0727313244    3.2723229533    0.9286525132
 H    4.5428377376    1.8751387815   -0.0397922440
 H    2.8723117470    4.1610073675   -0.9724442138
 H    3.2744626628    2.7058254745   -1.9162144813