18

 C   -0.0043182346    1.4747580057    0.0688367917
 C    0.0783036286   -0.0330240412   -0.0631641204
 O    1.1340145419   -0.6191103771   -0.1265766378
 C   -1.2583837312   -0.7754724463   -0.1250699804
 C   -1.0897989090   -2.2679617995    0.0379409023
 N   -1.3365627378   -2.8286542766    1.3579984640
 C   -2.2304367070   -3.2252413875    0.2481334065
 C   -3.6402369635   -2.7594081600    0.3600216760
 O   -4.5621899885   -3.2663493241   -0.2282801130
 H    0.9859686582    1.9151275643   -0.0518507225
 H   -0.6970627250    1.8961087739   -0.6675929473
 H   -0.3977115905    1.7337954250    1.0590405554
 H   -1.9336246010   -0.3706954275    0.6355092919
 H   -1.7136495336   -0.5377971688   -1.0975372498
 H   -0.2559815303   -2.6716510800   -0.5304128217
 H   -0.6863241982   -3.5798174835    1.5705524961
 H   -2.1253674116   -4.2096575613   -0.2015741081
 H   -3.7822086967   -1.8954817155    1.0459655671