16

 O    0.0708527191    1.4626733741   -0.0517408062
 C    0.0356982532    0.0777435434   -0.0225009521
 C    0.9922807924   -0.5151436786   -1.0244220834
 O    1.6711614329    0.1993007250   -1.7281586085
 C   -0.0152827995   -0.6069467534    1.3658344594
 C   -1.5164523238   -0.2570840632    1.5971801382
 C   -1.7886846770   -1.7325417582    1.8731341182
 N   -0.7354464550   -1.8479034604    0.7722494214
 C   -1.3527932856   -0.5996336147    0.0854641789
 H    0.7261804828    1.6879179010   -0.7328658623
 H    1.0365776782   -1.6162001855   -1.0775841310
 H    0.7736588703   -0.7216051738    2.1110947161
 H   -1.9364353417    0.6478362903    2.0410634836
 H   -1.4623891036   -2.1508232920    2.8307417921
 H   -2.7619807481   -2.1437127890    1.5866445459
 H   -2.1324213644   -0.7057273249   -0.6707856902