16

 C    0.0785987885    1.3987086410   -0.0481464451
 N   -0.0594231740   -0.0355237701    0.0606124392
 C   -1.2551222988   -0.6921656539    0.0276077643
 C   -2.5000769299   -0.0338513163    0.0817897874
 N   -3.6417913655   -0.7165567301    0.0728861325
 C   -3.5865510568   -2.0425124190    0.0082637906
 C   -2.3446036706   -2.6877293066   -0.0527405462
 O   -2.3042155983   -4.0330356483   -0.1248869275
 N   -1.1944177685   -2.0338620847   -0.0460418983
 H    1.1402117523    1.6511747289   -0.0268023331
 H   -0.3521506532    1.7977347146   -0.9775730008
 H   -0.4022285987    1.9090159372    0.7947431191
 H    0.7430711071   -0.6156459979   -0.1204789264
 H   -2.5674997582    1.0469051367    0.1335405962
 H   -4.5116839597   -2.6076515682   -0.0001028085
 H   -1.3684368659   -4.2755006934   -0.1557115935