20

 C   -0.1300775988    1.5478364932   -0.0696214777
 C   -0.0759014148    0.0274244327   -0.0360141885
 O   -1.3495525763   -0.5537951773   -0.2089327666
 C    1.0900654829   -0.5838990364   -0.8732850680
 N    1.8849506019   -0.6558889759    0.3685385648
 C    2.7488429138   -1.8104655677    0.5479039674
 C    3.3957561915   -1.8135912392    1.8576736888
 C    3.9100547043   -1.8287467211    2.9433421908
 C    0.6603705139   -0.5588496778    1.1914822308
 H    0.8621426706    1.9706773722    0.1098476886
 H   -0.4755873144    1.9045778772   -1.0485864566
 H   -0.8172663818    1.9222985197    0.6956598144
 H   -1.8042268471   -0.0814442654   -0.9144617159
 H    0.7939550059   -1.5695189084   -1.2662698240
 H    1.5391234871    0.0139765089   -1.6748822881
 H    2.1964419062   -2.7638150918    0.4209713078
 H    3.5146930202   -1.7895745047   -0.2387684384
 H    4.3713785753   -1.8392274295    3.8995794527
 H    0.7522359823    0.0589730569    2.0896085502
 H    0.2301003672   -1.5360876658    1.4583694274