15

 C   -0.0618783440    1.5591231228   -0.0910108270
 C   -0.0440184504    0.0354672362    0.1210455966
 C    0.6604968865   -0.3265530507    1.3572977739
 N    1.2278671246   -0.5824995339    2.3297564926
 N   -1.3921915076   -0.5248339490    0.1350472647
 C   -2.1720736511   -0.9586405728    1.1512015758
 N   -3.3534181590   -1.3249222293    0.6922799802
 C   -3.2431137093   -1.0848815461   -0.6424328683
 N   -2.0764197142   -0.5989963483   -1.0338716264
 H    0.9597454931    1.9380406017   -0.1692654613
 H   -0.6003371814    1.7745884576   -1.0153833067
 H   -0.5623917692    2.0566625095    0.7427592427
 H    0.4789447492   -0.4389009578   -0.7161988624
 H   -1.8349085928   -0.9973935264    2.1755665506
 H   -4.0392878244   -1.2771499934   -1.3459633550