19

 O   -0.2324619296    1.4367724913   -0.4087796363
 C   -0.0891484089    0.1911211348    0.2654900773
 C   -1.3895667806   -0.5578049855    0.1208251486
 C   -1.8315484131   -1.1682660386   -1.1884536940
 C   -0.7893644357   -1.3691906113   -2.2705098877
 C    0.2653606012   -2.3154113141   -1.6731823929
 O    1.3311721006   -2.5776818432   -2.1659049199
 C   -0.2593896531   -2.8761263035   -0.3384548039
 C   -1.4937129850   -2.0636483489   -0.0006900288
 H    0.5789356396    1.9386520407   -0.2831718735
 H    0.7538103855   -0.3794472833   -0.1496741807
 H    0.1277597370    0.3418593996    1.3349323963
 H   -2.1978705733   -0.1013019855    0.6857394015
 H   -2.8615588965   -1.0196540455   -1.4897266846
 H   -1.2184442818   -1.8509487547   -3.1574392301
 H   -0.3086031629   -0.4453344024   -2.6062628963
 H   -0.5232948809   -3.9295595171   -0.4980614097
 H    0.5379880140   -2.8645448156    0.4110457402
 H   -2.2837695565   -2.5519047974    0.5579759445