18

 O   -0.0864023282    0.0046164217    0.3484696310
 C   -0.0668599513    1.1663332722    0.0883271747
 C   -1.1373285061    2.2402889076   -0.3076352479
 N   -0.0052019033    3.0286989964   -0.8322001036
 C    0.4022233943    4.4323878991   -0.6125728954
 C    1.7321780359    4.1477319154    0.1426665241
 C    1.2075236523    3.1936975562    1.2514199847
 C    0.9790075774    2.2859755744   -0.0080262135
 C    2.3119961983    2.8445197937   -0.5485185241
 H   -1.8829934694    1.9446064233   -1.0507956910
 H   -1.6492585779    2.6416014823    0.5817271079
 H    0.5325705192    4.9574156156   -1.5642704075
 H   -0.2939012428    5.0108184808    0.0094160180
 H    2.3737767547    4.9987996853    0.3724054543
 H    1.9913912110    2.8090740599    1.9052493300
 H    0.3369677675    3.5061772079    1.8338640268
 H    2.4256649255    2.8316413328   -1.6334852090
 H    3.2112632128    2.4923968456   -0.0424273196