18

 C    0.1024164053    1.5393960259   -0.1921927989
 C    0.1197836604    0.0205681611   -0.0141262355
 O    0.8732445906   -0.3525493429    1.1408508879
 C   -1.3040440825   -0.5512856643    0.0420755302
 C   -1.5980429034   -2.0569078812    0.0250983944
 C   -1.1309916906   -2.7454135204    1.2355728675
 N   -2.4130810767   -1.9669438660    1.3244262302
 C   -2.0075889202   -0.5783425341    1.4124486959
 O   -2.2135242313    0.2221992928    2.2736336887
 H    1.1225904480    1.9309083048   -0.1650470087
 H   -0.3540724835    1.8218185967   -1.1461486360
 H   -0.4770340574    2.0104380833    0.6102335566
 H    0.6518620376   -0.4436028938   -0.8528363191
 H    0.5461944068    0.1758984162    1.8794662015
 H   -1.9467909571   -0.0353212677   -0.6801160906
 H   -2.0174707094   -2.5855223411   -0.8225268584
 H   -1.3086589008   -3.8127561082    1.3141095223
 H   -0.2588209056   -2.3742744813    1.7611211419