19

 C    0.1515754254    1.4431076185    0.2942402636
 C    0.0772372564   -0.0406094546    0.0354943048
 C   -0.9879800757   -0.8797752436    0.6489032536
 N    0.3923515305   -0.9524259823    1.1633356367
 C    1.1499148589   -2.0927885037    0.6098724505
 C    0.9893358441   -2.0684849645   -0.9414017628
 C    0.7094021174   -0.5845939223   -1.2424195653
 C    2.5603149864   -1.9497426596    1.0018081770
 N    3.6775587827   -1.8518171207    1.2792740462
 H    1.1885280872    1.7932216866    0.2534208054
 H   -0.4224045249    1.9960091480   -0.4576653389
 H   -0.2506690678    1.6871111549    1.2804304577
 H   -1.6920214542   -0.4308721897    1.3434128056
 H   -1.3886049790   -1.7232338181    0.0921183225
 H    0.7790211061   -3.0281439159    1.0423474527
 H    1.8729034877   -2.4521560620   -1.4533935107
 H    0.1461745509   -2.7004178066   -1.2296398430
 H    0.0718717275   -0.4511936474   -2.1213862666
 H    1.6443663702   -0.0454980870   -1.4319976690