25

 C   -0.3213376453    1.7320670805   -0.1764051719
 C   -0.0736863094    0.2639875743    0.1802373431
 C   -1.3249812418   -0.6000540733    0.0629597103
 C   -1.1480676810   -2.0760692730    0.4264438291
 C   -2.5679493033   -2.4737462812    0.8549333979
 C   -2.6756704424   -3.7748467436    1.6477824872
 C   -3.0547561748   -1.1862153702    1.5695581876
 C   -2.8377816962   -1.1369388045    3.0813379524
 O   -2.3267197453   -0.1100741556    0.9624973621
 H    0.5910984091    2.3261030222   -0.0663405052
 H   -0.6633348716    1.8341269788   -1.2125678402
 H   -1.0903612086    2.1580614572    0.4730853132
 H    0.6981566624   -0.1584831187   -0.4763211925
 H    0.3031495702    0.1860239459    1.2077002363
 H   -1.7110934416   -0.5246987888   -0.9692286906
 H   -0.7676994698   -2.6741525988   -0.4061423484
 H   -0.4465633925   -2.1811981630    1.2639606073
 H   -3.1699371182   -2.5796925493   -0.0571410267
 H   -2.0559474412   -3.7531446937    2.5495060777
 H   -3.7082659998   -3.9734141757    1.9549057144
 H   -2.3452358928   -4.6234641010    1.0400161414
 H   -4.1228854423   -1.0254959744    1.3670726766
 H   -1.7983105077   -1.3547798739    3.3469300231
 H   -3.0723513466   -0.1328540989    3.4454168591
 H   -3.4864145194   -1.8494357513    3.6011342867