23

 C    0.1371838080    1.6066058582   -0.1341041297
 C    0.0183156203    0.0878008417    0.0148380610
 C   -1.4137319751   -0.4277712124   -0.1923488198
 C   -1.5101848495   -1.9436110420   -0.0973722902
 C   -1.4862250903   -2.7339308857    1.2421240547
 C   -2.9249777072   -2.2797891938    1.5678262566
 C   -2.8566179147   -2.7188945381    0.0777025301
 C   -3.9624501648   -2.9495007628   -0.9048266103
 O   -2.0525335319   -3.8944399143    0.5199016007
 H    1.1668398420    1.9438819018    0.0204301020
 H   -0.1733500715    1.9316011656   -1.1334391907
 H   -0.4961875987    2.1272864064    0.5928677369
 H    0.6865801818   -0.4057429740   -0.7026497572
 H    0.3697944054   -0.2125851215    1.0104351874
 H   -2.0794214320    0.0617896814    0.5277478455
 H   -1.7648032834   -0.1174604091   -1.1866386727
 H   -0.8775754675   -2.4317046317   -0.8462247205
 H   -0.6545814221   -2.9292008036    1.9195974793
 H   -3.4809067368   -2.9608222767    2.2140045297
 H   -3.1145693487   -1.2307061840    1.8035710015
 H   -4.4604430985   -2.0043663410   -1.1442036394
 H   -3.5691679727   -3.3781518948   -1.8317616731
 H   -4.7071404619   -3.6372962296   -0.4926984418