17

 O    0.0045224350    1.4433870849    0.0336470406
 C    0.0269433167    0.0500986902    0.0391024737
 C   -0.3922414220   -0.7314228363   -1.1886791748
 C   -1.2566729360   -0.7478811805    0.0548442344
 C   -1.0762975005   -1.9139117976    1.0422431335
 C    0.3723909493   -1.7507470048    1.5022072114
 C    0.9475835083   -0.6731129114    0.9707056830
 C   -2.0238259386   -1.8887961274    2.1544255233
 C   -2.8018510468   -1.8632441232    3.0703273400
 H    0.6644057541    1.7519808066   -0.5961640818
 H   -0.7860186801   -0.1543240558   -2.0197901400
 H    0.1724505969   -1.6166555465   -1.4647458937
 H   -2.2119663172   -0.2413966039    0.0157083432
 H   -1.1937965430   -2.8720635238    0.5153392705
 H    0.8374732114   -2.4673107089    2.1678299660
 H    1.9660099835   -0.3456243034    1.1474649560
 H   -3.4882895310   -1.8401896482    3.8800630746