19

 C    0.3655237453   -1.2327361211    0.0642200168
 C    0.1777786021   -0.0455652268    0.0377612420
 C   -0.0596912405    1.3999625373   -0.0064971936
 C   -0.9698232152    1.8714396907    1.1551366593
 C   -0.4388714526    1.6382262450    2.5454613562
 C    0.7704304763    1.9344558492    3.0157039023
 C    1.9403597975    2.5771952879    2.3250713819
 C    2.0295939769    2.6531444312    0.8266034935
 C    1.2463521278    2.1657281231   -0.1330385675
 H    0.5384596472   -2.2798025651    0.0920132270
 H   -0.6232985647    1.5985600896   -0.9292101036
 H   -1.1687149707    2.9398056965    0.9995986565
 H   -1.9321489658    1.3604887561    1.0517597427
 H   -1.1444586632    1.1907994662    3.2415956562
 H    0.9629794133    1.7143999324    4.0646110846
 H    2.0543081216    3.5986829475    2.7271865181
 H    2.8566708112    2.0716791343    2.6698111622
 H    2.9255873197    3.1765860194    0.4937096996
 H    1.5717420438    2.3124081665   -1.1603008341