12

 N   -0.0527098485    1.2546315355    0.3797685717
 C   -0.0046681340    0.0300697588    0.0313820978
 N    1.1331200627   -0.6974809273   -0.2950938224
 N    1.2240052035   -2.0083530303   -0.6729111547
 C    0.1141086601   -2.6430007464   -0.7317801846
 N   -1.1105516791   -2.0776936774   -0.4418011049
 C   -1.2953596217   -0.7564528168   -0.0500352916
 O   -2.3864884191   -0.3090702938    0.1937231730
 H    0.8768676753    1.6798347301    0.3988380143
 H    2.0260021589   -0.2296980823   -0.2600999897
 H    0.1213212313   -3.6846485568   -1.0251430394
 H   -1.9544471493   -2.6304846334   -0.5051650696