16

 C   -0.0552235838    1.5037855450   -0.0405646759
 C    0.0551344535    0.0087382201   -0.0317669792
 C   -0.6940629875   -0.9247962460   -0.9896706488
 C   -1.0252452042   -1.7404327738    0.2679149238
 O   -1.7500555232   -2.6380939120    0.5422308829
 N   -0.3307004634   -0.8249321359    1.1919125781
 C    1.0923619544   -0.7139226188    0.7633291498
 C    1.8766918882   -1.8626103897    0.2230602998
 O    1.3989542560   -2.8655009488   -0.2467437018
 H    0.5164049483    1.9281841555   -0.8731447907
 H   -1.0992681618    1.8117190407   -0.1576182963
 H    0.3255478892    1.9309255061    0.8908067594
 H   -1.5879661965   -0.4619245867   -1.4165138678
 H   -0.1329209452   -1.4324835939   -1.7740369073
 H    1.6602767440   -0.0876410250    1.4484044729
 H    2.9770354421   -1.7136239167    0.2691082412