12

 O   -0.0550959379   -0.0680431423    0.0244271417
 C   -0.0177532086    1.1429444726    0.0164852428
 N    1.1336113157    1.8665953971   -0.0115476136
 C    2.4176013230    1.2229271103   -0.0254692642
 C    3.5144298437    2.2589435279   -0.0165573829
 O    3.3227027095    3.4495619539   -0.0020726646
 C    4.8810839579    1.7105466080   -0.0283918654
 N    5.9504788025    1.2716380779   -0.0375920100
 H   -0.9165370170    1.7878270359    0.0305902230
 H    1.1239111321    2.8759327670   -0.0081633886
 H    2.5543662739    0.5556200031    0.8385866412
 H    2.5502793553    0.5789450585   -0.9080100696