19

 C    0.2117051124    1.5668688073    0.1572655197
 C   -0.1401675889    0.0965791829   -0.1207165218
 C    0.5578646963   -0.4599391785   -1.3220147600
 C    0.0268475324   -0.9126058686   -2.4998869091
 O   -1.2282582199   -1.0412190962   -3.0013027171
 N    1.0818153824   -1.3064876188   -3.2859627171
 C    2.2294801463   -1.0792462878   -2.5596725024
 C    3.5929266635   -1.3842426879   -3.0803597956
 N    1.9406878866   -0.5750860263   -1.3860593208
 H    1.2932855236    1.6755341024    0.2730827763
 H   -0.1015560373    2.2095675288   -0.6719601766
 H   -0.2729445333    1.9246803459    1.0715151103
 H    0.1160813959   -0.5050395957    0.7608651922
 H   -1.2281346220   -0.0045500327   -0.2447820092
 H   -1.8501159677   -0.7370710606   -2.3325860153
 H    1.0019075107   -1.6882979618   -4.2134952265
 H    3.8256542470   -0.8143007004   -3.9881456352
 H    4.3211289977   -1.1186976595   -2.3127939785
 H    3.7156903743   -2.4476482726   -3.3192342133