18

 C   -0.1113220949    1.4499477808    0.2066554105
 C    1.3268605066    1.9696600267   -0.0442267108
 C    2.1020208114    0.7924193022   -0.6871252595
 C    2.5045892209    0.9559416301   -2.1881692819
 N    3.9725315762    1.0327148939   -2.2093945627
 C    4.3347495983    0.8441876314   -1.0102325814
 O    3.4136392810    0.6535909288   -0.0403413553
 C    1.2317356054   -0.3982848701   -0.3929217866
 C    0.0360310102   -0.0458595058    0.0730367848
 H   -0.5021177980    1.7482056334    1.1860142775
 H   -0.8218808669    1.8374408513   -0.5353419733
 H    1.3555403789    2.8705839058   -0.6619295449
 H    1.8149853645    2.2051580358    0.9049288580
 H    2.1736724322    0.1041625011   -2.7931884649
 H    2.0682830982    1.8574680241   -2.6304805496
 H    5.3624440117    0.8168306730   -0.6632984052
 H    1.5696851039   -1.4069088743   -0.6020202983
 H   -0.7681695596   -0.7344558282    0.3085201336