18

 C   -0.1589254080    1.4221726796    0.0035397841
 N    1.1898539217    1.9679850999    0.2372645850
 C    2.0179921795    1.0603075561   -0.0924067390
 O    3.2741921954    1.0032221535    0.4144990042
 C    3.2736143786   -0.0949334314    1.3869007534
 C    1.8435201457   -0.5000044898    1.8324964912
 C    1.0203248704   -0.9205045137    0.5987543918
 C    0.0343505714   -0.0759272673   -0.2429867971
 C    1.4619406385   -0.2190627250   -0.6610157492
 H   -0.7603460111    1.6451642114    0.8926288171
 H   -0.6599370705    1.8999852641   -0.8493317491
 H    3.7747210045   -0.9573147733    0.9298239097
 H    3.8746425049    0.2552445380    2.2298445387
 H    1.9384921597   -1.3386781648    2.5296993557
 H    1.3806321211    0.3215602408    2.3848157553
 H    0.8230437048   -1.9857517366    0.5170882747
 H   -0.7534742777   -0.6381860726   -0.7311622190
 H    1.8728076910   -0.7013956289   -1.5390084674