19

 C   -0.3030713979    1.4549349187    0.0810885418
 C    0.0669729205   -0.0083624486    0.0509190250
 C   -0.7891235617   -0.9188055798   -0.8277570746
 C   -1.5618127414   -1.9999260921   -0.0653190028
 O   -2.5893466074   -2.4605637021   -0.5016700594
 C   -0.9704851028   -2.4652928904    1.2633909342
 C    0.5223674002   -2.1343399320    1.4225643710
 C    0.7568163765   -0.6502758911    1.1853127261
 O    1.4784374521   -0.2809063648    0.0055460851
 H    0.3563796563    2.0058385053    0.7560657689
 H   -0.2154977926    1.8944046619   -0.9187017299
 H   -1.3382157004    1.5879857969    0.4140407728
 H   -1.5064290982   -0.3595162341   -1.4330683608
 H   -0.1231123556   -1.4414231222   -1.5265467734
 H   -1.5448735780   -1.9589505998    2.0522013398
 H   -1.1795705687   -3.5330245991    1.3718993828
 H    0.8694829178   -2.4288166928    2.4170611565
 H    1.1176611470   -2.6979065399    0.6966894735
 H    0.9949547541   -0.0427593040    2.0587676233