19

 C   -0.0662694357    1.5450094735    0.1012441977
 C   -0.0211650721    0.0419400536    0.0971146792
 C    0.9052515619   -0.7623719361   -0.9083216383
 C    1.9988814087   -0.8370399168    0.1801078550
 C    0.7806235128   -0.8746907725    1.1140924779
 C   -0.2063233116   -1.9517648954    0.4999202920
 O    0.3168224721   -2.0777100406   -0.8290753074
 C   -1.2662373557   -0.8386815717    0.2951220042
 O   -1.9338976649   -0.4112941803    1.4649009898
 H    0.9356488325    1.9841571342    0.1556099114
 H   -0.5452965350    1.9258483232   -0.8087426634
 H   -0.6428050371    1.9028531895    0.9594461242
 H    1.0820555597   -0.4760190911   -1.9444085850
 H    2.6818366900   -1.6885633436    0.1303960981
 H    2.5534375461    0.0978315199    0.2941126876
 H    0.8031207448   -0.7219447866    2.1893950342
 H   -0.4191039730   -2.9246193894    0.9427497757
 H   -1.9530440494   -0.9856110664   -0.5498209485
 H   -2.5920111541   -1.0759554834    1.6911432154