21

 C   -0.1268294813    1.5355860900    0.0422201574
 C    0.0031197580    0.0294177589    0.0494168028
 O   -1.1640699033   -0.6404691870   -0.3597930860
 C    1.3242304377   -0.6315308006   -0.2764107093
 C    0.7662289335   -0.6853916491    1.1315572023
 C    1.4127399008    0.0437003640    2.3135257313
 C    1.4766393105   -1.0664566622    3.3759916115
 O    0.3433391690   -1.8798264202    3.1225814467
 C    0.2498401603   -2.0111884762    1.7107985864
 H    0.7897368110    2.0226221251    0.3854153197
 H   -0.3343478985    1.8984953024   -0.9720191087
 H   -0.9519724147    1.8543632270    0.6876383216
 H   -1.2814035365   -0.4830447140   -1.3031184947
 H    1.2837824110   -1.5476608497   -0.8590780033
 H    2.1907938559   -0.0054150147   -0.4693115013
 H    2.3972153354    0.4582209341    2.0788472317
 H    0.7756271625    0.8616039157    2.6656937425
 H    2.4080213329   -1.6487178721    3.2712663278
 H    1.4107481141   -0.7025238416    4.4044322978
 H   -0.7901033131   -2.2153060975    1.4514490897
 H    0.8723508150   -2.8513034124    1.3607853840