21

 C   -0.0221224739    1.4353593932   -0.0526577371
 C   -0.0387034252   -0.0827763459   -0.0400070259
 C   -1.2982770037   -0.6657308786    0.5702541452
 C    0.7145530671   -0.7395706109   -1.1391988088
 N    1.3181140517   -0.6094140268    0.2597406245
 C    1.2421189748   -2.1130193684    0.3896904640
 C    0.7038837791   -2.2469792287   -1.0345532108
 C   -0.1683024952   -3.2330148615   -1.7115771800
 N    1.2799095246   -3.1691951981   -2.0045245158
 H    0.9271220587    1.8089677422   -0.4440089778
 H   -0.8377324626    1.8294618181   -0.6687080323
 H   -0.1436098084    1.8264500030    0.9632338810
 H   -2.1771952385   -0.2170267436    0.0954668661
 H   -1.3793676591   -1.7465187082    0.4514829093
 H   -1.3471021099   -0.4306341294    1.6397787195
 H    1.1117791499   -0.1848196763   -1.9871482447
 H    2.2504827226   -2.5201023871    0.4886757488
 H    0.6221053848   -2.4690663494    1.2175870627
 H   -0.4847136606   -4.1338627543   -1.1919877969
 H   -0.8731401677   -2.8673946601   -2.4547949744
 H    1.4381674017   -2.6960491291   -2.8919430466