16

 C   -0.0447985684    1.3943481479   -0.1343842013
 N   -0.0121599030   -0.0425662821   -0.0162437569
 C   -1.2230814635   -0.8476701740    0.0232947400
 C   -0.7031799703   -2.2774921905    0.0121409809
 N    0.0594213206   -2.5796836614   -1.2096198292
 C    0.7759615518   -2.2147948753    0.0433004744
 C    1.1611822195   -0.7538325352    0.0517221885
 O    2.2791362150   -0.2858782980    0.1174850199
 H    0.9874935814    1.7484342102   -0.1228502343
 H   -0.5254535557    1.7073448739   -1.0699282864
 H   -0.5902066046    1.8494609416    0.7022991134
 H   -1.8034299821   -0.6414210390    0.9342936651
 H   -1.8642819963   -0.6429435459   -0.8439825008
 H   -1.2672198833   -3.0581470846    0.5084261504
 H    0.1157463083   -3.5902793486   -1.3230717097
 H    1.4186532407   -2.9329872691    0.5358685760