20

 C   -0.1905233807    1.5925835813   -0.0435380363
 C    0.0045729439    0.0851362119    0.0017509203
 C    1.1911372301   -0.6205244984   -0.7544195000
 C    2.1594960582   -0.1014401123    0.3555925638
 C    0.8695340469   -0.5971704668    1.1023238175
 O    0.5799941556   -0.5672814448    2.4489126860
 C    0.9238788245   -1.8195473095    0.1673963871
 C    0.1771328350   -3.0750241627    0.0599713808
 N    1.6380691179   -3.0554054976    0.4027639134
 H    0.7344764359    2.1590532770    0.0851669104
 H   -0.6323075639    1.8908203516   -1.0005304925
 H   -0.8805743534    1.9037723707    0.7477859396
 H   -0.9551581612   -0.4205653815   -0.1526752360
 H    1.3685270655   -0.6357238667   -1.8278787082
 H    3.0644774491   -0.6913557984    0.5181658382
 H    2.3717897876    0.9669480378    0.3754598593
 H    1.1501229215   -1.2107590804    2.8865298681
 H   -0.4686688648   -3.4109282122    0.8670185202
 H   -0.1093669013   -3.4312838285   -0.9265845533
 H    2.1842556735   -3.3272021505   -0.4120620483