19

 O    0.0124990736    1.3396797032    0.3819824667
 C   -0.0813036161   -0.0750579377    0.3913283239
 C   -1.3089724813   -0.4573074583   -0.4325785830
 C   -1.4778941504   -1.9524279307   -0.5177130905
 O   -1.9246511801   -2.6397384342    0.6615701975
 C   -2.7640441889   -2.6711800124   -0.4991267487
 C   -4.1249122250   -2.0167386458   -0.3825818392
 C   -5.0468564426   -2.8275034832    0.5112205635
 O   -6.1528890453   -3.1872159410    0.2020928572
 H    0.7525498097    1.5964926615    0.9395620057
 H    0.8188136345   -0.5402301605   -0.0434072752
 H   -0.1948536199   -0.4687743684    1.4124193071
 H   -2.1851799148    0.0175435614    0.0162836749
 H   -1.1970879228   -0.0482252866   -1.4441652071
 H   -0.6558307190   -2.4667343808   -1.0219096656
 H   -2.7847815153   -3.6450183815   -0.9930763750
 H   -4.0235222481   -1.0229903002    0.0685229737
 H   -4.5940125888   -1.9102144142   -1.3653844122
 H   -4.6143915294   -3.0711667106    1.5065716564