13

 O    0.0893521910    1.3210808808    0.0642537012
 C    0.0548243401   -0.0333610453    0.0198601103
 C    0.0269767889   -0.8025733011   -1.1153633040
 N   -0.0035258736   -2.1239361366   -0.7029700389
 C    0.0045703929   -2.2056179979    0.6523907076
 C    0.0411183557   -0.9124980433    1.1551602131
 C    0.0623317686   -0.4691834815    2.4932144442
 C    0.0821480479   -0.0023454765    3.6059865285
 H    0.1027781416    1.5791828561    0.9946171834
 H    0.0261540859   -0.5285090981   -2.1557972572
 H   -0.0279694235   -2.9125850978   -1.3239697015
 H   -0.0155284181   -3.1508951066    1.1682949091
 H    0.0985256226    0.3787923479    4.5965508742