18

 C    0.0166393732    1.5563603013    0.0139653677
 C    0.0179365813    0.0549354816   -0.0393923250
 C    0.5359026730   -0.9162382585   -1.1547186071
 C    0.8533147934   -1.8932948122   -0.0855054410
 C    0.7532161694   -0.8330216202    1.0157613178
 O   -0.1282567904   -1.1240358704    2.0795644245
 C   -1.4379902456   -1.2398908637    1.4921409905
 C   -1.2421272950   -0.8418728272    0.0335802300
 N   -0.5008830347   -1.9051531761   -0.7488509316
 H    1.0295756333    1.9606301596   -0.0895605212
 H   -0.5980026323    1.9872541842   -0.7840170402
 H   -0.3838568514    1.9065513498    0.9721161547
 H    0.8968162529   -0.7945999596   -2.1663902536
 H    1.4221923336   -2.8133634757   -0.1184091406
 H    1.7005465461   -0.4649864165    1.4109435764
 H   -1.8022892828   -2.2721648848    1.5721232822
 H   -2.1296356951   -0.5794855014    2.0295857682
 H   -2.1369441390   -0.5245219803   -0.5033119219