19

 C   -0.0355887769    1.5808160399    0.1738610845
 C   -0.0357296587    0.0688308740   -0.0587412752
 N   -1.3731697355   -0.4956731724   -0.0716078930
 N   -2.0267274011   -0.7528983900    1.0935484740
 C   -3.2208730313   -1.1911536725    0.7139661096
 C   -3.3790027094   -1.2224176239   -0.6909403163
 C   -4.5531788544   -1.6574216057   -1.5127756418
 C   -2.1558982964   -0.7583370867   -1.1428140547
 O   -1.6641142071   -0.5349496186   -2.3860966926
 H    0.9914040501    1.9568401207    0.2152216982
 H   -0.5597705899    2.1001453356   -0.6337888350
 H   -0.5318707104    1.8169729444    1.1185583839
 H    0.4322740385   -0.1793443691   -1.0147622776
 H    0.5157985112   -0.4418508357    0.7349120740
 H   -3.9467447364   -1.4781004721    1.4626505619
 H   -4.6699240773   -1.0459563369   -2.4171790923
 H   -4.4860644574   -2.7045869356   -1.8354666148
 H   -5.4830190282   -1.5558857635   -0.9455646661
 H   -2.3099718093   -0.8461330317   -3.0283438168