19

 C    0.0285699117    1.4787062333    0.0913068980
 C   -0.0291521190   -0.0254338168   -0.0408224339
 C    0.6847478413   -0.6922279790   -1.2364999225
 C    0.4297295307   -2.1216718190   -0.7142237654
 C    0.9855354767   -1.9652425090    0.7220753104
 O    0.6485387630   -0.6202770726    1.0907299764
 C   -1.0940606353   -2.1052481699   -0.5529595631
 O   -1.8609869384   -3.0142516599   -0.7263092296
 C   -1.4322012523   -0.6679121799   -0.1114340489
 H    1.0675519157    1.8194047553    0.1184379408
 H   -0.4768772621    1.9599005360   -0.7512738381
 H   -0.4602217710    1.8017097110    1.0151923503
 H    0.2098176723   -0.4858543681   -2.1994311521
 H    1.7446888534   -0.4294119466   -1.2848469417
 H    0.8158124087   -2.9746520662   -1.2690470463
 H    0.5437893224   -2.6733310488    1.4327775161
 H    2.0757997735   -2.0931282104    0.7373877780
 H   -1.9552413602   -0.6582478938    0.8482478606
 H   -2.0764649612   -0.1900751556   -0.8584037291