16

 N   -0.1053892460    1.2769296430   -0.3892251607
 C   -0.0436016292    0.0656563272   -0.0452774486
 O    1.1052518604   -0.6112839172    0.2731202760
 C    0.8369289661   -1.9972534549    0.5201954911
 C    0.4270170592   -2.3333329735    1.9855367426
 C   -1.0514263243   -2.3637217443    1.5431480651
 O   -1.6231186088   -1.0366986532    1.4730252379
 C   -1.2218483084   -0.8739110154    0.0825353952
 C   -0.6208238427   -2.2864553373    0.0534857710
 H    0.8235390875    1.7033969433   -0.3844024083
 H    1.6587776502   -2.5724609196    0.0948621113
 H    0.7874009341   -3.3248591249    2.2766087417
 H    0.6944056748   -1.6015086921    2.7498656889
 H   -1.7391440646   -3.0868137405    1.9840553104
 H   -2.0606979515   -0.5968083105   -0.5559393718
 H   -0.8360006068   -2.9958192698   -0.7404404718