21

 C   -0.3688042342    1.4281609418   -0.0687334737
 C    0.0526259738   -0.0418755691   -0.0030445048
 O    0.8670349336   -0.3990658174   -1.1207704610
 C    0.8474430625   -0.4253276742    1.2596782279
 C    0.9523875043   -1.9495970298    1.4010413161
 C    2.2330818001    0.2287621421    1.2584937626
 O    2.8677247716    0.0136029436    2.5291231657
 C    4.1034935810   -0.5149236233    2.5460875950
 O    4.7142121444   -0.7027166997    3.5555324229
 H    0.4948735931    2.0968032019   -0.1202625278
 H   -0.9801969032    1.6075797008   -0.9607013310
 H   -0.9718943662    1.7026754545    0.8027655494
 H   -0.8628761412   -0.6559555732   -0.0009188604
 H    0.3801066366   -0.1977533560   -1.9255662300
 H    0.2981034845   -0.0277160190    2.1221888831
 H    1.5208756958   -2.2242939016    2.2928463072
 H   -0.0418894081   -2.3989673045    1.4878650749
 H    1.4415867547   -2.3826152134    0.5234129562
 H    2.8487729724   -0.1828831554    0.4516899946
 H    2.1642521107    1.3109364596    1.1178845719
 H    4.4811431941   -0.7534358678    1.5322770214