16

 C   -0.0270661114    1.5579265602    0.0404808610
 C   -0.0337988686    0.0217402011    0.0547359250
 C    0.7163268473   -0.5199974472    1.1882607044
 C    1.3570129877   -0.9399911239    2.1124988719
 N   -1.4095460116   -0.4908890774    0.0355376856
 N   -2.3111517755   -0.1515027045    0.9473503603
 C   -3.3966783060   -0.8357133584    0.5810390276
 C   -3.0906494260   -1.5783461521   -0.5669134089
 N   -1.8181584542   -1.3455309389   -0.8961248580
 H    1.0041098057    1.9176660662    0.0214826984
 H   -0.5509366094    1.9248996993   -0.8458722486
 H   -0.5217557276    1.9436137500    0.9332787324
 H    0.3967986084   -0.3595244397   -0.8755886575
 H    1.9157361564   -1.3221772995    2.9309976659
 H   -4.3148539270   -0.7608754574    1.1413748474
 H   -3.7026813381   -2.2439540777   -1.1540167470