13

 N   -0.0477155727    1.3392255926    0.0107918275
 C   -0.0169840876    0.0568276851    0.0033815561
 C    1.1968115447   -0.7754847397   -0.0084429948
 N    1.2513406112   -2.0661770447   -0.0160562112
 N    0.0664116195   -2.7197432518   -0.0127864959
 C   -1.1415580846   -2.1074438036   -0.0022010587
 C   -1.2432079300   -0.7486233702    0.0060733633
 C   -2.5277009929   -0.1370188143    0.0171069098
 N   -3.5875777300    0.3291746729    0.0259951341
 H    0.8993750622    1.7231841575    0.0073854667
 H    2.1610233601   -0.2724587112   -0.0112703139
 H    0.1468723497   -3.7228331824   -0.0189078299
 H   -2.0060876296   -2.7597729500   -0.0007890031