20

 C   -0.8345683247    0.2992973411    0.5414412708
 C    0.4421445189    0.5229657535   -0.2682589642
 N    0.5956524858   -0.5268729032   -1.2740766109
 C    1.7141380024   -1.0604704348   -1.4466215899
 O    2.9353863947   -0.8584450649   -0.8393904562
 C    3.5005995681   -2.0615954596   -1.4878704001
 C    3.8407038472   -3.1407110065   -0.4885923865
 C    2.1808827610   -2.2209963860   -2.2972098514
 O    1.4762585585   -3.4263913892   -2.1496713629
 H   -1.7045309212    0.2488413308   -0.1195910621
 H   -0.7811868304   -0.6397185579    1.1013581190
 H   -0.9855453221    1.1142582791    1.2562627670
 H    0.3724881877    1.4827891766   -0.7964656099
 H    1.3130321728    0.5857656834    0.3975508065
 H    4.3656646945   -1.7661835451   -2.0877616421
 H    2.9529102263   -3.4504364982    0.0667225382
 H    4.2377727526   -4.0174967445   -1.0094599818
 H    4.5979946216   -2.7814997472    0.2139225340
 H    2.3021515985   -1.9656995291   -3.3577004776
 H    0.5832838776   -3.1947641884   -1.8689484699