14

 O    0.0421144440    1.4544258882   -0.1010645133
 C    0.0638534108    0.0711665504    0.0069325725
 C    0.2811410123   -0.6233250612    1.4084126446
 O    1.2053917672   -0.6975259230    2.1594635125
 C   -1.0736464800   -1.2925283263    1.3235436311
 N   -2.0241827317   -0.1532915748    1.1165495701
 C   -1.2909152997   -0.6874053905   -0.0520611505
 C   -1.9359675416   -1.2577672923   -1.1790323960
 C   -2.4707187825   -1.7177834482   -2.1538003121
 H   -0.6513167741    1.7657059200    0.4959409228
 H    0.7909583548   -0.3191197811   -0.7115649351
 H   -1.4157535156   -2.2418909733    1.7146261643
 H   -2.9642881452   -0.5486068842    1.1064055356
 H   -2.9402502988   -2.1280341537   -3.0138312465