16

 N    0.0859792329   -1.2887611758    0.3454720280
 C    0.0606291998   -0.1335399672    0.2923443826
 C   -0.0166625223    1.2971170263    0.2051690203
 C    0.5212000404    2.1631694297    1.3382770601
 C    1.2503524039    2.1253939990    0.0328916318
 N    2.4930757459    1.4227162314   -0.0025139970
 C    3.1705852642    1.3405603820   -1.2937371181
 C    3.6956307266    2.2247937090   -0.2163938609
 H   -0.9017201068    1.6569511575   -0.3086614775
 H   -0.0531468692    3.0435024515    1.6011865038
 H    0.9874611854    1.6404403212    2.1641779703
 H    1.1433354385    2.9908515558   -0.6275838231
 H    3.6452230947    0.3889185188   -1.5106142347
 H    2.6986618688    1.8226597889   -2.1479751300
 H    3.5754595830    3.2985643038   -0.3486865674
 H    4.5627321443    1.9312912880    0.3674583418