21

 C    0.0181594734    1.4999010272    0.0155587663
 C    0.0192402591    0.0434691511    0.0006496768
 C    0.0179038902   -1.1614371554   -0.0067132136
 C    0.0181532862   -2.6262760228   -0.0272092047
 C    0.6873068441   -3.1242071639   -1.3331894826
 C    0.7124799045   -3.2346020402    1.2407480887
 C   -0.1398143755   -4.4620280114    1.6470356689
 C   -1.4643483494   -4.1944220133    0.9736326393
 C   -1.3894414820   -3.2045823329    0.0893120413
 H    0.6701150484    1.8913533737    0.8046337794
 H    0.3710995309    1.9103655858   -0.9372333056
 H   -0.9878735822    1.8964810872    0.1931707661
 H    1.7022859531   -2.7247938257   -1.4202702013
 H    0.7363055288   -4.2177563685   -1.3404338273
 H    0.1191538143   -2.8004601874   -2.2101109992
 H    1.7596884503   -3.4808566472    1.0469365727
 H    0.6919663638   -2.4921732499    2.0417706845
 H    0.2938641393   -5.4068937306    1.2906102250
 H   -0.2275719588   -4.5606197416    2.7349300273
 H   -2.3542908064   -4.7800514990    1.1780087511
 H   -2.1957793522   -2.8437392854   -0.5390101929