17

 C   -0.0753007861    1.5473129136    0.0437051374
 C    0.0060966679    0.0535020024   -0.0176103534
 C    0.0696019055   -0.7727839702   -1.1170008093
 O    0.0059895784   -0.6775126353   -2.4660569899
 C    0.2603536151   -2.0163461541   -2.9687771959
 C    0.0292590938   -2.9923185403   -1.7798744572
 N    0.1646035753   -2.0484774968   -0.6948983402
 N    0.1250680000   -2.1640894701    0.6538711616
 C    0.0486391532   -0.8931829091    1.0498606168
 H    0.8734773596    2.0023890986    0.3527064832
 H   -0.3334922806    1.9639208949   -0.9338411489
 H   -0.8390517386    1.8772880061    0.7558375766
 H   -0.4092481683   -2.1925748238   -3.8113140213
 H    1.2987821741   -2.0604791145   -3.3138115287
 H   -0.9672998704   -3.4498680842   -1.7919167183
 H    0.7815730903   -3.7836557778   -1.7430065594
 H    0.0303678310   -0.6718547195    2.1086537770