10

 N   -0.0019970127   -1.1353278806   -0.0037005573
 C   -0.0244735699    0.0214131611    0.0031710031
 C    0.0017448714    1.4442563227    0.0108613512
 N   -1.1330799396    2.1554797218    0.0295580559
 N   -0.7148422520    3.4234267649    0.0313309491
 C    0.6365755265    3.5553733598    0.0146020667
 C    1.1472484112    2.2785064081    0.0007767423
 H   -1.4050820224    4.1566251311    0.0444244790
 H    1.1140959911    4.5218521922    0.0139015340
 H    2.1808438165    1.9772031389   -0.0142863140