16

 N    0.2271580179    1.3296137192   -0.2496255548
 C    0.0126046987   -0.0409981043   -0.1120344013
 C   -1.1364913680   -0.7983315652    0.0334890823
 C   -0.6650542090   -2.1155985663    0.2184151526
 N    0.6581208172   -2.1923019009    0.1874799162
 N    1.0595604246   -0.9031682356   -0.0046049498
 C    2.4730534439   -0.5847139846   -0.0466508082
 C    2.9054514411   -0.0253796657   -1.3289443393
 C    3.2424702253    0.4681563995   -2.3717045613
 H    0.9022726635    1.5569778650   -0.9722088261
 H   -0.6347865744    1.8321186529   -0.4113014268
 H   -2.1549270927   -0.4468694022   -0.0016341987
 H   -1.2453534250   -3.0149958302    0.3672161649
 H    2.7154076125    0.1220304921    0.7576323504
 H    2.9944606276   -1.5218587765    0.1627708978
 H    3.5568730568    0.8766263530   -3.3006962079