17

 C   -0.0203337318    1.5184352550    0.0524474726
 C   -0.0799246926    0.0276544472    0.0016266009
 C    0.0590994084   -1.0182564832    1.0705479921
 C   -0.4810986305   -2.0756886883    0.0197581664
 C    0.9682854807   -2.0859384969   -0.5021245734
 N    1.2078896097   -0.7598773924    0.1754473223
 C   -1.0375112690   -0.8626797353   -0.7112259027
 N   -2.0228412522   -0.5821835181   -1.4538820852
 O   -2.7623638824   -1.7427005693   -1.7779640501
 H    0.7093331168    1.8437119949    0.7979867569
 H    0.2792583066    1.9265567348   -0.9179432852
 H   -0.9999296582    1.9338268793    0.3067419879
 H    0.0634340220   -0.9521315727    2.1506874774
 H   -1.0835249645   -2.9633253742    0.1862104747
 H    1.6043990670   -2.8310802406   -0.0181541725
 H    1.1264541353   -2.0966836373   -1.5857568656
 H   -3.4682013254   -1.3815292929   -2.3244081367