20

 C   -0.0022288431    1.5917501265   -0.1489343086
 C   -0.0227902233    0.0678010346    0.0709195305
 C   -1.4050427009   -0.5162835771    0.0572609513
 C   -2.1199580827   -1.0222934518    1.1213302216
 N   -3.3526484651   -1.4139567030    0.6692582342
 C   -3.4627642732   -1.1872499626   -0.6894012558
 C   -4.6818021564   -1.5091268281   -1.4835315833
 C   -2.2665114860   -0.6284131336   -1.0776395322
 O   -2.0014321117   -0.2204791777   -2.3630693086
 H    1.0225939949    1.9773936598   -0.1656777361
 H   -0.4830700192    1.8554203990   -1.0961967472
 H   -0.5493395888    2.1029302509    0.6489297306
 H    0.6009031941   -0.4106904225   -0.7000629208
 H    0.4616082241   -0.1717727510    1.0242135142
 H   -1.8418918058   -1.1327436352    2.1576112875
 H   -4.0720583932   -1.8251180361    1.2364819684
 H   -5.5454221054   -0.8905399212   -1.2054240354
 H   -4.4746161338   -1.3287867066   -2.5408499869
 H   -4.9834167574   -2.5590221803   -1.3759502238
 H   -1.0496286072   -0.2471254037   -2.4987193597