24

 C   -1.1542065764    0.9595690545   -3.3159164801
 C   -0.4386769583    0.9162481094   -1.9585305930
 C    0.7084319759   -0.0869108706   -1.9023283988
 C    2.0463023643    0.3224688099   -2.4368768094
 N    1.8511190145    0.1223014307   -1.0056027519
 C    1.9341772704    1.2782780704   -0.1279763830
 C    0.2761158314   -1.5292040441   -2.0100950037
 C    1.1531306353   -2.6511726396   -1.5255966422
 C   -0.1003169330   -2.2974227563   -0.7650065760
 H   -0.4541878783    1.2044245653   -4.1217255410
 H   -1.6236463391    0.0025978750   -3.5615573694
 H   -1.9420388727    1.7193134754   -3.3127970027
 H   -0.0663635429    1.9193654755   -1.7318351855
 H   -1.1634308575    0.6669208157   -1.1726613843
 H    2.6870532425   -0.3992208793   -2.9380972935
 H    2.1509696024    1.3485630471   -2.7912606031
 H    1.6604263352    2.2366666870   -0.5953941410
 H    1.2903453931    1.1256585214    0.7443428799
 H    2.9661212175    1.3683511157    0.2272594863
 H   -0.3164574064   -1.7433205307   -2.8948840723
 H    1.1674452006   -3.5708770157   -2.1001985698
 H    2.0948104003   -2.3717296257   -1.0687810101
 H    0.0319891050   -1.7918826695    0.1857097009
 H   -0.9481752337   -2.9724347614   -0.8047074362