18

 C   -0.1494907773    1.4062033822    0.0741291773
 N    0.0228229140   -0.0340924195   -0.0465312939
 C    0.0127468786   -0.8448104986    1.1487160724
 C   -1.4275430293   -1.0570766885    1.7131323385
 N   -2.3750316792   -1.6980740404    0.8082589983
 C   -1.3304818359   -1.8276815399    2.9608696563
 N   -1.2000733237   -2.4401752564    3.9315197939
 C    0.2371563652   -0.5891576040   -1.2807033286
 O    0.2501410202    0.0149210794   -2.3297355744
 H    0.5931816038    1.8232177297    0.7637213229
 H   -0.0145275052    1.8387190124   -0.9171383992
 H   -1.1487301054    1.6675321822    0.4414050541
 H    0.4417499055   -1.8249474763    0.9164788510
 H    0.6426439731   -0.3838111112    1.9197522947
 H   -1.8398853536   -0.0745365984    1.9749602418
 H   -2.4537224713   -1.1492780542   -0.0424209435
 H   -2.0475001230   -2.6229135494    0.5440943483
 H    0.4058050134   -1.6816477689   -1.2117983498