18

 C   -0.2433475244    1.5587166371   -0.0629571580
 C    0.0172207685    0.0523327898    0.0271325531
 C    0.9397269049   -0.4734851936   -1.1312153042
 N    1.7625237672   -1.5840076896   -0.5576828226
 C    1.7455626220   -1.3205150060    0.8116709206
 C    0.7891146590   -0.4291326223    1.2289802400
 C    0.9010833742   -0.4345786051    2.6337892890
 N    1.8681630892   -1.2537598894    3.0500839125
 N    2.3711939579   -1.8081726403    1.8990064624
 H    0.6934831536    2.1212379540    0.0059967084
 H   -0.7334341577    1.8207015882   -1.0073025513
 H   -0.8947994191    1.8900068908    0.7516142380
 H   -0.9508853143   -0.4657212660   -0.0335060957
 H    0.3696762962   -0.8345900341   -1.9909625090
 H    1.5891060968    0.3461510164   -1.4701773412
 H    2.6796476220   -1.6593151740   -0.9813149918
 H    0.3412865890    0.1228810128    3.3712850162
 H    3.1259438350   -2.4675449186    1.9679124536