17

 O   -0.0945387865    1.3319320044   -0.0288310245
 C    0.0368755491   -0.0381887932   -0.0706273839
 C    0.5818538378   -0.9429215079   -1.1936745529
 C    0.0715657026   -1.9097071394   -0.1052231515
 C    0.5409699757   -0.9990597557    1.0754161803
 C   -0.8407036699   -1.0220763297    1.7543191843
 C   -1.1732472108   -0.9967463708    0.2409947168
 C   -2.4461780221   -1.0056593599   -0.4120011818
 C   -3.5204154200   -1.0128945587   -0.9547499215
 H    0.7795377841    1.7284070855   -0.1140899591
 H    0.0342312367   -0.9333987875   -2.1401160236
 H    1.6640369705   -0.9268523172   -1.3610348858
 H    0.0579591479   -2.9970304036   -0.1061177025
 H    1.5346512525   -1.0035320619    1.5235629820
 H   -1.1138179704   -1.9353833576    2.2905510626
 H   -1.1284377982   -0.1334629712    2.3215353901
 H   -4.4679573589   -1.0146774757   -1.4336357790