14

 N    0.0143026111    1.4319993723    0.0592275662
 C    0.0474598328    0.0362479379    0.0139281981
 C    0.9199910416   -1.0134473533    0.7731837538
 C   -0.2106141454   -1.9760985130    0.7584283986
 C   -1.0932291993   -0.9597941089   -0.0059310446
 C   -0.0515463586   -1.0152183348   -1.1224152146
 C   -0.1641449554   -0.8730189834   -2.5219566237
 N   -0.2586410630   -0.7069409594   -3.6656480773
 N    0.8094508822   -2.0104051393   -0.3490357742
 H    0.6921386880    1.8736661102   -0.5517641891
 H   -0.9035896844    1.8192935697   -0.1166151484
 H    1.8034126722   -0.9363390208    1.3943232918
 H   -0.4413392989   -2.8432438060    1.3643897678
 H   -2.1585637830   -0.7901826912   -0.0779062144