17

 O   -0.0755721490    0.0660361464   -0.4258447483
 C   -0.0895367947    1.2170749382   -0.1062951393
 C   -1.1782683982    2.2885688560    0.1421134406
 C   -0.0025153164    3.2901473518    0.0719163878
 N    0.9806837132    2.1442152786    0.0582430743
 C    1.6262943939    2.6334466021   -1.2092741582
 C    0.5462187085    3.7278447594   -1.2988877747
 C   -0.2081319749    4.2348111340   -2.4663340856
 N    0.7882884349    5.0780514475   -1.7750057029
 H   -1.9300456475    2.3422218535   -0.6477367439
 H   -1.6776376961    2.2274854222    1.1123849414
 H    0.0990086784    4.0134842998    0.8851762154
 H    2.6325071232    3.0212033069   -1.0329924488
 H    1.6520975817    1.8785105801   -1.9992951805
 H    0.0713419468    3.9290685705   -3.4708939361
 H   -1.2653509553    4.4537634471   -2.3352906115
 H    0.3271334215    5.7595600360   -1.1764117895