19

 O    0.0821781249    1.4590404012    0.1435481259
 C   -0.0436990708    0.0601467832    0.0257850975
 C    0.2249343685   -0.7142408126    1.3310100003
 N   -1.1169901667   -1.3969636354    1.2731469773
 C   -2.0975664256   -0.2979296335    1.3342679021
 C   -1.4508398636   -0.5626106954    0.0309432047
 C   -2.1137515042   -1.0898301341   -1.1873876360
 C   -3.5446310424   -1.4732917506   -1.2303532223
 N   -3.0986175334   -0.2492916802   -1.9158195707
 H   -0.0972076115    1.8549616808   -0.7159240445
 H    0.5522836024   -0.3246517238   -0.8124414812
 H    1.0319575276   -1.4455457474    1.2643983685
 H    0.3655268313   -0.0902497290    2.2186705760
 H   -3.1137310879   -0.6481497040    1.4817806103
 H   -1.8433841040    0.6094929759    1.8777881249
 H   -1.4408019565   -1.6148984605   -1.8635868057
 H   -3.8542288661   -2.2787021489   -1.8899782675
 H   -4.1394754557   -1.3804536331   -0.3271673363
 H   -3.3301897362    0.5529947975   -1.3322171833