15

 C   -0.0084043571    1.4354166695    0.0859915161
 N    0.1267252619   -0.0029457600   -0.0359525208
 C    0.5210287114   -0.6061656528   -1.1916182660
 O    0.7964556457   -0.0198289202   -2.2231389885
 C    0.5870043040   -2.0614003799   -1.0835764793
 C    0.6558334254   -3.2643295071   -1.0410219303
 C    0.7193123175   -4.7190801224   -0.9249217770
 N    1.1120580834   -5.3384632774   -2.0718743873
 O    0.4441043668   -5.3020323960    0.1051100747
 H    0.6622260623    1.8310457011    0.8563430993
 H    0.2562613748    1.8723905442   -0.8771175224
 H   -1.0371662176    1.7154312916    0.3368891607
 H   -0.0754421940   -0.5912756482    0.7563551573
 H    1.3311906506   -4.8192656690   -2.9042725843
 H    1.1814992649   -6.3430326534   -2.0754649220