14

 C   -0.0324260955    1.4105508688    0.0101562727
 O   -0.0323977312   -0.0282608946    0.0022679832
 C   -1.2290617788   -0.5989396557    0.0106340582
 O   -2.2922323475   -0.0276351003    0.0239171441
 C   -1.1249987706   -2.1404968088    0.0011986901
 O   -0.0773180875   -2.7196348283   -0.0119993223
 C   -2.4987591863   -2.8169238959    0.0105130271
 C   -2.4196224829   -4.2707317343    0.0020615098
 N   -2.3770551647   -5.4241638700   -0.0044464192
 H    1.0162821689    1.7029095074    0.0023294011
 H   -0.5491074833    1.7934748725   -0.8729586079
 H   -0.5331539352    1.7837421601    0.9065215393
 H   -3.0562632722   -2.4662641521    0.8868500779
 H   -3.0725214831   -2.4570767188   -0.8514969041