23

 C    0.0508212095    1.5170672869    0.1990754450
 C   -0.0369653240    0.0273217577    0.0818960701
 C    0.2243217689   -0.7151689312   -0.9965087675
 C    0.0504702308   -2.1940834079   -0.7684550000
 C    1.3171307026   -3.0658427015   -1.0167440337
 C    1.4546523655   -3.9289797253    0.2511642531
 C    0.9776986314   -2.9905222738    1.3692545914
 C   -0.2553158930   -2.2847572589    0.7693707040
 C   -0.4828333383   -0.8301064067    1.2487886559
 H    0.7554827431    1.8116545394    0.9876774436
 H    0.3760892625    1.9791685456   -0.7371280408
 H   -0.9187762925    1.9524950224    0.4741568415
 H    0.5421451026   -0.3115382196   -1.9538237682
 H   -0.7837367302   -2.5843253854   -1.3654602742
 H    1.2478077771   -3.6609161531   -1.9317856906
 H    2.1967317418   -2.4195905291   -1.1183383903
 H    0.7897875110   -4.7999516448    0.1886476514
 H    2.4700512225   -4.3068354555    0.4052153182
 H    0.7567703086   -3.5066599743    2.3086088478
 H    1.7587133861   -2.2485282708    1.5820039421
 H   -1.1416381501   -2.8995783942    0.9510655665
 H    0.0787496566   -0.6021307665    2.1655778885
 H   -1.5372387925   -0.6338129834    1.4886948261