19

 C   -0.0016431834    1.5579427642    0.1748390301
 C    0.0181987983    0.0357379663   -0.0199194789
 C   -1.3605250402   -0.5583659367   -0.0253217216
 C   -2.1213342434   -1.0016361707    1.1963636122
 C   -1.8616371914   -1.9917893245    0.0854261196
 C   -2.8231418388   -1.6834884507   -1.0717238765
 N   -2.2643651732   -0.3010066235   -1.1642243407
 C   -2.5976376367   -2.4609768325   -2.2927843179
 N   -2.4241791245   -3.1003422738   -3.2394318310
 H    1.0122026614    1.9678674767    0.1583873203
 H   -0.5692280024    2.0439591406   -0.6254201347
 H   -0.4616270240    1.8304240944    1.1305431865
 H    0.5099623366   -0.2075619524   -0.9687125731
 H    0.6036825403   -0.4372658191    0.7773386198
 H   -1.5253667699   -1.1629150095    2.0896432161
 H   -3.1314323101   -0.6444113319    1.3887587506
 H   -1.3149194746   -2.9157310979    0.2146440240
 H   -3.8883109718   -1.7455031735   -0.8150472632
 H   -2.9565742022    0.4265543546   -1.0020144317