12

 N   -0.0947775295    1.3002033864    0.0096706730
 N    1.0667884001    1.9275549325    0.0024730455
 H    1.0005338983    2.9365942244    0.0087077569
 N    2.3051506616    1.4630639907   -0.0115185459
 C    2.4515224293    0.1416577826   -0.0202311284
 C    1.3282528829   -0.6842376243   -0.0144926004
 N    1.1327705638   -2.0020891699   -0.0200491581
 C   -0.2343758062   -2.0811898797   -0.0078822237
 N   -0.9470441519   -0.9471978360    0.0049938968
 C    0.0321494699   -0.0162940819    0.0011624160
 H    3.4733239409   -0.2201405496   -0.0316604624
 H   -0.7239168893   -3.0479592453   -0.0087679092