16

 C    0.0552162252    1.4928238115    0.1520511064
 C   -0.0563096465   -0.0228554573   -0.0079816238
 C   -1.4928862515   -0.5159791027    0.1204044789
 O   -2.3691553809    0.1092927360    0.6852244811
 N   -1.7273590129   -1.7456217969   -0.4503454896
 C   -3.0059709998   -2.4074231897   -0.2984328405
 C   -2.9038747000   -3.6670320657    0.4505298314
 N   -2.8057933586   -4.6691875027    1.0167511368
 H    1.1034304816    1.8031521219    0.1483010439
 H   -0.4597042933    2.0132872610   -0.6603117917
 H   -0.4046498668    1.8098055268    1.0899717580
 H    0.3642707585   -0.3530535776   -0.9653587107
 H    0.5264739311   -0.5311425208    0.7721607033
 H   -0.9634476728   -2.2585177414   -0.8596831052
 H   -3.6514101967   -1.7059533325    0.2397457350
 H   -3.4697923265   -2.6160751200   -1.2699450635