12

 C   -0.0409777259    1.4415111737   -0.2157100990
 C    0.0379354267    0.0278526794    0.3634128269
 N   -1.2615161231   -0.6233657297    0.4440652680
 C   -1.6098594889   -1.6928739270   -0.3203904596
 O   -0.8910025987   -2.2483938203   -1.1239204868
 H    0.9545200048    1.8951647271   -0.2495054547
 H   -0.4460066080    1.4222730848   -1.2314437579
 H   -0.6813469173    2.0881935770    0.3944927566
 H    0.6549740081   -0.6150462907   -0.2676742258
 H    0.4933707539    0.0513127674    1.3611385143
 H   -1.9609265402   -0.2357543993    1.0575550553
 H   -2.6515080316   -2.0150515524   -0.1193446672