19

 C   -0.3620906996    1.2269400739    0.8925544689
 N   -0.0138581525    0.1751149306   -0.0593484954
 C   -1.1557969265   -0.7263687983   -0.3237507025
 C   -1.0384984410   -1.9023641199    0.6527275958
 N   -0.0940803283   -2.9242508565    0.2238559693
 C    0.3859128891   -1.8787289956    1.1530994534
 C    1.0628583039   -0.6972750973    0.4586802565
 C    0.6514066605   -2.2796363568    2.5522863671
 O    0.2953567656   -3.3372715902    3.0214215206
 H    0.5060797144    1.8727435525    1.0553580199
 H   -1.1624813829    1.8453441667    0.4756470728
 H   -0.6993301369    0.8551594042    1.8789587973
 H   -2.0985550374   -0.1861936322   -0.2128133875
 H   -1.0941001840   -1.1119563551   -1.3473123659
 H   -1.8512556238   -2.1785335174    1.3170725432
 H   -0.2398776802   -3.7671722329    0.7842117244
 H    1.6708928921   -1.0711853881   -0.3716532548
 H    1.7135193949   -0.1350690754    1.1348451732
 H    1.2033926525   -1.5338533621    3.1637454837