17

 O    0.0973348998    0.0395956921    0.2204122824
 C    0.0368079715    1.2271702982    0.1222882552
 C   -1.0879709338    2.2676463965   -0.0347014597
 C   -1.3709304864    2.8291171251    1.3640852566
 N   -0.0625655054    3.0302252704    2.0152696363
 C    0.9361475981    3.4543218285    1.0309557186
 C    0.3173604909    4.3594704299   -0.0651181139
 N   -0.0975472797    3.1305609249   -0.8254008087
 C    1.0203431080    2.3632077393   -0.0985303397
 H   -1.9926562367    2.0039087181   -0.5838322336
 H   -1.9648155443    3.7514186793    1.2703810825
 H   -1.9655123311    2.1135856503    1.9420299171
 H   -0.1365776338    3.7177053199    2.7572581359
 H    1.8582372539    3.7482004207    1.5367087378
 H   -0.4783568350    5.0549067950    0.2193509980
 H    1.0578821556    4.8962262750   -0.6648670362
 H    1.9779104685    2.2188191568   -0.6014170384