19

 C    0.0013244224    1.5440424788    0.0653516124
 C    0.0427138840    0.0298835836   -0.0437417820
 O    0.5894944072   -0.4790457105    1.1687618871
 C    0.7344790250   -1.8779092419    1.2282034586
 C    1.9500307333   -2.4627795516    0.4385492999
 O    2.6214264004   -2.8264229438    1.6562198034
 C    1.5734840545   -2.2725575875    2.4705842607
 C   -0.5264607706   -2.5941529914    1.0596822457
 C   -1.5601654222   -3.1931504936    0.9246371779
 H    1.0063431413    1.9491571967    0.2131442180
 H   -0.4178907867    1.9775412433   -0.8474693378
 H   -0.6196178315    1.8493999477    0.9121225595
 H   -0.9635409036   -0.3808461760   -0.2029470624
 H    0.6646783528   -0.2797778406   -0.8983273277
 H    1.7411448717   -3.3302426923   -0.1960064863
 H    2.4986134863   -1.7016263791   -0.1296291355
 H    1.8977172814   -1.3945779823    3.0400608194
 H    1.1233444048   -3.0164237479    3.1350361549
 H   -2.4738615205   -3.7226726716    0.8091526644