23

 C    0.0569338344    1.7015116648   -0.1554378586
 C   -0.2555485200    0.2223134038   -0.4081856100
 C    0.8578488430   -0.4958099667   -1.1598027289
 C    2.2064661581   -0.7790657828   -0.4373708143
 C    2.2570385830   -2.1546690144   -1.1527058555
 C    0.7490523820   -2.0176895116   -1.4735838811
 C   -0.2727064521   -2.9260786191   -0.7496879888
 O   -0.8093237043   -3.3998756618   -2.0009735799
 C    0.1014034475   -2.5727498641   -2.7523116531
 H    0.9767571186    1.8179257786    0.4277755362
 H    0.1927578033    2.2432333472   -1.0980538561
 H   -0.7513530720    2.1901668508    0.3970878339
 H   -0.4297937803   -0.2802347256    0.5521857499
 H   -1.1937141077    0.1360757780   -0.9728756921
 H    1.0540439476    0.0317648054   -2.1034260167
 H    3.0339603763   -0.0872189780   -0.6092256489
 H    2.0640544307   -0.8865889963    0.6432219460
 H    2.8649131716   -2.1240628956   -2.0627670584
 H    2.5611006190   -3.0247555022   -0.5640629329
 H    0.1646996343   -3.7398420100   -0.1552565434
 H   -1.0365811438   -2.4187563194   -0.1474014665
 H   -0.4281948263   -1.8336644897   -3.3702038383
 H    0.7622350174   -3.1663896112   -3.3991501727