19

 C   -0.0792336373    1.5783858899   -0.0092103374
 C   -0.0224950703    0.0419888227   -0.0043492592
 C    0.8760305428   -0.4979682879   -1.1149995862
 C    2.0848923355   -0.8921751634   -0.6714655591
 C    2.1309214268   -0.7017802662    0.7693817134
 C    2.9577933632   -0.3850357175    1.7644845826
 C    2.1141473516    0.0680224582    2.9413175507
 O    0.7848238476    0.2264791695    2.4221967467
 C    0.7039189179   -0.5430774430    1.2360968651
 H    0.9223735347    2.0045548511    0.0965613206
 H   -0.5113609457    1.9474506865   -0.9446175706
 H   -0.6888645101    1.9404093001    0.8227139137
 H   -1.0423651360   -0.3483781870   -0.0928428185
 H    0.5762366478   -0.4763430664   -2.1578094385
 H    2.9079813605   -1.2280835165   -1.2898681117
 H    4.0395685086   -0.3636377025    1.7659312653
 H    2.1152190450   -0.6616219445    3.7700900169
 H    2.4434306902    1.0304412285    3.3537896608
 H    0.2645679073   -1.5324382216    1.4572777656