17

 N   -0.0818481288    1.2953926791   -0.0526847501
 C   -0.1225860288    0.0474674833   -0.2283457694
 O   -1.0771593533   -0.6868913500    0.3913464390
 C   -1.0065924342   -2.0690876950    0.2330152957
 C   -1.1700926056   -2.7415405757   -1.0990379862
 C   -2.1585892078   -3.0319819730    0.0110060884
 C   -1.5372847212   -4.0159239907    1.0114790628
 C   -0.3734711544   -2.9982124152    1.2706093237
 H    0.6804835599    1.6954771263   -0.5960096551
 H    0.5430567722   -0.5548779534   -0.8589234345
 H   -1.5559853397   -2.0973295590   -1.8826562965
 H   -0.4706878538   -3.5031322878   -1.4385374938
 H   -3.2132801722   -2.8203523021   -0.1091630530
 H   -2.1507129093   -4.1818273661    1.8987496815
 H   -1.2467429169   -4.9855347823    0.5959782283
 H    0.6501311324   -3.3325075195    1.0731130669
 H   -0.4229360484   -2.5717703889    2.2744885024