18

 C    0.0946052326    1.4393258012   -0.0812110128
 C   -0.0631392666   -0.0363332505    0.0018945814
 C   -1.1523683620   -0.8410580704    0.2150932148
 C   -0.6534901655   -2.1778794836    0.1222026094
 C    0.6679636920   -2.0831417040   -0.1429978904
 C    1.3706645789   -3.3943561292   -0.0587670220
 C    0.1099454284   -4.3242968646   -0.1089543878
 N   -1.0478886321   -3.5079432733    0.3781985786
 O    1.0704707467   -0.7837321294   -0.1946117571
 H    0.8441035289    1.8040702630    0.6304209540
 H    0.4116359158    1.7596499849   -1.0810486967
 H   -0.8568477875    1.9260218414    0.1450772709
 H   -2.1587003500   -0.4983224960    0.3991837923
 H    2.0665377277   -3.6200359199   -0.8731537001
 H    1.9210149926   -3.5163885425    0.8855087232
 H   -0.0523983833   -4.6393977324   -1.1486846936
 H    0.2276232455   -5.2203053854    0.5053152351
 H   -1.9138790925   -3.7834900293   -0.0704725892