14

 N   -0.1034024188    1.2608558607   -0.1270713363
 C   -0.0264054012    0.0044293848   -0.0037678360
 C   -1.2203787984   -0.8909859244    0.1710520085
 O   -1.3274387964   -1.8555008856   -0.8979585377
 C   -0.7047024413   -2.2620827307    0.3194726859
 C    0.8081807389   -2.1834446098    0.2822523056
 C    1.4447372459   -1.7557030762   -0.9876686250
 N    1.1861633281   -0.7648251592    0.0873198141
 H    0.8352224180    1.6625981820   -0.1973753519
 H   -2.1548118809   -0.5084233468    0.5674115644
 H   -1.2088781584   -3.0404320784    0.8830955284
 H    1.3651534864   -2.7308950986    1.0362591268
 H    2.4987836488   -1.9542890872   -1.1557986086
 H    0.8164715995   -1.7192523007   -1.8700458581