13

 N    0.0217409088    1.4588110066    0.1513750931
 C   -0.0292729195    0.0571756551    0.0375784363
 C   -1.1756296912   -0.6804708165    0.0170205170
 N   -1.0929484329   -2.0407324281   -0.0031220013
 C    0.1073754271   -2.7757092064   -0.0291653773
 O    0.0790529764   -3.9877050121   -0.0606285875
 N    1.2675899952   -2.0060286261   -0.0157005576
 C    1.1798482062   -0.7098360519    0.0234312033
 H    0.7727951289    1.8692583905   -0.3893849012
 H   -0.8488071822    1.9139141195   -0.0909960315
 H   -2.1714020003   -0.2515548325    0.0248662041
 H   -1.9318705560   -2.6023932007   -0.0126850938
 H    2.1249357194   -0.1605343875    0.0448442964