16

 C   -0.0203779258    1.5465918126   -0.0020854294
 C   -0.0070693623   -0.0072081692    0.0027117182
 C    0.7548172734   -0.5286856186    1.2525407610
 C   -1.3861664319   -0.5164021412    0.0125586315
 C   -2.5172815041   -0.9180582740    0.0470711034
 C    0.6706842379   -0.4865465654   -1.2088540817
 C    1.2527109532   -0.8661164909   -2.1968678096
 C    1.9070279577   -1.2971090429   -3.3150857432
 N    2.4654377536   -1.6628233706   -4.2658910796
 H    1.0037431301    1.9284208595   -0.0142383235
 H   -0.5505667811    1.9261542424   -0.8774318249
 H   -0.5257901071    1.9054617933    0.8979155677
 H    0.2511472448   -0.1745464811    2.1553868340
 H    0.7740465645   -1.6199407418    1.2663829515
 H    1.7822220797   -0.1556464735    1.2457239788
 H   -3.5163005026   -1.2789907185    0.0672084059