15

 N    0.0044657906    1.3467146252   -0.0361913736
 C    0.0602705688    0.0021801791    0.0431187481
 N    1.1696512224   -0.6297227948   -0.1094859877
 C    1.1409339115   -2.0167398754   -0.0732834993
 N   -0.0383763830   -2.6703105457   -0.1154904495
 C    0.0065334557   -3.9976462308   -0.0877116069
 C    1.2000917238   -4.7078718907   -0.0261617231
 C    2.3571850392   -3.9369535392    0.0095614797
 N    2.3474144062   -2.6072411680   -0.0130756130
 H    0.8583891752    1.8635741718   -0.1725223892
 H   -0.8403848525    1.8461327299    0.1717690140
 H   -0.8954122726   -0.4936260061    0.2326893070
 H   -0.9518287124   -4.5139733135   -0.1211479853
 H    1.2260345211   -5.7900922808   -0.0109856207
 H    3.3380734960   -4.4072768711    0.0578079295