19

 C    0.1216954688    1.3709970017   -0.5450473665
 C   -0.0215134057    0.0477651232    0.1760803150
 O    0.2705300285   -1.0929930759   -0.6854696053
 C    1.1797702279   -1.6438630604    0.2735049249
 C    2.6552284934   -1.2151805772    0.0289833346
 C    2.4827984020   -0.1403484888    1.1550611281
 C    3.0116552383    1.2563876798    0.9820823454
 O    2.4421223385    2.2608754779    1.3277678986
 C    0.9703513774   -0.4621179230    1.2605195968
 H    1.1072505365    1.4797905819   -1.0033926641
 H   -0.6272524728    1.4286126742   -1.3416941387
 H   -0.0293940228    2.2059371861    0.1438674813
 H   -1.0484457749   -0.0455407367    0.5568763348
 H    0.9841862677   -2.6952510243    0.4988688686
 H    3.4178185845   -1.9720283918    0.2246295142
 H    2.7933946703   -0.8157026264   -0.9783487622
 H    2.9800099170   -0.5112006205    2.0633001241
 H    4.0290730702    1.3033487975    0.5251663984
 H    0.5559913451   -0.5595358573    2.2624081218