19

 C   -0.0861016778    1.5626816348   -0.1250571049
 C   -0.0596161249    0.0466200511    0.0773064546
 N   -1.3774931692   -0.5535454682    0.0154302754
 C   -1.9115279211   -1.3181727469   -0.9668967389
 C   -3.2173649274   -1.6135334163   -0.6230109336
 C   -4.2313238701   -2.4321896517   -1.3572798092
 C   -3.3671979229   -0.9526172420    0.6179387055
 O   -4.4962829607   -0.9578418556    1.3620117103
 N   -2.2743300735   -0.3135049342    1.0082060722
 H    0.9247381946    1.9732768220   -0.0392142531
 H   -0.4817386029    1.8184545498   -1.1125288361
 H   -0.7189182766    2.0316361656    0.6319597306
 H    0.5488865115   -0.4392687136   -0.6911870497
 H    0.3790114909   -0.1971702492    1.0506845707
 H   -1.3320688363   -1.6022556219   -1.8326632420
 H   -4.5637469910   -3.2925764309   -0.7653461911
 H   -5.1267727485   -1.8474943645   -1.5965110084
 H   -3.8217961074   -2.8132746077   -2.2970244810
 H   -4.3145214069   -0.4368879006    2.1539368186