17

 C   -0.0650021626    1.4497643935    0.1168520702
 C    0.0386448213   -0.0382387658   -0.0299010265
 C    0.7099245226   -0.6859007015   -1.2664633475
 C    0.4754982270   -2.1134479453   -0.7875192627
 O    0.7807946737   -3.2566581659   -1.5020074696
 C    0.5249386440   -1.9988515018    0.7372943259
 O    0.7465222163   -0.6429167860    1.0650329191
 C   -0.8096993409   -2.0207857976    0.0147297218
 O   -1.2448651747   -0.6782315866   -0.0022611769
 H    0.9318209415    1.8963017750    0.1238352500
 H   -0.6369848414    1.8691425068   -0.7137962542
 H   -0.5697506813    1.6918156426    1.0549143793
 H    0.1808836545   -0.4534541048   -2.1928219303
 H    1.7661228964   -0.4160205820   -1.3456961405
 H    1.7361200149   -3.3844591346   -1.4768334299
 H    0.8992451977   -2.7328272942    1.4358436575
 H   -1.5760405591   -2.7783601417    0.0829811942