17

 O   -0.4214392275    0.5629337976    0.7347777683
 C    0.2177619616    0.9564904975   -0.2064025135
 C    1.3785124211    1.8964430982   -0.1022756842
 C    1.9562296615    2.1771577375    1.2645396161
 C    2.9794097455    3.3135236840    1.1935999155
 O    2.4235247357    4.4483160770    0.5476703352
 C    2.1991764348    4.2421333360   -0.8310429880
 C    1.5053529565    2.9281002452   -1.1621353180
 O    2.3123101039    1.7542241400   -1.1887175390
 H   -0.0007034665    0.6445738974   -1.2520322350
 H    1.1316135528    2.4489895077    1.9305476316
 H    2.4149873857    1.2683709325    1.6698349657
 H    3.2611515856    3.6398247562    2.1975945135
 H    3.8867915539    2.9768417954    0.6703833449
 H    1.5739836984    5.0752111682   -1.1658405064
 H    3.1467975740    4.2772558116   -1.3939816805
 H    0.7617863131    2.9683278881   -1.9591531061