16

 C    0.0043512872    1.5142275555    0.0352663578
 C   -0.0119070553    0.0232618447   -0.0005369323
 C    0.9826532096   -0.9950213201   -0.5028164669
 C    0.6180395013   -0.9986628207    0.9587096625
 C   -0.5129254168   -2.0087005754    0.6140690752
 C   -1.0538353992   -3.1242182812    1.2935834248
 C   -1.5109827623   -4.0558050856    1.9036850409
 C   -1.1154350330   -1.0184993398   -0.3355860126
 N   -0.1124808745   -2.0011593192   -0.8586768398
 H    0.9995142963    1.8805085689    0.3097248620
 H   -0.2494556968    1.9414673117   -0.9416442004
 H   -0.7077598735    1.9063144738    0.7703052347
 H    1.9307072152   -0.9126685297   -1.0191937251
 H    1.2106198771   -0.8366704842    1.8475409802
 H   -1.9138362454   -4.8848486260    2.4307585795
 H   -2.1238158699   -0.9517605027   -0.7282584306