27

 C   -0.2026007088    1.3635448296   -0.0327753923
 O    0.0769284904   -0.0152372900   -0.0359743870
 C    0.6784555722   -0.5121342507    1.1563486995
 C   -0.3494727288   -0.6713768009    2.2803422233
 C    1.3438429533   -1.8425294363    0.7947515182
 C    2.4727630302   -1.6963753888   -0.2312721124
 C    3.0493061222   -3.0225737147   -0.7576898980
 C    4.0376793301   -2.7591055957   -1.9020108086
 C    3.7148056005   -3.8584332408    0.3453661592
 H    0.6989344674    1.9618751583    0.1749041097
 H   -0.5703785570    1.6198265266   -1.0299480236
 H   -0.9735764437    1.6419684684    0.7009896856
 H    1.4582531579    0.1993693856    1.4819595818
 H    0.1309338067   -1.0472318794    3.1893201344
 H   -0.8282766325    0.2799549144    2.5293816784
 H   -1.1297207561   -1.3791807333    1.9823751679
 H    1.7157968412   -2.2999232112    1.7184439308
 H    0.5674329332   -2.5117235531    0.4000567164
 H    2.0866864317   -1.1157859208   -1.0759318833
 H    3.2884853119   -1.1016899943    0.2066342515
 H    2.2122785133   -3.6083829249   -1.1656029573
 H    4.8972995517   -2.1758889348   -1.5495357510
 H    4.4229099407   -3.6952356912   -2.3200816279
 H    3.5658515422   -2.1960660972   -2.7141081993
 H    4.5406236595   -3.3042241448    0.8087632093
 H    3.0116730515   -4.1325454515    1.1375535081
 H    4.1287621692   -4.7869803386   -0.0620474436