19

 C   -0.0903570422    1.4803799891   -0.1542561276
 C    0.0462508092   -0.0227535768   -0.0554545535
 N    1.2050593868   -0.8680643137   -0.3979108487
 C    2.5095635616   -0.2420433430    0.0589124206
 C    3.0858991311    0.8973798746   -0.7632792915
 C    2.0016327263   -0.0586441951    1.5144030393
 C    0.7117397761   -0.7519457094    1.0568582068
 C    0.0932479978   -1.8348771543    1.7606165093
 N   -0.4077004439   -2.6887633880    2.3601744195
 H    0.6635017558    2.0296779714    0.4103792528
 H   -0.0415174155    1.8035352020   -1.1989205520
 H   -1.0716771214    1.7686942537    0.2362288897
 H   -0.8447368848   -0.5376029482   -0.4111855887
 H    3.2251959638   -1.0689801499    0.0403047566
 H    2.4830938792    1.8059157588   -0.7337688544
 H    4.0873455325    1.1463197496   -0.3961718132
 H    3.1821598828    0.5871892447   -1.8089889256
 H    2.5658327448   -0.6333408001    2.2488396532
 H    1.8742350900    0.9607168147    1.8880361877