14

 C    0.0735157451    1.2988072319   -0.0855906709
 O   -0.0980250710   -0.1249309691   -0.1487281142
 C   -1.3258633086   -0.5674482664    0.0740584851
 N   -2.3365161015    0.1677071599    0.2584956035
 N   -1.3298359221   -1.9956041701    0.0516263834
 C   -2.3419144187   -2.8424954041   -0.2501812860
 N   -1.9219156389   -4.0750683844   -0.1305359425
 N   -0.6144673721   -3.9784167079    0.2626511739
 N   -0.2432584622   -2.7550669627    0.3698109112
 H    1.1374531326    1.4652266204   -0.2485471509
 H   -0.5212463590    1.7874425213   -0.8606933561
 H   -0.2361136191    1.6754320667    0.8919719943
 H   -3.1786571891   -0.3580969993    0.4706218880
 H   -3.3233605754   -2.5280563062   -0.5638207489