20

 C    0.0409926547    1.5361892615   -0.0453357101
 C    0.0058855437    0.0186304272   -0.0037684553
 O    0.6721163497   -0.4655082024   -1.1587902204
 C    0.7461189746   -1.8178588437   -1.2897651099
 C    1.3644509865   -2.4341280872   -2.3580507319
 N    1.2445881382   -3.7958052757   -2.1785204685
 C    1.8168217848   -4.7980512955   -3.0489353785
 C    0.5700661076   -4.0402696005   -1.0170450234
 C    0.2385998783   -2.8346871529   -0.4320873713
 H    1.0734243622    1.8968693619   -0.0540039383
 H   -0.4595310144    1.9079521258   -0.9438647915
 H   -0.4651023179    1.9507906564    0.8315999370
 H    0.5027316805   -0.3586174641    0.9026282031
 H   -1.0317164293   -0.3472830442    0.0129355298
 H    1.8670340574   -2.0158635647   -3.2136864417
 H    2.9104523860   -4.8204821454   -2.9753670317
 H    1.4293755171   -5.7793422842   -2.7679551439
 H    1.5428942723   -4.6041370480   -4.0908136182
 H    0.3782526204   -5.0517923967   -0.6954843630
 H   -0.3089024721   -2.7089848176    0.4873017574