16

 C    0.0236053568    1.5380776197   -0.1718466754
 O    1.4405606895    1.5232723706    0.2104591042
 C    1.3148452156    0.1531382160    0.5836149242
 C    0.7933037796   -0.3049992020    1.9754316594
 C   -0.2364190639   -1.0395341426    1.0980541034
 N    0.5814480190   -1.9761055593    0.1826862014
 C    1.7294764445   -1.0703064128   -0.2208252581
 C    0.4573242540   -1.0759741776   -0.9975839653
 C   -0.0956241138    0.0068616975   -0.0503912294
 H   -0.5775964311    2.1168142595    0.5387207780
 H   -0.1118468294    1.9441060118   -1.1788129360
 H    1.4385675126   -0.8996594535    2.6255454942
 H    0.3514622425    0.5277250628    2.5278529895
 H   -1.1430260397   -1.5192339175    1.4677391727
 H    2.6900719042   -1.5415260310   -0.3930506577
 H    0.1994938396   -1.4343894515   -1.9873199250