25

 C   -0.0576692099    1.5495152921    0.0802468390
 C    0.0343354941    0.0230525435   -0.0418453697
 C    0.7410705849   -0.4826802755   -1.2970919746
 C    0.0498964976   -0.1139381629   -2.6385705641
 C    0.6277358765   -1.1508726019   -3.6536410535
 C    1.5944924918   -1.9875837492   -2.7866961365
 C    2.8194398448   -1.1148253221   -2.4343286257
 C    2.2356821622   -0.0781571769   -1.4223791861
 C    0.8461324955   -2.0217924219   -1.4405576558
 H    0.9343964872    2.0123289075    0.1025903188
 H   -0.6091205947    1.9881848895   -0.7578325733
 H   -0.5755057389    1.8354522646    1.0011475806
 H    0.5541643319   -0.3753768304    0.8400416571
 H   -0.9792117816   -0.3995586516   -0.0135433266
 H   -1.0371967399   -0.2150405093   -2.5469815370
 H    0.2514050981    0.9196198022   -2.9349797358
 H   -0.1668124081   -1.7799149174   -4.0671592450
 H    1.1371075307   -0.6789683036   -4.4995303493
 H    1.8531253814   -2.9548105379   -3.2229794371
 H    3.6053548979   -1.7178832210   -1.9688709719
 H    3.2575774757   -0.6439309329   -3.3197540790
 H    2.3555139137    0.9541378977   -1.7640051557
 H    2.7332063400   -0.1535734838   -0.4491487315
 H    1.4231818335   -2.4862756941   -0.6332548794
 H   -0.1321197246   -2.5118221944   -1.4985670381