17

 C    0.7778187459    1.3596921349    0.1701012989
 N    0.0912860010    0.0444109002    0.0149488245
 H   -0.9004036126    0.1940122961   -0.1554131204
 C    0.3477977708   -0.9883398598    1.1242974407
 C    1.1839469297   -1.8547689149    0.1571719471
 C    0.7196703312   -0.9328400408   -0.9915999961
 C    2.7352799480   -1.6878411300    0.4341931932
 O    3.3862186599   -2.7250373458    0.5213333514
 O    3.0688837990   -0.4748204958    0.5245460168
 H    1.8319424191    1.1149362639    0.3489314349
 H    0.6373946524    1.9329630587   -0.7490368132
 H    0.3275075688    1.8867120463    1.0142853171
 H    0.9037673382   -0.5311116907    1.9414522073
 H   -0.6069062530   -1.3948445808    1.4637497077
 H    0.8828591756   -2.8972186171    0.0769104926
 H   -0.0585604822   -1.3130061468   -1.6562523231
 H    1.5166952584   -0.4396334975   -1.5460386094