17

 C   -0.0170390089    1.5524591314    0.0876301126
 C    0.0330571982    0.0197143082    0.0444403209
 C    0.8582230047   -0.5082784840    1.1638903895
 N    1.4424990134   -0.9579063919    2.0549582451
 N   -1.3034976680   -0.5486946084    0.0290213864
 C   -2.1630360382   -0.4443070054    1.2384073304
 C   -2.5893133263   -1.8974654329    0.9758676847
 O   -3.4489734690   -2.6139468630    1.3837270617
 C   -1.4617413135   -2.0228040625   -0.0602804757
 H    0.9904394116    1.9727527541    0.0434852272
 H   -0.5980088724    1.9131179909   -0.7638948618
 H   -0.4910718267    1.8998912081    1.0097151581
 H    0.5261237039   -0.2900747186   -0.8847705780
 H   -1.6108290025   -0.3610725817    2.1877020177
 H   -2.9387091322    0.3257225630    1.1971563436
 H   -1.7224350153   -2.4032526269   -1.0526005433
 H   -0.6156262989   -2.5994490303    0.3452989707