20

 C   -0.3710523616    1.5749622561   -0.6001144166
 C   -0.2336954597    0.1518023696   -0.3250672673
 C   -0.1139392197   -1.0212799657   -0.0809937561
 C    0.0372994995   -2.4475501827    0.2046734107
 N   -1.2124058781   -3.1984663747    0.0710371517
 C   -1.7958150294   -3.2362120325   -1.2560758611
 C   -1.6873368597   -3.8699130492    1.1729179994
 C   -2.9721986696   -4.6698903986    1.0039275339
 O   -1.1133842511   -3.8325893897    2.2494097897
 H    0.2584397215    2.1691548000    0.0713374975
 H   -0.0807022659    1.8164543734   -1.6285173325
 H   -1.4057991873    1.9064923536   -0.4601907615
 H    0.7930548172   -2.8797948303   -0.4679186935
 H    0.3772798698   -2.6052565949    1.2309152312
 H   -2.7956547662   -3.6644700337   -1.2326365666
 H   -1.8677735090   -2.2190721276   -1.6557462041
 H   -1.1807609870   -3.8302157163   -1.9474410181
 H   -2.8760800338   -5.4441352530    0.2366438489
 H   -3.1837109548   -5.1420643023    1.9624563840
 H   -3.8161176451   -4.0290578614    0.7296155403