21

 C    0.0117370980    1.5621867213    0.0916804422
 C    0.0586356394    0.0639612326    0.0095651527
 C   -0.8778555497   -0.8493830087    0.7496070522
 C    0.6048271658   -0.9620704772    1.0196250075
 C    1.3202058301   -1.7169726489   -0.1040205456
 O    1.1275966463   -3.1039796169   -0.2557692202
 C    0.6850421295   -0.7392158022   -1.1222596439
 C    0.0936646757   -1.1089311847   -2.4513195832
 C    1.3287980184   -0.2369353829   -2.3751668411
 H    0.9910579857    2.0043741703   -0.1217846285
 H   -0.7049705594    1.9803238133   -0.6259716523
 H   -0.2964498676    1.8913070487    1.0893543461
 H   -1.4478935012   -0.3943880101    1.5542051561
 H   -1.4220062486   -1.6283691316    0.2179966259
 H    1.0078514663   -0.7890652648    2.0108709206
 H    2.4042721269   -1.5794432635   -0.0500417969
 H    0.1813216124   -3.2761971508   -0.2004735156
 H    0.2197107107   -2.1372362514   -2.7759234385
 H   -0.8413972833   -0.6477507332   -2.7537874129
 H    1.2199106821    0.8145561618   -2.6232704036
 H    2.2822049528   -0.6660876412   -2.6687339512