17

 C   -0.2219669083    1.6179847196   -0.0946084964
 C   -0.0337887340    0.0988451718   -0.0184927002
 C    0.9375082393   -0.4759445132   -1.1000444360
 C    2.0066426007   -0.5317081779    0.0330960488
 N    0.9177463352   -0.3718176138    1.0183404523
 C    2.7547008713   -1.8441832728    0.1526602241
 O    3.9150238845   -1.9886125191   -0.1288486014
 C   -1.3436437585   -0.5658622857    0.0656234697
 N   -2.3770059732   -1.0808688347    0.1138870650
 H    0.7498578978    2.1097867736   -0.1975097675
 H   -0.8441165377    1.8914973127   -0.9518074458
 H   -0.7108200510    1.9905508724    0.8107548315
 H    0.6384008485   -1.4616940684   -1.4590813483
 H    1.1539047078    0.1764806522   -1.9449065861
 H    2.7319125038    0.2881493116   -0.0238210684
 H    1.0831008046    0.2697756969    1.7864267574
 H    2.1159667092   -2.6822040950    0.5123731012