18

 C    0.0167577703    1.5177796917    0.1674365288
 C   -0.0872844238    0.0069759729   -0.0558297614
 C    0.7015677637   -0.4973154467   -1.2745031160
 C    2.2902331993   -0.4428890301   -1.2017804345
 C    2.3056599798   -1.9690851308   -1.3263336917
 O    1.5300637619   -2.4913242526   -0.2371666962
 C    0.8417526744   -2.0461639420   -1.3990763392
 C    0.2079135709    0.0824484807   -2.5189298174
 N   -0.1947150293    0.5298984313   -3.5065906769
 H    1.0549703070    1.8298576528    0.3225477022
 H   -0.3770625347    2.0755541715   -0.6876816868
 H   -0.5535925801    1.8123899451    1.0528427131
 H    0.2943260529   -0.5383402897    0.8121939595
 H   -1.1384609404   -0.2794005568   -0.1796363332
 H    2.7294045056    0.0745750257   -2.0555506399
 H    2.7011216140   -0.0468953694   -0.2707524754
 H    3.0678364209   -2.6132743722   -1.7463880151
 H    0.1691476274   -2.7336461514   -1.8978980899