22

 C   -0.2379610691    1.3517214118   -0.8206034571
 C   -0.0100754439   -0.0433750701   -0.2322220676
 C    0.4834134581   -1.0376751128   -1.2851077375
 C    0.7318160752   -2.4359643253   -0.7843838457
 C    1.2210830405   -3.4937526110   -1.7462526310
 O    1.3688509096   -2.9431793988   -3.0334802839
 C    1.8237014697   -3.8847548317   -3.9755029616
 N    0.5203867058   -2.6911158599    0.4491351113
 O    0.8020095795   -4.0407658321    0.7462470283
 H    0.6856103095    1.7613667609   -1.2452472878
 H   -0.9860975986    1.3297473010   -1.6211814259
 H   -0.5904477455    2.0511024675   -0.0561399122
 H    0.7151778423    0.0073256260    0.5869102575
 H   -0.9363117267   -0.4190728018    0.2155276048
 H   -0.2291985022   -1.0988973743   -2.1187605631
 H    1.4103768805   -0.6755853082   -1.7500466872
 H    2.1746397252   -3.9070744058   -1.3759582900
 H    0.5090828287   -4.3365332140   -1.7508667039
 H    2.8093068690   -4.2926915128   -3.7009571053
 H    1.1224881815   -4.7276322409   -4.0806957533
 H    1.9075367881   -3.3712069015   -4.9361022918
 H    0.6024365316   -4.0862489640    1.6866287648