14

 C   -0.0252789706    1.4805408136    0.0041477350
 C    0.0016593786   -0.0059047000   -0.0190917028
 N   -0.0194719305   -0.7230320838   -1.0967371669
 N    0.0192281409   -2.0358439216   -0.6460761339
 C    0.0123058709   -3.1393774547   -1.5008646075
 O   -0.0266925022   -3.0726504768   -2.6976699731
 C    0.0658822761   -2.1275688608    0.7582439663
 O    0.1064357450   -3.1101562933    1.4574714573
 N    0.0525177546   -0.7847155349    1.1204856377
 H    0.8678723527    1.8823089479    0.4946656131
 H   -0.0636485085    1.8495448371   -1.0211086629
 H   -0.9010182367    1.8493836664    0.5489414257
 H    0.0490186002   -4.0686026477   -0.9094185895
 H    0.0774075896   -0.4748796913    2.0771024113