15

 C   -0.0004087524    1.4271609930    0.0417497538
 C    0.0062053298   -0.0256719364   -0.0005685713
 C    0.0135165150   -1.2297878653   -0.0372472060
 C    0.0056765650   -2.6472309017   -0.0768150789
 N    1.1087129420   -3.3565408429   -0.2845328359
 N    0.6309619515   -4.6339626644   -0.2404629184
 C   -0.7027348194   -4.6297885496   -0.0103725128
 N   -1.4801022002   -5.7706317717    0.0212266862
 N   -1.1381369685   -3.3923720473    0.1041113983
 H    0.6902911300    1.8049803998    0.8039028062
 H    0.3024075936    1.8537216774   -0.9211313865
 H   -0.9993486088    1.8099901847    0.2769981863
 H    1.2503808469   -5.4046794283   -0.4254211198
 H   -1.0710562555   -6.5557007508    0.5093281383
 H   -2.4100477390   -5.5668431566    0.3616352504