21

 C   -0.0908095446    1.6170164462   -0.0498744180
 C   -0.2172419195    0.0995698318   -0.2075958885
 C    0.9194919380   -0.5027972126   -1.0415811239
 C    0.8324330067   -2.0206980747   -1.1784115418
 C   -0.1426185764   -2.6030392259   -2.2091553241
 C    1.3367345557   -2.6779416607   -2.4531461382
 O    1.9316695896   -1.8436106204   -3.4005629382
 C    1.0167734040   -2.7660587093    0.0394192667
 C    1.1775525242   -3.3787739339    1.0627261687
 H    0.8460392497    1.8861485017    0.4506206397
 H   -0.0997616926    2.1206923458   -1.0231733180
 H   -0.9142423251    2.0257793096    0.5440981556
 H   -0.2306388437   -0.3764934881    0.7799585487
 H   -1.1786525920   -0.1449034813   -0.6774133306
 H    0.9293227503   -0.0656450962   -2.0443042713
 H    1.8839837094   -0.2492694050   -0.5843083166
 H   -0.6813778552   -3.5085201536   -1.9562571260
 H   -0.6996999933   -1.8760252103   -2.7912922653
 H    1.8187527248   -3.6465091990   -2.3285739812
 H    1.6417871219   -2.1309654980   -4.2727131236
 H    1.3198063982   -3.9198813160    1.9649089159