18

 C   -0.3450908097   -1.1543503416    0.4423553407
 C   -0.1451096574    0.0091456433    0.2141213410
 C    0.0751941192    1.3944966007   -0.0995460012
 N    0.7284535862    2.2397440025    0.9316558964
 C    1.4408910217    1.9681459193   -0.3212161940
 C    2.7010262334    1.1393326953   -0.2128156033
 C    3.8635604406    1.9769588038    0.2635358846
 C    5.2272541496    1.7908673377   -0.2428811391
 O    4.4253133218    2.8836194017   -0.6952244500
 H   -0.5216674921   -2.1794257829    0.6558799726
 H   -0.7262189197    1.8525160975   -0.6757460308
 H    0.3126555030    3.1674540934    0.9170523477
 H    1.4946974424    2.7739944983   -1.0513012441
 H    2.5304153712    0.3143356526    0.4863496456
 H    2.9403709473    0.7073650772   -1.1912656298
 H    3.7407581286    2.4092125284    1.2573594604
 H    6.0803627959    2.0609904280    0.3779863927
 H    5.4216977279    1.0160813649   -0.9840131494