16

 O    0.0191040419    1.3294211747    0.0649953985
 C    0.0304122210   -0.0587013743   -0.0174246179
 C   -0.3763498475   -0.8604507973    1.2038695270
 C   -1.2766136321   -0.8220264068   -0.0220825164
 O   -2.4604058004   -0.0774449595    0.0011612064
 C   -1.0921507157   -1.9247087264   -1.0122573282
 C    0.1295946232   -1.8827333331   -1.5511195563
 C    0.9485270173   -0.7095607818   -1.0460886662
 H   -0.9030653775    1.6006023080   -0.0429034350
 H    0.1240890475   -1.7903412089    1.4550860854
 H   -0.6854860350   -0.2485566504    2.0463770882
 H   -2.9872969702   -0.3533288369    0.7576176125
 H   -1.8589070588   -2.6623135878   -1.2200772262
 H    0.5297842345   -2.6088676790   -2.2494930202
 H    1.1840432111    0.0020195942   -1.8472021857
 H    1.9044351606   -1.0295170747   -0.6140187059