15

 O    0.0917069209    1.3599889214   -0.0822490634
 C    0.0547005983   -0.0041865320   -0.0102361182
 C    0.0347259078   -0.8299135861   -1.1036636372
 N    0.0772317863   -2.1755660133   -0.6713186367
 C    0.0263891973   -2.1360451156    0.6939423284
 C    0.0522567196   -0.8294138953    1.1657885336
 C    0.0856949850   -0.9173250238    2.5969022042
 C    0.0718185629   -2.2535649345    2.9128126698
 N    0.0440987451   -3.0122304566    1.7413877780
 H    0.0959439146    1.7065263144    0.8137249030
 H    0.0438645960   -0.5894032193   -2.1529402406
 H   -0.2539091018   -2.9350244597   -1.2410129121
 H    0.1142362091   -0.1133058232    3.3164353306
 H    0.0714009999   -2.7463274614    3.8715078152
 H    0.0127146991   -4.0144185150    1.7005004955