16

 N   -0.0553717470    1.2869907553    0.0405767405
 C   -0.0159759793    0.0253884005   -0.0027256416
 O    1.1370386268   -0.7105910199   -0.0132087607
 C    0.8588874897   -2.1309775066   -0.0213454172
 O    0.1648494009   -2.4577751617    1.1634383397
 C   -1.1007744838   -1.7888075038    1.2231370010
 C   -1.2442964127   -0.8644625829   -0.0181866152
 C   -1.1275690688   -1.7668383734   -1.2301174482
 C    0.0117910424   -2.4555240695   -1.2310188438
 H    0.8923758669    1.6699667078    0.0629478031
 H    1.8254820709   -2.6282779260    0.0219409224
 H   -1.9052576747   -2.5333271012    1.2422544592
 H   -1.1318968954   -1.2002746395    2.1457740100
 H   -2.1488512183   -0.2622509515    0.0226127505
 H   -1.9090250387   -1.8305290093   -1.9771018625
 H    0.3282281610   -3.1822787084   -1.9677693674