19

 O   -0.0118678776    1.4031210982    0.0357596339
 C    0.0376097194   -0.0184009890   -0.0038773656
 C   -1.3614805600   -0.5422134476    0.0064323937
 C   -1.8011046040   -2.0393508289   -0.0274286153
 C   -3.0396453338   -1.5736766707   -0.7592521657
 C   -3.0124737655   -1.6162841509    0.7725743793
 C   -2.4741646559   -0.1984539669    1.0776053877
 C   -3.1474714614    0.7695088459    0.0745908477
 C   -2.5110916480   -0.1405576389   -1.0038981415
 H    0.8904407829    1.7351851442    0.0314643379
 H    0.5570534533   -0.3734444188   -0.9104675480
 H    0.5882532316   -0.4218527483    0.8631655645
 H   -1.2546725289   -2.9730467143   -0.0630892415
 H   -3.7386746751   -2.1546796638   -1.3464200317
 H   -3.6908221414   -2.2297128680    1.3509516679
 H   -2.2516952593    0.0730969600    2.1090637970
 H   -4.2380526132    0.8618807533    0.0965064007
 H   -2.6752034433    1.7542940064    0.0936025621
 H   -2.3250244596    0.1881236881   -2.0258945131