17

 O    0.5323325700    0.7847333693   -0.9160972802
 C    0.1223389232   -0.2319382259   -0.0404092036
 C    0.0782551834    0.0536936651    1.4930249073
 C   -1.3301364563   -0.6237757459    1.5648535750
 C   -2.3759062912    0.0887287587    2.3767331278
 O   -3.1162647381   -0.4343967272    3.1687118952
 C   -1.3831298726   -0.4515489756    0.0296835341
 C   -2.4080601323    0.1948108141   -0.7927844632
 O   -2.1429330080   -1.2165651331   -0.8692183515
 H    1.4659597985    0.6702274220   -1.1153964459
 H    0.6319694948   -1.1823527894   -0.2495985683
 H    0.8617396468   -0.3727996400    2.1202298825
 H    0.0095056239    1.1313194747    1.6691319683
 H   -1.2919935894   -1.6764313793    1.8538287458
 H   -2.4187752151    1.1877018832    2.1862203705
 H   -3.3697504218    0.4613888785   -0.3573334093
 H   -2.0979367156    0.7736228709   -1.6593830443