19

 C    0.0196394307    1.4860218300    0.0451332781
 C    0.0000551685    0.0304767885    0.0204219142
 C   -0.0004525495   -1.1733691545    0.0016058455
 C   -0.0428848837   -2.6330994678   -0.0355338978
 C   -1.4935157277   -3.1488440912   -0.1004833669
 C    0.8111934136   -3.1672532445   -1.2281474761
 O    2.1245438489   -2.6304698115   -1.2303859009
 C    0.8407713816   -4.6340081861   -1.2461545324
 C    0.9084167431   -5.8344125312   -1.2192083703
 H    0.8251047885    1.8813617287   -0.5836338857
 H   -0.9236657508    1.9058828651   -0.3215296254
 H    0.1771475269    1.8650505071    1.0611058398
 H    0.4217474980   -3.0273470823    0.8801518777
 H   -1.5160866805   -4.2412446225   -0.0901821831
 H   -2.0643867880   -2.7761447612    0.7531883691
 H   -1.9855748597   -2.7970223884   -1.0127061758
 H    0.3546355483   -2.7997877472   -2.1546289290
 H    2.6049950707   -3.0293741122   -0.4961285181
 H    0.9636935311   -6.8952207788   -1.2191091229