18

 C   -0.0222164062    1.4128541096   -0.0501821287
 C    1.4652015179    1.9153951573    0.0245682315
 C    2.2066796424    0.7074388599   -0.5072362133
 N    3.1398249138    0.6935988119   -1.6425411313
 C    3.5295266274    0.0304504591   -0.3949895043
 C    3.2493467583   -1.4733305319   -0.2886378424
 N    1.8221050276   -1.5941794075   -0.6380380903
 C    1.1981069713   -0.3844451267   -0.4399369284
 N   -0.0044362290   -0.0643971497   -0.1679102076
 H   -0.5910859987    1.6965656288    0.8407216723
 H   -0.5478382457    1.8460513941   -0.9110539641
 H    1.6516538742    2.8089183303   -0.5738853872
 H    1.7422519616    2.1351449977    1.0601769857
 H    2.8526135355    0.0136069419   -2.3456989590
 H    4.3950476790    0.4377131524    0.1166037178
 H    3.8720500929   -2.0670055866   -0.9690243887
 H    3.4521127749   -1.8131083423    0.7372317748
 H    1.3291800530   -2.4440511682   -0.4113861668