25

 C    0.0802352724    1.5474483342    0.0775536895
 C   -0.0578783787    0.0221714543    0.0529707582
 C   -1.4974112575   -0.5078009443   -0.0858475568
 C   -2.1681196857    0.0365516851   -1.3600961588
 C   -1.4749206183   -2.0533388603   -0.0783828781
 C   -2.8585359266   -2.6711729015    0.1707402528
 C   -3.4870093905   -2.0554427223    1.4265099461
 C   -3.4760095513   -0.5308932348    1.3155034042
 O   -2.1702521542   -0.0261664772    1.0911719375
 H    1.1120081408    1.8337043946    0.3040298973
 H   -0.1801804782    2.0006725479   -0.8838461594
 H   -0.5697798964    1.9772735849    0.8437071035
 H    0.5438846774   -0.3986568580   -0.7623464273
 H    0.3449189077   -0.3879240087    0.9862236857
 H   -1.5430900595   -0.1705814582   -2.2346853367
 H   -3.1451792610   -0.4173139483   -1.5426108763
 H   -2.3104089442    1.1171629764   -1.2859401703
 H   -1.0527000015   -2.4163235637   -1.0225829898
 H   -0.7953809293   -2.3780358513    0.7195831063
 H   -3.5156730590   -2.4973416015   -0.6909339310
 H   -2.7684465377   -3.7580109016    0.2732713231
 H   -4.5137894105   -2.4103486047    1.5721102269
 H   -2.9090338353   -2.3498595239    2.3115476794
 H   -4.1662512994   -0.2090028253    0.5186583087
 H   -3.8145315336   -0.0632266818    2.2454911556