18

 C    0.3103881164    1.6382915238   -0.2449698883
 C    0.0197834072    0.1765190327    0.0195526754
 C   -1.3006239692   -0.3267589515   -0.5305961305
 N    1.1798995447   -0.7030061174   -0.0254884978
 C    0.5237405209   -0.4969940203    1.2856344791
 C    1.2883335269    0.2257307303    2.3315398212
 O    2.1972722945    1.0066314505    2.1505733736
 C    0.8574526908   -0.0331599816    3.7834010044
 O   -0.0262924159   -0.7838230533    4.1049596643
 H    1.2782974296    1.9243575004    0.1659260675
 H    0.3256813940    1.8174263947   -1.3257348691
 H   -0.4678904386    2.2748793150    0.1893504599
 H   -1.3195735728   -0.2191437659   -1.6212944323
 H   -1.4637573052   -1.3814380808   -0.2876757542
 H   -2.1407354036    0.2479245618   -0.1275480039
 H    0.9217654891   -1.6233101111   -0.3766567098
 H   -0.1108536620   -1.2841848431    1.6809965798
 H    1.4611875232    0.5504236457    4.5102885709