23

 C   -0.1355338778    1.4677521573    0.3434786602
 C   -0.1283879956   -0.0417734010    0.1711019569
 O    0.8430779287   -0.5826958964    1.0687672438
 C    0.8229483246   -1.9863077197    1.1957830454
 C    1.0307860803   -2.7766186956   -0.0751803592
 C    1.4276445656   -2.4826180754    2.4982267787
 C    2.1053249154   -1.5564858507    3.4837529016
 C   -0.0809966745   -2.4782815199    2.3083532584
 O   -0.8779356396   -1.5525595775    2.9860092506
 H    0.8609181382    1.8781314700    0.1571000795
 H   -0.8372876742    1.9261770786   -0.3596308832
 H   -0.4348776913    1.7473271227    1.3583463205
 H   -1.1185093779   -0.4684919598    0.3851557432
 H    0.1290830454   -0.3014476846   -0.8649541085
 H    1.9765109931   -2.4992092735   -0.5548099063
 H    1.0686259500   -3.8455924046    0.1522798883
 H    0.2217217363   -2.6253956834   -0.7974285768
 H    1.8939574097   -3.4622278949    2.4183616900
 H    1.6391655097   -0.5704366616    3.5063937444
 H    2.0615429095   -1.9736590875    4.4951588984
 H    3.1587616004   -1.4127519195    3.2224116920
 H   -0.6000936618   -3.4257464908    2.1992014672
 H   -0.5316589141   -0.6807707024    2.7578435651