21

 C   -0.1461649203    1.6639028350    0.1369914366
 C    0.1773999673    0.1827609008   -0.0886740541
 C    0.7690567533   -0.4759845326    1.1548677265
 C   -0.2124064481   -0.7947431029    2.3059996008
 O    0.0140559498   -2.2122542983    2.1748959387
 C    1.0205987299   -2.0114555035    1.1619254607
 C    0.7479049215   -2.8260252067   -0.1076598794
 C    0.9276824932   -4.2572224238    0.1013244735
 C    1.0916175796   -5.4331162442    0.2862433479
 H    0.7550294669    2.2296654678    0.3977509538
 H   -0.5776818276    2.1164471785   -0.7606705851
 H   -0.8660410711    1.7943445061    0.9525037750
 H   -0.7349206535   -0.3454173841   -0.3919540632
 H    0.8821567231    0.0877487068   -0.9246102092
 H    1.6484934914    0.0887305016    1.4786566701
 H    0.0777616735   -0.4231919671    3.2967183233
 H   -1.2625457297   -0.5307545580    2.1234339864
 H    2.0139285867   -2.2824810472    1.5445484705
 H   -0.2717119285   -2.6273474432   -0.4557889513
 H    1.4290068480   -2.4811893379   -0.8973600927
 H    1.2257054944   -6.4735346372    0.4490014711