14

 O   -0.1368437604    1.3742938914    0.0805281716
 C   -0.0555054433    0.0110735446    0.0853099638
 C   -0.4163340814   -0.8203831238    1.2429534820
 C   -1.3875796967   -0.8808633781    0.0371308772
 C   -2.6228909395   -0.0843552862    0.1594244409
 O   -2.7050022613    0.9313050161    0.8277131885
 C   -1.4159562816   -2.0471079595   -0.7880938850
 C   -1.4410971388   -3.0248152515   -1.4893276877
 H   -0.9302116874    1.6255206206    0.5861859379
 H    0.7084337988   -0.3468254651   -0.5957632340
 H    0.1364357980   -1.7329193773    1.4326722263
 H   -0.8189244648   -0.3157315147    2.1155600825
 H   -3.4841606600   -0.4500748727   -0.4309211533
 H   -1.4643556218   -3.8874880538   -2.1081612705