17

 C    0.0782818336    1.5011988773    0.5331137348
 C   -0.1309321616    0.2128773989   -0.2553756286
 O    0.7388095404   -0.8451272912    0.1636647837
 C   -1.5606691318   -0.2525240030   -0.2094345994
 N   -2.6397706710    0.4661205649   -0.0223607918
 C   -3.7064546605   -0.4101915857   -0.1168587337
 C   -3.2385883557   -1.6748719228   -0.3616541514
 O   -3.8051429601   -2.8939083384   -0.5274891927
 N   -1.8752947948   -1.5740069713   -0.4246124910
 H    1.1144866801    1.8347572287    0.4359625028
 H   -0.5942117176    2.2810083769    0.1691308505
 H   -0.1487935333    1.3438389160    1.5933943592
 H    0.1598421164    0.3836564443   -1.3007549100
 H    0.6220546890   -0.9487070896    1.1154934194
 H   -4.7284646300   -0.0842125155    0.0008549131
 H   -4.7586101292   -2.8000071576   -0.4386879099
 H   -1.2144486638   -2.3220872020   -0.5552745451