17

 O   -0.1033730342    1.4185251990    0.0673691043
 C    0.0096859226    0.0067795493    0.0264945873
 C    0.8001676945   -0.5109928605    1.2416369467
 O    0.7624516045   -1.9274174124    1.3912861705
 C   -0.4570380745   -2.5509533447    1.1187556445
 C   -1.8363257012   -2.0435102016    1.4515684854
 O   -1.9193843317   -0.6204733365    1.4340901509
 C   -1.3871738039   -0.5943199206    0.0732357849
 C   -1.3646313480   -2.1265909248   -0.0003298182
 H    0.7817240956    1.7967808976    0.0441998064
 H    0.4839035625   -0.3281186669   -0.9108112764
 H    1.8606875846   -0.2528673132    1.1455159333
 H    0.3946116497   -0.0141993047    2.1297036903
 H   -0.3431099392   -3.6248898698    1.2333712441
 H   -2.5889531494   -2.5813789057    2.0180802838
 H   -2.0812780539   -0.0815016829   -0.5964610627
 H   -1.6621067882   -2.7354173717   -0.8442066752