22

 C   -0.1019161546    1.6270312145   -0.0520329485
 C    0.1943664222    0.1274815926    0.0337936229
 C    0.4320716132   -0.5073738884   -1.3431613172
 C    0.8244391938   -1.9759263821   -1.2892957381
 C   -0.2249199591   -2.9393160274   -0.7653691597
 C    1.8134807933   -2.4987309946   -2.3000925217
 N    2.2258993216   -2.2213106546   -0.9426742314
 C    2.7182251084   -3.1771362312   -0.0751241457
 O    3.4650355291   -4.0753488267   -0.3817283593
 H    0.7282526652    2.1680938566   -0.5191962613
 H   -1.0001506671    1.8212497066   -0.6488196059
 H   -0.2631043227    2.0574279029    0.9409806747
 H    1.0840226967   -0.0391680368    0.6538121600
 H   -0.6370799791   -0.3769039781    0.5408759455
 H   -0.4705115506   -0.4069772118   -1.9609190752
 H    1.2282878392    0.0443224227   -1.8559658953
 H   -1.1278095376   -2.8824230222   -1.3823779390
 H    0.1385680202   -3.9705808796   -0.7876566822
 H   -0.5136356197   -2.7045684519    0.2636706646
 H    1.7567658771   -3.5455002113   -2.5886435222
 H    2.2050703735   -1.8308316440   -3.0630186283
 H    2.4046065670   -2.9823524253    0.9688918930