21

 C   -0.3349436377    1.3187407471    0.3343385608
 C   -0.0084099711   -0.1402214092   -0.0301198508
 C    0.8071057705   -0.2947880858   -1.2921101528
 C    2.0385094847   -0.8086354790   -1.2698280011
 C    2.9258220312   -1.0092073155   -2.4676206424
 C    2.2120282150   -0.8375686104   -3.7873407441
 O    1.0706245116   -1.6745423571   -4.0041135641
 C    0.8590266189   -0.2694101891   -3.8360767284
 C    0.1490384985    0.1629861935   -2.5744459287
 H    0.5818553032    1.9026400474    0.4658529169
 H   -0.9350003558    1.8070153263   -0.4399034379
 H   -0.9032752827    1.3655891966    1.2684249384
 H    0.5281168908   -0.6078679194    0.8025380130
 H   -0.9523633461   -0.6930985280   -0.1424154749
 H    2.4590806191   -1.1182612430   -0.3151311352
 H    3.7702111906   -0.3038343752   -2.4355407278
 H    3.3818355684   -2.0087421916   -2.4332672335
 H    2.8549403350   -0.7315140532   -4.6620331029
 H    0.5400701500    0.2403263699   -4.7464036024
 H   -0.8896215605   -0.1981046748   -2.6064831245
 H    0.0742624663    1.2601009006   -2.5880593979