17

 C   -0.0366563464    1.6287606687   -0.0125428132
 C   -0.0036211502    0.0894150074   -0.0078855633
 C    0.6894337241   -0.4637620297    1.1510926403
 C    1.2648371817   -0.8994609482    2.1137599141
 C    1.9637853770   -1.4376335811    3.2831099896
 C    2.0070258661   -2.8986235441    3.3156303927
 C    2.0485579008   -4.1062891689    3.3523772077
 C    2.0941827289   -5.4658827540    3.3926064120
 C    2.1353357549   -6.6720324432    3.4295069018
 H    0.9765919119    2.0394507681   -0.0211164509
 H   -0.5648948999    1.9951993960   -0.8976378916
 H   -0.5474415350    2.0094619917    0.8760387319
 H   -1.0293360706   -0.2997302638   -0.0363688794
 H    0.4802185456   -0.2700204868   -0.9249784699
 H    2.9918021153   -1.0485420526    3.3142848251
 H    1.4850082308   -1.0733100852    4.2035602737
 H    2.1712496250   -7.7325411541    3.4611046593