14

 O   -0.0472917330    0.0221144439    0.0816789812
 C   -0.0427492283    1.2141385491   -0.0003100151
 N   -1.0443166264    2.1703810569    0.0172477180
 C   -0.1706496769    3.3373873683    0.0040116730
 C    0.4351700606    3.7288879478    1.3638821603
 O    1.4659617058    2.7201887380    1.2522924572
 C    1.0437524892    2.3495031481   -0.0883279072
 C    2.0742772027    2.3153322277   -1.0810186089
 C    2.9242859097    2.2647868707   -1.9293115452
 H   -1.9916641517    2.0814818959    0.3589852637
 H   -0.4069621457    4.1041106970   -0.7310863012
 H    0.8728804575    4.7336967399    1.3800744546
 H   -0.2030356321    3.5838310164    2.2416268817
 H    3.6804780087    2.2154746302   -2.6739914721