17

 C    0.0086514037    1.4012248354   -0.0966453614
 C   -0.0117002989   -0.0843387877    0.0082155027
 O    0.9157607127   -0.8464321975   -0.7748729570
 C    0.1212634568   -2.0275895877   -0.4338050789
 C    0.4290841431   -2.2237978874    1.0830121245
 C   -0.3237827849   -0.9107694181    1.2736430565
 C   -1.1001325248   -1.1006131789   -0.0289967810
 C    0.1524638480   -3.0935023883   -1.3885598043
 C    0.1583151666   -4.0067520629   -2.1702170397
 H    0.9668324727    1.8002312060    0.2526296372
 H   -0.1405683066    1.7213052256   -1.1323436292
 H   -0.7852983645    1.8351251059    0.5184345258
 H   -0.1221056108   -3.0725542914    1.4937357492
 H    1.4897368699   -2.2809439886    1.3443043429
 H   -0.6720964531   -0.4590653500    2.1935315336
 H   -2.1496093612   -1.0904791577   -0.2881829805
 H    0.1704550212   -4.8091506267   -2.8659126703