17

 C   -0.0788928687    1.5156373739   -0.0585123475
 C   -0.0402727035    0.0171744078    0.0838067490
 O    1.2561362121   -0.6136604256   -0.0426045890
 C    0.5999631518   -0.6562754260    1.2108729650
 C    1.2760085260   -0.1261634510    2.5000684824
 C    0.9040976608   -1.4645827242    3.1608551297
 N   -0.5712720832   -1.5710995311    3.0757879472
 C    0.2690886917   -1.9636868706    1.9082024915
 H    0.7302356817    1.9827703468    0.5086754952
 H    0.0244685013    1.8082135629   -1.1087270416
 H   -1.0340458607    1.9064838009    0.3084012189
 H   -0.8338743388   -0.5229847764   -0.4357022931
 H    2.3510463907   -0.0083985401    2.3439956507
 H    0.8573517711    0.7691326560    2.9657957109
 H    1.4622853710   -2.0039988682    3.9151112393
 H   -0.8378160351   -2.4370935628    3.5452663026
 H    0.2231259418   -2.9560657123    1.4777227789