19

 C   -0.0889000122    1.5467813655   -0.2460085027
 C   -0.0240645148    0.0544102276   -0.0102516778
 O   -1.2285883356   -0.6110858855   -0.3069702231
 C    1.2522945959   -0.7244243900   -0.2403796327
 C    0.6752197851   -0.5778923572    1.1583631325
 C    1.3816710122    0.1480651031    2.2984181062
 N    1.9945267451   -0.8528381650    3.1828722276
 C    2.3697028992    1.1474649946    1.8349743278
 N    3.1890215271    1.8992293361    1.5155681426
 H    0.8470778213    2.0513635605   -0.0004171203
 H   -0.3022809855    1.7475556715   -1.3032342541
 H   -0.8958399412    1.9906898260    0.3460668338
 H   -1.3881182092   -0.5171584719   -1.2531087547
 H    1.1736332670   -1.6971304141   -0.7123918070
 H    2.1503285097   -0.1630414453   -0.4795614973
 H    0.1587966403   -1.4523317670    1.5401933771
 H    0.6332942748    0.6879271236    2.8925031196
 H    2.6969012878   -1.3736298141    2.6638681082
 H    2.4798866430   -0.3923491083    3.9475721744