16

 O    0.0006969367    1.3725001062   -0.3792655878
 C    0.0434978524    0.0372195795    0.0960083708
 C   -1.3391787664   -0.5335419377    0.2409235280
 C   -2.3585665735    0.0854365002    1.1804034072
 O   -3.3453115101   -0.9359999692    1.4175562904
 C   -2.9333255945   -2.1487495782    0.9367901463
 N   -3.4758115201   -3.2615898938    1.1775798472
 C   -1.7251965576   -1.9416070191    0.0858582017
 O   -1.9746145991   -0.9860779265   -0.9643669169
 H   -0.3769308368    1.3494436117   -1.2657471707
 H    0.6346466316   -0.6164989616   -0.5602828886
 H    0.5386330715    0.0772648123    1.0719235094
 H   -1.9008678449    0.3715555794    2.1343978351
 H   -2.8569108691    0.9549610301    0.7454803111
 H   -4.2681535661   -3.1475281754    1.8128630900
 H   -1.0615761540   -2.7663269481   -0.1447791432