16

 O   -0.2590460791    1.3660547874    0.0522440858
 C   -0.1294730278   -0.0212175294    0.1117767493
 C   -0.7886428769   -0.7853522921    1.2209515786
 C   -1.3833399173   -0.8331139485   -0.1872088774
 C   -2.6756013595   -0.0529172522   -0.4440417017
 C   -3.8469225810   -0.6808215565    0.1662443939
 N   -4.7693205330   -1.1701326057    0.6608183354
 C   -1.2295451108   -2.0439323734   -0.9451279266
 C   -1.1090658964   -3.0518936208   -1.5895394596
 H    0.2159429354    1.7459648489    0.7990088571
 H    0.7955580040   -0.4166137967   -0.3035650061
 H   -0.3153236275   -1.6837588723    1.5976101311
 H   -1.3486229671   -0.2129093072    1.9533011232
 H   -2.5639708744    0.9610544768   -0.0508115750
 H   -2.8429823810    0.0374854999   -1.5221550623
 H   -1.0076120077   -3.9462312982   -2.1530536057