18

 C    0.1258258673    1.5532627739   -0.0685883781
 C   -0.0177629526    0.0365278825    0.0767113817
 O    0.4544942991   -0.6058972832   -1.1002286435
 C    1.4215289650   -1.6090782129   -0.7768247662
 C    1.6270386445   -1.5093257538    0.7055309938
 C    0.8046611994   -0.5785518810    1.1899276261
 N    0.6067189603   -0.1466884872    2.5011500041
 C    1.2473519986   -0.6213605482    3.6168132235
 O    2.0884579221   -1.4899037663    3.6243963764
 H    1.1793763813    1.8313778128   -0.1608904334
 H   -0.4045150192    1.8863425700   -0.9645868515
 H   -0.3050721945    2.0832161121    0.7892893636
 H   -1.0878956282   -0.2025954709    0.2188192891
 H    1.0459081182   -2.5995377732   -1.0810478100
 H    2.3403240732   -1.4226530033   -1.3529759382
 H    2.3188898969   -2.1107659770    1.2721434153
 H   -0.0705244554    0.5860002760    2.6480454797
 H    0.8965335241   -0.1040712101    4.5307490178