23

 C    0.1815651575    1.2216063956    0.4923604937
 O   -0.1745269606   -0.1064694677    0.1929676755
 C    0.3379705778   -0.5673724354   -1.0409063446
 C    1.8670990168   -0.9365125774   -1.0152101147
 C    1.7511516981   -2.4400222930   -1.3320534739
 C    0.7186351093   -2.4209457809   -2.4965352683
 C   -0.2420877890   -1.9503797477   -1.3673453185
 C    0.5725166451   -2.8677365209   -0.3958325890
 C    0.2064144785   -4.3457283949   -0.3471345718
 H    1.2697169984    1.3502581716    0.5970000662
 H   -0.1711715335    1.9211889125   -0.2825793494
 H   -0.2929590671    1.4805673735    1.4422673530
 H    0.1070314920    0.1686485999   -1.8265052768
 H    2.4521992106   -0.3897443176   -1.7606501226
 H    2.2970772802   -0.7451711109   -0.0275015235
 H    2.6773446335   -3.0146635889   -1.3878935953
 H    0.9038443009   -1.7355671199   -3.3301663772
 H    0.4727744133   -3.4076845293   -2.8876235447
 H   -1.3273936654   -2.0118343900   -1.4546931989
 H    0.6393245350   -2.4804615024    0.6253668867
 H    0.1053241554   -4.8010106134   -1.3364432066
 H    0.9699139707   -4.9119812923    0.1980876845
 H   -0.7439689375   -4.4884967406    0.1789441062