17

 C    0.0547634205    1.4406462181   -0.3074119598
 C    0.0426618371   -0.0095191390    0.1005665248
 O    1.2956550394   -0.7097142881    0.1230193253
 C    0.5936343335   -0.5507141027    1.3587218438
 C    1.2595129495    0.3054486232    2.4114489217
 C   -0.0297378541   -1.8503206894    1.8793494638
 C    0.9334444472   -2.7050051813    2.5741814217
 N    1.6985344763   -3.3674366123    3.1316007475
 H    0.8652418206    1.9955730162    0.1673282920
 H    0.1821410150    1.5193200530   -1.3919654609
 H   -0.8971059372    1.9162622030   -0.0476897081
 H   -0.7628427407   -0.5881301293   -0.3595743793
 H    1.7152737130    1.1924459440    1.9715201914
 H    0.5340564265    0.6221187594    3.1687883870
 H    2.0457566525   -0.2639809057    2.9166443317
 H   -0.8492288860   -1.6201599649    2.5709010503
 H   -0.4536164030   -2.4106962743    1.0408437473