18

 O    0.1244168291    1.4240483138    0.1870400955
 C    0.0084203467    0.0363127394    0.0260795919
 C   -1.3828849526   -0.6372246750   -0.1475650043
 C   -1.9595316167    0.0478054280   -1.3890715008
 C   -2.7246169636   -1.0238503649   -2.1863773961
 C   -1.3169313626   -1.5869068047   -2.3705289912
 C   -0.6653393997   -1.7858386587   -0.9818773592
 C    0.3227617828   -0.6333547451   -1.3091204602
 N   -0.7335416447   -0.1657350270   -2.3165533623
 H   -0.1490459221    1.8437744286   -0.6359881668
 H    0.5729932961   -0.4312179114    0.8386506516
 H   -2.0420312972   -0.8332090361    0.6970698128
 H   -2.3356824454    1.0666039747   -1.2868871561
 H   -3.4754700918   -1.6215730330   -1.6636529064
 H   -3.1264128757   -0.6304339729   -3.1229702398
 H   -1.0242485271   -2.2355468435   -3.1968542219
 H   -0.4194074365   -2.7354435272   -0.5105308465
 H    1.3203774407   -0.7293490949   -1.7352834501