19

 C   -0.0251920364    1.4786256406   -0.2253372988
 C   -0.0209060572    0.0142284641    0.1359066238
 N   -0.0620947317   -0.5098659085    1.2907189428
 O    0.0364425515   -0.7151441094   -1.0031407362
 C    0.0557090634   -2.1659719001   -0.9916257293
 C    1.3160753542   -2.7181447774   -0.3058748947
 C   -1.2417287857   -2.7529682367   -0.4121827171
 C    0.1201273663   -2.4971292624   -2.4334712094
 N    0.1705301053   -2.8020238010   -3.5460811407
 H    0.8765589459    1.7278776605   -0.7922330606
 H   -0.8822270608    1.7044161272   -0.8665598633
 H   -0.0712551351    2.1001727553    0.6701390093
 H   -0.1015192454    0.2118111329    2.0063624610
 H    1.2705953278   -2.5095489819    0.7617935572
 H    1.3731652958   -3.7976646112   -0.4682427846
 H    2.2097832608   -2.2567234000   -0.7326731564
 H   -2.1091499345   -2.3148254543   -0.9115960392
 H   -1.2562425303   -3.8333181298   -0.5783644277
 H   -1.2903797138   -2.5451215278    0.6554880140