17

 C   -0.0334954222    1.4760512852    0.0363161169
 O    1.4196036262    1.4768714340    0.1110097071
 C    1.4821779163    0.0830012666   -0.3114170639
 C    2.2373288470   -0.9090434198    0.5717156826
 C    1.5759024589   -2.2848644241    0.4014236492
 O    0.7138012574   -2.7310307631    1.4519626384
 C    0.1163828006   -2.3863703795    0.1847406299
 C   -0.6794238773   -1.1235418191    0.1657575829
 C   -0.0057462845   -0.0219074139   -0.1269125473
 H   -0.5022640380    1.8700338622    0.9453695474
 H   -0.3936439054    2.0457802183   -0.8317007031
 H    1.8246656540    0.0240368362   -1.3549775392
 H    3.3022442029   -0.9579261395    0.3269058627
 H    2.1387196138   -0.5984083035    1.6152419944
 H    2.2060044151   -3.0729818219   -0.0095544546
 H   -0.2780293604   -3.2463203751   -0.3561290673
 H   -1.7230365244   -1.1387679529    0.4650932538