17

 C   -0.0130092673    1.4819198554    0.2169637398
 O    1.4326248367    1.5161598135   -0.0909858148
 C    1.2219875328    0.3218353820   -0.8511897122
 C    0.0112690193   -0.0557146708   -0.0773638896
 O   -0.6738665175   -0.9012495039   -0.9949681927
 C    0.3518346216   -1.0376401331   -1.9985686588
 C    0.8408003562    0.3587433050   -2.3877830950
 C    2.2364102133   -0.2071632601   -2.7409058873
 C    1.8735538592   -0.9504654387   -1.4357854943
 H   -0.2027769848    1.7952492641    1.2453501044
 H   -0.5828977251    2.0870947603   -0.4953476205
 H    0.2072849387   -0.5979880875    0.8533395599
 H    0.0929393628   -1.7992580652   -2.7310481410
 H    0.2594767126    1.1199920081   -2.9069951651
 H    2.3018571786   -0.8069215282   -3.6533933265
 H    3.0748481197    0.4874403667   -2.6718800818
 H    2.4306888931   -1.7224504277   -0.9054298647