16

 C   -0.0123612207    1.3440071984    0.0277413045
 O    0.0751000474   -0.0864460490   -0.0245215962
 C    0.6996315006   -0.5866575893   -1.1049249906
 O    1.1769154965    0.0919661969   -1.9807756545
 C    0.6745227129   -2.1085524186   -1.1038417603
 C   -0.7064462839   -2.5748922471   -1.6150363360
 N    1.8137106181   -2.5792997112   -1.8856049622
 H    0.9855829753    1.7889393895    0.0420311140
 H   -0.5561184090    1.7293851487   -0.8384724043
 H   -0.5469313603    1.5749153382    0.9490334816
 H    0.7832160875   -2.4389754421   -0.0640713087
 H   -0.8765624667   -2.2196668897   -2.6367323609
 H   -0.7479672916   -3.6688142081   -1.6199921652
 H   -1.5147000946   -2.2072265028   -0.9754986029
 H    1.6363218780   -3.5170528583   -2.2301741821
 H    1.9224100703   -1.9700660354   -2.6920408360