20

 O   -0.0884376425    1.3906087356    0.4136279783
 N    0.0585012063   -0.0108762337    0.3683914276
 C   -1.0310279976   -0.5702610992    0.0479607993
 C   -2.4324450269   -0.1134340972   -0.3089485240
 C   -2.7709068220   -1.6017561593   -0.6465128468
 C   -2.8261572290   -2.0055397807   -2.1332295745
 C   -1.8478011658   -3.1905417299   -2.2434095816
 C   -0.6677681325   -2.7913106799   -1.3325635551
 C   -1.3409281831   -2.0423946495   -0.1561235901
 H    0.7969618387    1.6775761131    0.6610528525
 H   -2.9779953667    0.3034657724    0.5435596143
 H   -2.5003418588    0.6017937998   -1.1344657725
 H   -3.6079818576   -2.0140950273   -0.0802759680
 H   -3.8370524988   -2.2529623330   -2.4694953176
 H   -2.4722937781   -1.1791001283   -2.7622793522
 H   -2.3238891398   -4.1004116265   -1.8567612655
 H   -1.5402657380   -3.3994743135   -3.2725699407
 H   -0.0789348477   -3.6502320119   -1.0007611470
 H    0.0141604822   -2.1197545697   -1.8641395305
 H   -1.3228235524   -2.6221749113    0.7707358341