20

 C    0.1162400829    1.4650470607    0.0939745104
 C   -0.0110181836   -0.0615538595    0.0315017852
 C   -1.4841817192   -0.4857858534    0.0085952809
 C    0.7926242604   -0.6685189205   -1.1642293849
 O    1.7911413420   -1.5155020796   -0.5483883647
 C    1.5867794932   -1.4059116821    0.7838017221
 C    2.4983080631   -2.1931812152    1.6763339821
 O    2.1860703368   -1.9952659045    3.0296738564
 N    0.6544711347   -0.6592850499    1.2116700228
 H    1.1675452415    1.7664545853    0.1249932762
 H   -0.3506416773    1.9299618739   -0.7812788176
 H   -0.3738946635    1.8508991893    0.9919346412
 H   -1.9938902780   -0.0725814603   -0.8686991961
 H   -1.5742967227   -1.5757463986   -0.0216898215
 H   -1.9967377435   -0.1278286007    0.9055881492
 H    0.1802683623   -1.2897150694   -1.8241160812
 H    1.3100191173    0.0863340873   -1.7632524741
 H    2.4183359804   -3.2570334590    1.4037244160
 H    3.5366253992   -1.8954243507    1.4624939657
 H    1.4374259539   -1.3810566130    3.0422754120