15

 O   -0.0283694364   -0.0120799657   -0.0403544656
 C    0.0027332364    1.1813051185    0.0103741188
 O   -1.1316290973    1.9383074221    0.0800905155
 C   -0.8296367615    3.3492952169    0.0500607834
 C    0.0307049526    3.6673882977    1.2696781794
 O    1.2174149554    2.8712271799    1.1999057760
 C    1.2333577519    2.0886048937    0.0042901489
 C    1.1191391772    3.0259320302   -1.2010580571
 O   -0.1621923137    3.6764257982   -1.1342492560
 H   -1.7867179050    3.8694266912    0.0471189816
 H    0.2960993277    4.7311748121    1.2686049309
 H   -0.5115446549    3.4318921543    2.1924784569
 H    2.1491382372    1.5000140463    0.0040191682
 H    1.9166082130    3.7769639383   -1.1592790852
 H    1.1832371173    2.4819136763   -2.1495625257