18

 C   -0.0059336706    1.4665701158    0.0103732361
 N    0.0098348302    0.0150176121   -0.0428051682
 C    0.7724254814   -0.5007392639   -1.1672816126
 C    0.5750543786   -2.0041819788   -1.2351512303
 O    0.9320402358   -2.6618532403   -0.0112253094
 C    0.5865114496   -2.0711602861    1.1680205734
 N    0.4389205698   -2.7365515663    2.2335779932
 C    0.5175522702   -0.5591078709    1.1970448956
 H    1.0014197207    1.9060213013    0.1430867941
 H   -0.4330479387    1.8655850547   -0.9147202587
 H   -0.6303671693    1.7977088744    0.8458318440
 H    0.4020328900   -0.0531493565   -2.0959557746
 H    1.8521289095   -0.2607661949   -1.0877505834
 H   -0.4757989425   -2.2262715812   -1.4585800268
 H    1.2047089919   -2.4544231505   -2.0064202586
 H    0.5758899243   -3.7319247766    2.0434540632
 H    1.5417499323   -0.1915886698    1.4207496873
 H   -0.1188016134   -0.2716079625    2.0357099856