18

 C    0.0041902200    1.5373954449   -0.0493083130
 N    0.0666886653    0.0816077789    0.0320609932
 C    1.0591184717   -0.6108525086   -0.8327696876
 C    1.3362643938   -1.6046890309    0.3529086304
 C    2.2761545473   -0.5036703582    0.9429866857
 C    2.4496389908   -0.0159071020   -0.4583435976
 O    3.3714762279    0.4125603182   -1.0948968126
 C    0.7425499355   -0.5347779746    1.1855579547
 C    0.1445213633   -0.5583028139    2.5576428329
 H    0.9767589538    2.0389463460    0.0856507961
 H   -0.3929035848    1.8216711316   -1.0286187896
 H   -0.6864359306    1.9101031579    0.7132805187
 H    0.7846801778   -0.8379882368   -1.8607496606
 H    1.4210466168   -2.6775607466    0.4218043022
 H    3.0078156876   -0.6050150044    1.7326003678
 H    0.1397129382    0.4408068564    3.0061113793
 H   -0.8869710495   -0.9206898908    2.5110348902
 H    0.7151101250   -1.2179925472    3.2178319299