19

 C    0.0114132360   -1.2280971442   -0.0722016865
 C   -0.0143618915   -0.0270665133   -0.1128577057
 C   -0.0070659328    1.4291278489   -0.1524296946
 C    1.3968990360    2.0243364531    0.1377878821
 C    1.4138926347    3.5213240360    0.1064900565
 C    1.6314385013    4.3686775360    1.1094364160
 C    1.5707467041    5.7860254793    0.6206503656
 O    1.2719193432    5.6880261456   -0.7703831880
 C    1.1894226730    4.3217180253   -1.1555506391
 H    0.0184442708   -2.2893218717   -0.0405547417
 H   -0.3578916963    1.7694968703   -1.1343146812
 H   -0.7207397291    1.8248340385    0.5805645394
 H    1.7350416959    1.6676942152    1.1150032309
 H    2.0976767443    1.6230177313   -0.6053296946
 H    1.8397107760    4.1050169669    2.1393353346
 H    0.7913199301    6.3779631369    1.1263381592
 H    2.5237046396    6.3211135005    0.7644192329
 H    1.9499543830    4.0942748356   -1.9218230705
 H    0.2071045316    4.1282376196   -1.6157016352