16

 O    0.1780954164    1.3397564437   -0.0176423606
 C    0.1248257605   -0.0606157588   -0.0708641927
 C   -0.0843723244   -0.6303776648   -1.5138844894
 C   -0.5522773643   -1.9509259136   -0.8678042238
 C   -1.1895653217   -0.8150361610   -0.0426684566
 C   -1.6120012708   -0.1024579750   -1.3593582430
 O   -1.1762307545   -0.9515093294    1.4176733191
 C    0.2031503452   -0.6453639805    1.3717711282
 N    1.0614692345   -0.6741686411    2.2816802833
 H    0.5124809031    1.5965904577    0.8474222977
 H    0.5277419214   -0.5089888600   -2.4088244848
 H   -1.2334687526   -2.5654795671   -1.4570374015
 H    0.2146077771   -2.5456390336   -0.3670005605
 H   -1.7397650601    0.9758732865   -1.3167085815
 H   -2.3499614792   -0.5993247964   -1.9927995573
 H    0.6658873293   -0.9962368665    3.1675788836