15

 N    0.1737083471    1.4297250445   -0.0117726401
 C    0.0188708953    0.0300094814   -0.0209374987
 C   -1.0716700819   -0.8078962602   -0.0186651788
 O   -2.3546933784   -0.3500227482   -0.0053269950
 C   -0.5987676205   -2.1637712801   -0.0323740159
 C   -1.3781501773   -3.3825848685   -0.0353087380
 O   -0.9327252640   -4.5124334986   -0.0471457189
 C    0.7944709716   -2.0920622012   -0.0427099593
 N    1.1425233209   -0.7912434891   -0.0357759000
 H   -0.2489025619    1.8491875543    0.8105164354
 H   -0.2613561408    1.8612605799   -0.8212208538
 H   -2.9579947788   -1.0991979251   -0.0059301982
 H   -2.4870109935   -3.2259567729   -0.0255273141
 H    1.5158504070   -2.8918451512   -0.0542427769
 H    2.0781727954   -0.4195343750   -0.0402652678