23

 C    0.5117409475   -0.5077617374   -1.5850834585
 C   -0.1102579279    0.1200164258   -0.3351297042
 O   -0.0137200789    1.5428391143   -0.4038237815
 C   -1.5574767505   -0.3492978436   -0.0897473140
 C   -1.6807910173   -1.8940868484    0.0151915450
 C   -2.8053334713   -2.1624842621    1.0414689474
 C   -2.8748084141   -0.8627118825    1.7986849591
 C   -2.2106960483    0.1321381602    1.2042426545
 C   -2.1746639620    1.5563119029    1.6695805664
 H    1.5152067039   -0.1025867189   -1.7406672566
 H    0.5843656795   -1.5959390213   -1.5071969913
 H   -0.0916359739   -0.2766820182   -2.4727577132
 H    0.4927213505   -0.1504544200    0.5413245128
 H   -0.4980971889    1.8291148596   -1.1863618118
 H   -2.1526347831    0.0215654227   -0.9442386815
 H   -1.8569614025   -2.3727277383   -0.9512755094
 H   -0.7388616195   -2.2968749819    0.4064462505
 H   -3.7642957687   -2.3791410308    0.5482441580
 H   -2.5903094904   -3.0276529974    1.6795384714
 H   -3.4567650243   -0.7470113945    2.7078993449
 H   -2.7495925119    1.6777006629    2.5924206530
 H   -1.1523719058    1.9057032665    1.8375752085
 H   -2.5987583120    2.2293429403    0.9133644206