16

 O    0.1658674378    1.3317629553   -0.1022802196
 C    0.1088396284   -0.0298832072   -0.1025525855
 C    0.5839906802   -0.9511384615   -1.2251233348
 C    0.0250538840   -1.9191106571   -0.1553678413
 C    0.5201426869   -1.0306516325    1.0333014437
 N   -0.8059434787   -0.8905329699    1.7149205569
 C   -1.1514514929   -0.9535367835    0.2651101091
 C   -2.5245260646   -0.9200879965   -0.2791813926
 O   -3.5226077460   -0.8530923384    0.3966771402
 H   -0.1788247506    1.6388267638    0.7473358837
 H    0.0468349310   -0.8935924056   -2.1747991997
 H    1.6639227826   -0.9863630843   -1.3932883886
 H   -0.0318450981   -3.0059862077   -0.1731312259
 H    1.4687461542   -1.0902056236    1.5682956541
 H   -1.0779845865   -1.7538220074    2.1905201950
 H   -2.5749023977   -0.9655149639   -1.3909705545