22

 O   -0.0642629968    1.4852760256    0.0107779554
 C    0.0400561398    0.0694065823    0.0020398518
 C   -1.3706989959   -0.5042402873    0.0124516492
 C   -1.3946371748   -2.0352405256    0.0043170692
 C   -2.8145640049   -2.6118156022    0.0147829026
 C   -2.8374026231   -4.1427939420    0.0066614051
 C   -4.2746849624   -4.7009325961    0.0174997316
 C   -4.3135448292   -6.1617270299    0.0101761481
 N   -4.3247568137   -7.3172974705    0.0039213255
 H    0.8240259151    1.8534833283    0.0042710707
 H    0.5794269226   -0.2852962875   -0.8919252512
 H    0.5964541217   -0.2949874614    0.8815550553
 H   -1.8930924860   -0.1226474137    0.8984490677
 H   -1.9099708992   -0.1130473444   -0.8591292603
 H   -0.8602302533   -2.4077919370   -0.8804801147
 H   -0.8433930531   -2.4173778494    0.8745777013
 H   -3.3509950523   -2.2428549731    0.8997784140
 H   -3.3678328029   -2.2332923605   -0.8556876495
 H   -2.3142090360   -4.5224136250   -0.8783991321
 H   -2.2973240994   -4.5319548046    0.8773153480
 H   -4.8134007378   -4.3444483823    0.9035285033
 H   -4.8303078985   -4.3350699238   -0.8541763909