15

 C   -0.0008141820    1.3888019725   -0.0784782852
 N    0.0489532408   -0.0490422318    0.0132403132
 N    0.0819457326   -0.8151743406   -1.1262228502
 C    0.1194982743   -2.0656826395   -0.6846760569
 N    0.2424042453   -3.1313646939   -1.5775216448
 C    0.0945694976   -2.1424763860    0.7314002488
 C    0.0478307162   -0.8176946101    1.1199457959
 O    0.0069246083   -0.2192375444    2.3330629063
 H    0.8693062166    1.7632718730   -0.6259800738
 H   -0.9075739827    1.7095766203   -0.6011765915
 H    0.0002018149    1.8030253749    0.9301343474
 H    0.0337143422   -2.8382502106   -2.5239820065
 H   -0.3236747566   -3.9302132404   -1.3242785396
 H    0.1313417257   -3.0153698208    1.3624445286
 H    0.0444876466   -0.9009864224    3.0103894384