19

 C   -0.1833577442    1.4176708750   -0.1407499022
 C   -0.0271738600   -0.1008951225   -0.0077557198
 O   -1.2809669718   -0.7623991254    0.0703340853
 C   -1.9570584211   -0.6348611542    1.2935867498
 C   -3.1676939501   -1.5537324636    1.2606935551
 O   -3.9404404814   -1.6660568722    2.1739944441
 C    0.7336729815   -0.6595017330   -1.1955859453
 C    0.3691802459   -1.9045921283   -1.8769001886
 O    0.0738876641   -0.6286279749   -2.4577766023
 H    0.7989661833    1.8950319111   -0.2123872380
 H   -0.7500861298    1.6481829353   -1.0465292666
 H   -0.6981948945    1.8496842782    0.7215374612
 H    0.5610235529   -0.3323219234    0.8976475354
 H   -1.3216175268   -0.9228737474    2.1485233167
 H   -2.3091332637    0.3907827717    1.4847483198
 H   -3.2746646221   -2.1175326950    0.3079738006
 H    1.7763797827   -0.3364099516   -1.2261464045
 H    1.1389487712   -2.4819439301   -2.3871084252
 H   -0.4952900064   -2.4614882898   -1.5280674656