22

 C   -0.1595883909    1.4708316451   -0.9409244422
 C   -0.0320348510    0.1408451272   -0.1899645378
 C   -1.3685204648   -0.4684663032    0.1775423242
 C   -2.1545669475   -1.2538594207   -0.8333066311
 C   -1.5339591199   -1.9452867897    0.3645446407
 O   -2.2001778242    0.3683206779    0.9775283456
 C   -1.9085910677    0.5184850063    2.2915555440
 C   -2.9283831836    1.4302499866    2.9280044351
 N   -0.9132336791   -0.0518969148    2.8344711190
 H    0.8270416358    1.8798053230   -1.1787308110
 H   -0.7095526416    1.3472102550   -1.8800107169
 H   -0.6946365305    2.2119149147   -0.3400133012
 H    0.5044406658   -0.5864262595   -0.8106688230
 H    0.5565022032    0.2704924750    0.7228681558
 H   -3.2302939005   -1.1212246573   -0.8319431544
 H   -1.7150909958   -1.4056718462   -1.8132843041
 H   -0.6642142952   -2.5759072268    0.2171094329
 H   -2.1981109736   -2.2739306598    1.1544170191
 H   -2.7261641037    1.5621992593    3.9920899181
 H   -2.9174001633    2.4081578129    2.4369765955
 H   -3.9341183142    1.0181530157    2.8010093141
 H   -0.8706686577    0.1838287093    3.8235413376