16

 C   -0.0176223333    1.4438674528    0.0175052713
 C    0.0140408291   -0.0527741802   -0.0259540586
 C   -0.9459969582   -0.9684106740    0.7387792423
 C    0.5491942867   -1.0675797815    0.9632693395
 C    0.5844247140   -2.1019961436   -0.2019643247
 C   -0.9778723195   -2.1532040288   -0.2636483559
 O   -1.0083517731   -1.5993932922   -1.5993385780
 C    0.2554837293   -0.9915904081   -1.2484925474
 H    0.9417942621    1.8755591099   -0.2894991370
 H   -0.7925338649    1.8396960427   -0.6491393083
 H   -0.2328361109    1.8055050160    1.0285979358
 H   -1.7206593033   -0.5861770506    1.3898945866
 H    1.1409070017   -0.9477536978    1.8592436101
 H    1.2546167516   -2.9433351751   -0.3574105342
 H   -1.6273852654   -3.0147852781   -0.1170120683
 H    0.8558056742   -0.6714369515   -2.0995952532