15

 O   -0.0432179591    1.3477122133    0.0094301886
 C    0.0682968827   -0.0200175969   -0.0254697020
 C    0.8422868693   -0.9069112735   -0.9873035516
 N   -0.0567869911   -2.0553241789   -0.5571613263
 C   -1.0590002520   -0.9969502043   -0.0376613130
 C   -0.2317452382   -0.9057563226    1.2174647791
 C    0.3900182514   -2.2548990706    0.8913662752
 C   -0.2836815742   -3.3963766167    1.5055960907
 N   -0.8088683045   -4.2861521562    2.0227905016
 H    0.6801051359    1.7085760234    0.5347537446
 H    0.6347620302   -0.6666984415   -2.0325942840
 H    1.9145626408   -1.0846050995   -0.8479712830
 H   -2.1140002739   -0.9587327833   -0.2628069257
 H   -0.4937430778   -0.4699137189    2.1727345331
 H    1.4729239805   -2.3786949938    1.0061323224