12

 N   -0.1159151777    1.3054361474    0.0099303542
 N    1.0830445763    1.9162635673    0.0022766805
 H    1.0269427846    2.9252649256    0.0084180201
 C    2.2923327868    1.3092645060   -0.0122614377
 N    2.4707186234    0.0099596177   -0.0211479398
 C    1.3171646744   -0.6828064324   -0.0143810007
 N    1.1167016915   -1.9881668263   -0.0197428230
 C   -0.2589460653   -2.0605916245   -0.0075381692
 N   -0.9749317881   -0.9355157284    0.0053256320
 C    0.0061106358    0.0014446826    0.0015408758
 H    3.1454490134    1.9807651414   -0.0163751269
 H   -0.7452400850   -3.0295147164   -0.0084290952