22

 C   -0.5326248428    1.2967653522   -0.2954246950
 C    0.1948949951   -0.0369932398   -0.2363304134
 C    1.6990783409   -0.1028653333   -0.6205812414
 C    1.9013282171   -1.1450691966    0.5099498380
 C    0.5606322803   -0.6698667448    1.1363027371
 C    0.6887475423    0.1897442838    2.4282482485
 C    0.2249256733   -1.0453908853    3.2464519668
 C   -0.3260151583   -1.6576206891    1.9305411829
 H    0.0088771188    2.0716787186    0.2583097465
 H   -0.6349315214    1.6414063003   -1.3306074426
 H   -1.5410561409    1.2262887262    0.1289543393
 H   -0.3598303104   -0.7832686379   -0.8204178280
 H    1.9546616268   -0.3983895551   -1.6412742299
 H    2.2067714363    0.8409593247   -0.3959560303
 H    1.8276380109   -2.1712367002    0.1347331815
 H    2.8028837964   -1.0635793104    1.1240667596
 H    1.6698690976    0.6166213834    2.6559622013
 H   -0.0539895650    0.9929591821    2.4611761043
 H    1.0707346410   -1.6171858235    3.6380393161
 H   -0.4821405523   -0.8731052107    4.0613448269
 H   -1.3916220774   -1.4404735229    1.7961646208
 H   -0.1659451483   -2.7254866618    1.7531375010