14

 C   -0.2417990643    1.2004160202   -0.4673673878
 C    1.0859200121    1.2571562677    0.2363150400
 C    0.3427343278   -0.0535613151    0.1573310696
 C   -0.2697860294   -0.6517394325    1.3556473571
 C   -0.1593710317   -0.3722018770    2.6822088310
 O   -0.9314099876   -1.2048659287    3.3775702829
 N   -1.5496653255   -2.0648281467    2.4161241670
 N   -1.1510945569   -1.7177612437    1.2779027422
 H   -1.0964102614    1.6496834765    0.0253256474
 H   -0.2611668173    1.2590602523   -1.5494347984
 H    1.9867938449    1.3589953769   -0.3574630607
 H    1.1290407143    1.7672465993    1.1923554095
 H    0.7262233299   -0.7872355970   -0.5445013847
 H    0.4089761450    0.3515436678    3.2420227849