19

 C   -0.2244137464    1.5334086658   -0.0488101373
 C   -0.1305613349    0.0803442203   -0.0424210138
 C   -0.0587877732   -1.1231309672   -0.0310065041
 C    0.0448119456   -2.5602525875   -0.0409583381
 C    1.2252360425   -3.1262921804   -0.8322330400
 C    2.5622836276   -2.7582777352   -0.2196621752
 O    3.4605673273   -3.5387347027   -0.0328271983
 C   -0.3946111378   -3.3216833166    1.2040077746
 C   -1.2463613755   -3.3661856290   -0.0314048770
 H    0.4858386349    1.9716669981   -0.7586313231
 H   -1.2271215732    1.8673535589   -0.3380887630
 H   -0.0060708128    1.9541545759    0.9390816849
 H    1.1688338377   -4.2162266581   -0.9005793107
 H    1.2005711914   -2.7199857563   -1.8531759667
 H    2.6635295780   -1.6848040463    0.0535488059
 H    0.1778491091   -4.2046895241    1.4674983155
 H   -0.7435846179   -2.7390553760    2.0477589688
 H   -2.1749700911   -2.8082419917   -0.0332196149
 H   -1.2640919015   -4.2796100079   -0.6159963573