15

 O   -0.2405237221   -0.0073302264    0.0117292126
 C   -0.0859634078    1.1788752712   -0.0102223530
 N    1.1440911947    1.8612529448   -0.0068434906
 C    1.1246359497    3.3198591945    0.0226155149
 C    1.1302118506    3.8721632455    1.4670020218
 C    1.1106697926    5.3319531686    1.4838550719
 N    1.0948791723    6.4867839722    1.4615965006
 C    2.3918714711    1.2123643784   -0.0327908977
 O    2.5787955817    0.0307690225   -0.0141901290
 H   -0.9260667839    1.9021928105   -0.0448366024
 H    1.9923440668    3.7004528599   -0.5214955250
 H    0.2372927965    3.6767466373   -0.5056671868
 H    0.2600737880    3.4932876725    2.0142560626
 H    2.0199861641    3.5170389800    1.9983807608
 H    3.2113443358    1.9581078085   -0.0826901507