17

 C   -0.0953042699    1.4595286247    0.0389534953
 N    0.0496031846    0.0140601380   -0.0699098518
 C    0.5547084043   -0.6595993005   -1.2402024950
 C    1.3381984033    0.1349858708   -2.2875445727
 C    2.5580023684    0.7351420894   -1.5542587743
 C    2.6013284056    0.0772290566   -0.1669663154
 O    3.5334865670    0.1192549127    0.5973685529
 C    1.3279432020   -0.6926784975    0.0540940375
 H    0.5892428131    2.0651214441   -0.5695129094
 H   -1.1179124927    1.7173382930   -0.2544804543
 H    0.0359537719    1.7443734298    1.0865837820
 H   -0.0268017779   -1.5163761646   -1.5719708632
 H    1.6596284105   -0.5481116273   -3.0791123930
 H    0.7123008286    0.8969445793   -2.7634735829
 H    3.5021625831    0.5225198221   -2.0631398045
 H    2.5111859458    1.8235778391   -1.4387929311
 H    1.3508881123   -1.5223732096    0.7542575100