13

 C    0.0420308235    1.4714536697   -0.0304298354
 N    0.0112305359    0.0303035616    0.0710756925
 N   -0.0579987103   -0.7417131452   -1.0629616417
 N   -0.0762938193   -1.9966116351   -0.7817745005
 C   -0.0174965363   -2.0973690764    0.5958852329
 N   -0.0003181654   -3.0583570377    1.4989809142
 O    0.0703857894   -2.3539044559    2.6940436643
 C    0.0942229328   -1.0125759978    2.4972506587
 C    0.0390202023   -0.7963730379    1.1551345372
 H    0.9646724765    1.8715310010    0.4013420920
 H    0.0005183557    1.7211853130   -1.0908619403
 H   -0.8175298764    1.9152153370    0.4814096838
 H    0.1483379617   -0.4079638564    3.3861320123