14

 N    0.1834510291    0.9635104441   -0.7683136152
 C   -0.0295574232    0.0202351379    0.1766418147
 O    0.7243818508   -0.1924939121    1.1114914065
 C   -1.2968417229   -0.8073444423    0.0106653891
 C   -1.1023731869   -2.2773131764    0.2781908952
 N   -1.7743740870   -1.4439842579    1.2599612970
 C   -2.2904342976   -0.3572238199   -0.9265635119
 C   -3.0835897929    0.0394067247   -1.7398024154
 H    0.9906467394    1.5579219271   -0.6807094480
 H   -0.5039304280    1.1494785064   -1.4790971907
 H   -1.7379233165   -2.9788473989   -0.2530267270
 H   -0.0826878205   -2.5955857466    0.4734342887
 H   -1.0907587032   -1.1837726421    1.9738556816
 H   -3.8076289206    0.3758880961   -2.4403976143