23

 C   -0.2779862268    1.3843146278   -0.1336154503
 C    0.0156386254   -0.1125717159   -0.1109907494
 C    1.3264665065   -0.5461255020   -0.8464520544
 C    2.0738997417   -0.3373647590    0.4983096601
 C    0.7158159797   -0.6333873701    1.1866887338
 C    0.5624025414   -2.1572544129    1.3298458782
 O   -0.5731776762   -2.5264472025    2.1037583511
 C    0.5327444595   -2.8336158871   -0.0649265196
 C    1.2952499796   -2.0497310072   -1.1633360862
 H    0.5935717975    1.9817759679    0.1517228491
 H   -0.5844713715    1.7061196711   -1.1352087493
 H   -1.0894042173    1.6349762318    0.5587350970
 H   -0.8916111798   -0.6499725583   -0.4140141856
 H    1.6457767278    0.0452957339   -1.7095586464
 H    2.9071744191   -1.0135770245    0.7181262581
 H    2.4084792782    0.6906251464    0.6486609624
 H    0.4864761044   -0.1408312524    2.1357378809
 H    1.4124538999   -2.5281364724    1.9148102525
 H   -1.3575253369   -2.2198082589    1.6351844115
 H    0.8839692172   -3.8668962144    0.0053345231
 H   -0.5228888849   -2.9019014509   -0.3536190635
 H    0.8138130333   -2.2307040166   -2.1312728906
 H    2.3260968823   -2.4119300838   -1.2581148226