25

 C   -0.3094294923    1.5054038813    0.1785162394
 C   -0.1712680748    0.0002262151    0.3371051025
 O   -1.2392343970   -0.6155412127   -0.3667153145
 C   -1.3458557346   -2.0049958491   -0.2067768757
 C   -0.2798315532   -2.8085285075   -0.9220907196
 C   -1.9177984446   -2.5064000545    1.1020165086
 C   -2.7584884008   -2.5220350615   -0.1646584818
 C   -3.9543825773   -1.6027326546   -0.3020690908
 C   -5.2057058399   -2.1521767372    0.3919460660
 H    0.5054946538    2.0200621711    0.6966155997
 H   -0.2787387756    1.7837067804   -0.8788138893
 H   -1.2600510007    1.8514876163    0.5945320313
 H    0.7995347717   -0.3343611395   -0.0588958606
 H   -0.2047318622   -0.2854801814    1.3996257538
 H    0.7161602453   -2.6303505674   -0.5024092975
 H   -0.4843912629   -3.8795829227   -0.8379600025
 H   -0.2536515794   -2.5454574717   -1.9848859770
 H   -1.5543475727   -3.4418434404    1.5147156939
 H   -2.1722021623   -1.7558280664    1.8440352096
 H   -2.8958766219   -3.5013754282   -0.6195588135
 H   -3.6962598314   -0.6202228595    0.1035544371
 H   -4.1658602082   -1.4434857590   -1.3674692891
 H   -6.0546313089   -1.4708284196    0.2757639435
 H   -5.4989284968   -3.1224638592   -0.0246463060
 H   -5.0310859135   -2.2939225221    1.4638385625