21

 C    0.0148546139    1.5611901951    0.0824042437
 C   -0.0041982761    0.0589224272    0.0354324179
 C   -0.9362938851   -0.7634939981    0.8907388730
 C    0.5588489965   -0.9381895620    1.0298999367
 C    1.2325425360   -1.7413897236   -0.1065893231
 C    0.3471952887   -2.1895994113   -1.2377078748
 O   -0.9360514909   -2.7543960225   -1.1681504188
 C    0.6657454426   -0.7319530031   -1.1455081167
 C    1.3726561918   -0.0040137522   -2.2576113031
 H    1.0062138377    1.9728861656   -0.1368117537
 H   -0.6908324517    1.9970567099   -0.6359634141
 H   -0.2737961434    1.9123821684    1.0784512039
 H   -1.3756378048   -0.1898605642    1.7038209978
 H   -1.5720827029   -1.5319992884    0.4789582647
 H    1.0773995006   -0.7292023164    1.9576199607
 H    2.2498483186   -2.1077559407   -0.0195981246
 H    0.9514560046   -2.6489689015   -2.0261794340
 H   -0.8506084506   -3.6125263423   -0.7378303828
 H    0.6586149642    0.5070934667   -2.9154032224
 H    2.0680357484    0.7513704431   -1.8762276707
 H    1.9489711418   -0.7010385093   -2.8739533495