18

 C   -0.0279961266    1.2171446997   -0.9729774893
 C    0.0530003857   -0.0533014888   -0.1494796672
 O   -1.2731476188   -0.6136863048   -0.0827872263
 C   -1.4146776608   -1.7519978480    0.6196263549
 N   -0.4489036628   -2.3150030423    1.2104649095
 C   -2.8920291472   -2.1795074289    0.5213990528
 N   -3.3682005284   -2.4173637698   -0.8456872074
 C   -3.1377224065   -3.3665356013    1.3492535662
 N   -3.2963907895   -4.3034833638    2.0054444304
 H    0.9634922227    1.6735649015   -1.0445534215
 H   -0.3827896262    1.0074540068   -1.9862606360
 H   -0.7069779791    1.9402467419   -0.5123571669
 H    0.7262019035   -0.7934390663   -0.5936282097
 H    0.4053413398    0.1348617891    0.8694209754
 H   -0.7482511834   -3.1611238847    1.6922038772
 H   -3.4906650175   -1.3572641991    0.9335266198
 H   -3.1876728122   -1.5763571914   -1.3862036468
 H   -2.8201594225   -3.1610043199   -1.2705579251