20

 C   -0.0119307530    1.3249777799   -0.3122007296
 C    0.0746371140   -0.1200423269    0.1932783002
 C    0.6855079950   -0.2029584966    1.5972091319
 N   -1.2398450729   -0.7510534651    0.1685251249
 C   -1.5497582477   -1.8283504596   -0.5816237701
 O   -0.8011963764   -2.4284159538   -1.3365162695
 C   -3.0227412261   -2.2675052064   -0.3946504118
 C   -3.4446270094   -3.4655063268   -1.2005166421
 O   -3.7504214908   -1.6597947632    0.3587029145
 H    0.9809599557    1.7846330286   -0.3295454766
 H   -0.4263084040    1.3606965446   -1.3232581778
 H   -0.6498260691    1.9320048060    0.3409245566
 H    0.6822246564   -0.7089056073   -0.4999061988
 H    0.7616784637   -1.2418483453    1.9290653724
 H    1.6876487480    0.2364294503    1.6052306204
 H    0.0746456227    0.3448472734    2.3243473538
 H   -1.9931267840   -0.3858334969    0.7368340303
 H   -2.8046172363   -4.3188985745   -0.9553004678
 H   -4.4911928188   -3.6984812815   -1.0042013932
 H   -3.2840942170   -3.2688856689   -2.2652207077