19

 C   -0.0714357661   -1.1094871402    0.3620677140
 C   -0.0308862653    0.0870592475    0.2606573598
 C    0.0369526070    1.5357372885    0.1183613891
 C    1.4211602238    2.0324180635   -0.3046302723
 C    1.6421247056    3.5625863783   -0.3061690503
 C    2.7072489826    3.2509026016    0.7378413521
 C    4.1042505943    3.7594037721    0.8668686782
 C    3.0900301518    3.9686191734    1.9872015337
 O    2.4144986188    1.8512846956    0.7326439963
 H   -0.1084676367   -2.1657825195    0.4617999831
 H   -0.6918254619    1.8707115529   -0.6327157680
 H   -0.2342289801    2.0211785330    1.0640253427
 H    1.7310530303    1.5280761007   -1.2274865430
 H    2.0016600414    3.9882451904   -1.2445436390
 H    0.7917310491    4.1456416216    0.0572618080
 H    4.8824855107    3.0223252845    1.0332419878
 H    4.4056175580    4.6146408522    0.2701635824
 H    2.6979047953    4.9665537653    2.1569174803
 H    3.2082186614    3.3675988087    2.8825173551