16

 C   -0.2026382496    1.6184230454    0.2574450866
 C   -0.1675223742    0.1117032048    0.2717932176
 O    0.8833731980   -0.5562828208   -0.3868319452
 C    0.8073221100   -0.7393911081    1.0362951850
 C    1.9306181060   -0.0617385713    1.7518385712
 O    2.3146384038   -0.3186979958    2.8707033574
 C    0.2618821904   -2.1079235008    1.4620631787
 N    0.6991131741   -2.5536310810    2.6609429508
 O   -0.5266400265   -2.6960365338    0.7496551641
 H    0.7881335118    2.0659736037    0.3495062523
 H   -0.6406514630    1.9573108483   -0.6869923657
 H   -0.8358563979    1.9893957079    1.0694612644
 H   -1.1289032153   -0.3876707419    0.1447381291
 H    2.4249291186    0.7185898434    1.1415333702
 H    1.3477700587   -2.0058040615    3.2087665637
 H    0.3431351452   -3.4344852684    2.9941284097