19

 C   -0.1427055619    1.3360019966    0.1045613360
 O    0.0564245801   -0.0813240360    0.0242230333
 C    0.5520987570   -0.5286583406   -1.1525397412
 O    0.8109599395    0.2007676424   -2.0801986085
 C    0.6684857036   -2.0179885561   -1.1471735275
 O    0.3304205210   -2.6702860985    0.0401082998
 C    0.3515004382   -2.7166797057   -2.4688432124
 C    1.7585899642   -2.7130671542   -1.9383802251
 C    2.8930748376   -1.9995734435   -2.6368940002
 H    0.8065336721    1.8627164424   -0.0185926353
 H   -0.8342028963    1.6721730450   -0.6718900403
 H   -0.5568592073    1.5215874224    1.0954919867
 H   -0.4099068717   -2.1949266514    0.4325525569
 H   -0.2326399753   -3.6257408988   -2.3843935942
 H    0.1273979612   -2.0770808196   -3.3155972094
 H    2.0412992092   -3.6347556661   -1.4355927129
 H    2.5600821431   -1.0587900537   -3.0767153923
 H    3.7080953706   -1.7808864528   -1.9385955196
 H    3.2978508051   -2.6336251019   -3.4332837137