23

 C   -0.3365132960    1.4759325625    0.0498143004
 C   -0.0070388048   -0.0233665091   -0.0138611106
 C    0.7411598918   -0.3701862582   -1.3213176850
 C    0.6136913363   -1.8334312253   -1.7497930931
 C    1.0139914847   -2.8883671608   -0.7596297657
 C    1.3327401964   -2.7859721071    0.5388977200
 C    1.3593395476   -1.6257809584    1.4402356517
 C    2.0962784017   -1.8673603310    2.7396627820
 C    0.7690029170   -0.4418032047    1.2120476764
 H    0.5789389079    2.0785880248    0.0216638386
 H   -0.9632635561    1.7794845552   -0.7944513229
 H   -0.8698529626    1.7248278561    0.9731382453
 H   -0.9606662413   -0.5742617318   -0.0258063140
 H    0.3523569258    0.2532433423   -2.1357380013
 H    1.7981995028   -0.1052834570   -1.2040066532
 H   -0.4228350890   -2.0348291315   -2.0617116352
 H    1.2074810356   -1.9850624501   -2.6631884407
 H    1.0554782519   -3.8899745330   -1.1862286832
 H    1.6256413045   -3.7160278115    1.0254231019
 H    1.6609971850   -2.7122999399    3.2885445087
 H    3.1479174729   -2.1220520563    2.5581344792
 H    2.0670340888   -0.9898203898    3.3900016028
 H    0.8613758291    0.3183033447    1.9863391581