19

 C   -0.0215863961    1.4481959228    0.0366766157
 C    0.0423635261   -0.0522352367    0.0102634895
 C    0.6136014045   -0.9668954528   -1.1149374653
 C    0.0809038881   -1.9270518111   -0.0076526557
 O    0.0125679518   -3.3042442882   -0.0200144180
 C    0.7461566027   -0.9890336433    1.0426996158
 C   -1.1944580201   -1.0348651390    0.0576834888
 C   -2.0434313987   -1.0516267081    1.2296482275
 C   -2.7710573672   -1.0438025174    2.1878789899
 H    0.9833327038    1.8836841900    0.0254788363
 H   -0.5660712934    1.8356005436   -0.8310892344
 H   -0.5324005451    1.7977801525    0.9398510477
 H    0.0806735432   -0.9686815894   -2.0700311805
 H    1.6979355525   -0.9353913345   -1.2529837043
 H    0.9087790749   -3.6557571635    0.0137719324
 H    1.8399578527   -0.9580721507    1.0467769575
 H    0.3319771479   -1.0079918728    2.0519072991
 H   -1.7911032579   -1.0438216497   -0.8604500566
 H   -3.4117166795   -1.0506318017    3.0345738246