18

 C   -0.0869008269    1.3935007971   -0.0752406136
 O   -0.0143686213   -0.0130037064   -0.0002316793
 C    0.6447619552   -0.5624904100    1.0642844748
 C    1.2469760425    0.1604436778    2.0935520070
 C    1.8914699525   -0.5080983059    3.1347113890
 C    1.9535995554   -1.9018557995    3.1756572603
 N    2.6609460778   -2.5709492604    4.1889881328
 C    1.3433555700   -2.6164507523    2.1340816597
 C    0.7004068887   -1.9590701319    1.0979175545
 H    0.9097838030    1.8520929074   -0.1350355146
 H   -0.6400984235    1.6240469660   -0.9877697948
 H   -0.6200992271    1.8225757102    0.7844586782
 H    1.2222122536    1.2425582434    2.1040151727
 H    2.3571499528    0.0717577477    3.9266442063
 H    2.7208454658   -2.0505926050    5.0535131393
 H    2.3223136134   -3.5060271362    4.3699752244
 H    1.3786284740   -3.7022478318    2.1380400917
 H    0.2278005742   -2.5150526604    0.2959218816