18

 C   -0.0569325999    1.5629822665    0.0013216897
 C    0.0002855375    0.0406536349   -0.0677359160
 N   -1.3219245353   -0.5281458746    0.1404800510
 C   -1.5592508936   -1.8841235357    0.0618031281
 C   -0.5510311939   -2.8602162947    0.0860088786
 N   -0.8171186669   -4.1664144397    0.0541703752
 C   -2.0977245286   -4.5196296370   -0.0114641434
 N   -3.1434885702   -3.6876577377   -0.0543162562
 C   -2.8683466328   -2.3914450163   -0.0180179939
 H    0.9401556237    1.9889267481   -0.1355714817
 H   -0.7029339416    1.9693767783   -0.7853644535
 H   -0.4447319148    1.8950845458    0.9689074088
 H    0.4287827161   -0.2774601847   -1.0325736719
 H    0.6728780220   -0.3356655344    0.7130831251
 H   -2.0851878904    0.0534621854   -0.1731249900
 H    0.4976765587   -2.5807058999    0.1336818462
 H   -2.3164008618   -5.5832632536   -0.0370722540
 H   -3.7146037082   -1.7042531207   -0.0525466721