17

 C    0.0181520474    1.5719281870   -0.1685412652
 C    0.0957830482    0.0711319671    0.0243333451
 N    1.0780124668   -0.6345853507   -0.8300201903
 C    1.4328081080   -1.5668721608    0.2652141700
 C    2.8271519406   -1.9498428342    0.3718748691
 C    3.9770860091   -2.2821893009    0.4730021575
 C    0.8222297129   -0.5280334769    1.2799670217
 C    1.7807106114    0.3544552683    1.9206203072
 N    2.5219706025    1.0684813043    2.4468308497
 H    1.0074082110    2.0266882306   -0.0794614279
 H   -0.3780996856    1.8005632112   -1.1634757683
 H   -0.6483278756    2.0260271709    0.5721681767
 H   -0.9120755898   -0.3699275238   -0.0227207009
 H    0.7135023331   -1.0720445277   -1.6699260630
 H    0.8041295872   -2.4701361745    0.2913180823
 H    4.9990906946   -2.5574488416    0.5628563919
 H    0.1710442282   -0.9635153285    2.0389639344