18

 N    0.1828993157    0.7329776820    1.2907733455
 C    0.0845059082   -0.1581784148    0.3978748123
 O    1.1142710426   -0.4944989116   -0.4254232776
 C    0.8286020418   -1.4714277415   -1.4436745009
 C    0.2794368187   -2.7473549677   -0.8144345473
 C   -0.9985629773   -2.4340933743    0.0061539754
 C   -1.1832391728   -0.9358073469    0.1752101069
 C   -2.4556373232   -0.3483212012    0.5864822272
 O   -2.0590139917   -0.3091824182   -0.7912700113
 H    1.1137301869    1.1557941543    1.2638371798
 H    0.1219799434   -1.0472709183   -2.1666377703
 H    1.7810650981   -1.6431005506   -1.9486196026
 H    0.0749659165   -3.4818270232   -1.5992163423
 H    1.0539755689   -3.1737309594   -0.1692591814
 H   -1.8939842487   -2.8176673829   -0.4900604754
 H   -0.9426748015   -2.9070497135    0.9920767045
 H   -3.2933678829   -1.0089417923    0.8061947344
 H   -2.4466208226    0.6065002001    1.1041439431