11

 N   -0.0582053577    1.2603120472    0.3684875450
 C   -0.0328731726    0.0532362329   -0.0021542672
 O    1.1086953800   -0.5694970792   -0.4519248416
 N    1.1328586649   -1.9642628551   -0.8791300249
 N    0.0914801566   -2.6118736952   -0.8362988987
 C   -1.1220167565   -2.0772762438   -0.3966199707
 C   -1.2265179930   -0.7981995376    0.0139811104
 C   -2.4663944924   -0.2583230556    0.4612871543
 N   -3.4957025983    0.1331730500    0.8154923911
 H    0.8601385588    1.6987151210    0.2905789446
 H   -1.9541240200   -2.7677090147   -0.4146616322