11

 C    0.0194604979    1.4463715073    0.0137869874
 N   -0.0259648855   -0.0054874700    0.0305665657
 N   -0.2583983401   -0.7292445092   -1.0639128133
 N   -0.2296965200   -1.9788285139   -0.6931676828
 C    0.0248005653   -1.9611408752    0.6412763972
 N    0.1575982663   -0.7238886190    1.1217111115
 C    0.1383593492   -3.1299404591    1.4435831075
 N    0.2298131051   -4.0836087446    2.0897134669
 H    1.0023126591    1.7839475325    0.3469801098
 H   -0.1641803591    1.7620340446   -1.0119443408
 H   -0.7498164683    1.8426628466    0.6787300008