19

 C    0.0181690856    1.5547041195    0.1017736013
 N    0.0233491466    0.1114456208    0.1852150952
 C   -1.0223168780   -0.5896325934    0.9730867239
 C   -1.6751856504   -1.7469293332    0.1881709585
 C   -0.4408299753   -2.6419631377    0.5322955474
 C    0.0792208585   -1.5533202021    1.5158688995
 C    1.1068056400   -0.5414793410    0.9438308858
 C    2.2283829027   -1.0398858183    0.1433423619
 N    3.1101867248   -1.4479650250   -0.4828860489
 H    0.8831727532    1.8925782792   -0.4781793480
 H   -0.8841815474    1.8870693227   -0.4206712294
 H    0.0495057423    2.0534098082    1.0886981467
 H   -1.6353145267    0.0588820626    1.6073983540
 H   -2.5935949897   -2.1054194953    0.6621593676
 H   -1.8673456371   -1.5482028807   -0.8680205392
 H   -0.6823520815   -3.5944208069    1.0074629750
 H    0.2333249169   -2.8360775256   -0.3045915949
 H    0.1976068070   -1.8297199299    2.5610513687
 H    1.5126948287    0.0933937561    1.7488204148