15

 C    0.0893920942    1.4046330729    0.0329918367
 N    0.0119125854   -0.0443999797    0.1424406116
 C   -1.2415954066   -0.6240466322    0.0308258852
 C   -2.5100116327   -0.0709454113   -0.0000215452
 C   -3.3630066170   -1.2000954705   -0.0408653466
 O   -4.7108107418   -1.1431413543   -0.0923649091
 N   -2.7197480180   -2.3509387390   -0.0422040747
 N   -1.3958744697   -1.9727671196   -0.0248963837
 H    1.1307581681    1.7132996940    0.1478537226
 H   -0.2932686959    1.7940602931   -0.9225128084
 H   -0.4893336445    1.8599568284    0.8419482662
 H    0.7181211409   -0.5197767820   -0.4028699345
 H   -2.7863172523    0.9681894393   -0.0221878111
 H   -5.0252709580   -2.0556340957   -0.1232278464
 H   -0.7024287121   -2.6668903435    0.1913147772