20

 C    0.3719039451    1.7063783385   -0.6133033720
 C    0.4241368928    0.2103049848   -0.3722588381
 C    1.6461079670   -0.6564660366   -0.4669051013
 C    2.8760982935    0.0206207521    0.1579847771
 C    2.1376037125    0.0389329988    1.5366482251
 C    2.0341806271    1.3321083869    2.3663195807
 C    3.3344603859    1.7618840851    2.8783600809
 N    4.3747031960    2.0811031192    3.2682811603
 C    0.8808197234   -0.5275110073    0.8649302014
 H    1.3103458520    2.2115670732   -0.3745506939
 H    0.1639637332    1.9073920977   -1.6699221704
 H   -0.4238265162    2.1780829575   -0.0260741568
 H   -0.4436986721   -0.2974304203   -0.7918628287
 H    1.6941351066   -1.5114682323   -1.1303582211
 H    3.7648944765   -0.6117017431    0.1718235395
 H    3.1580583874    0.9910074691   -0.2622381007
 H    2.5770599507   -0.7309800052    2.1769968263
 H    1.6051804598    2.1493809024    1.7804741792
 H    1.3616102210    1.1700316974    3.2173136517
 H    0.2294665278   -1.2532187477    1.3396497908