20

 C   -0.2114226659    1.6215109844   -0.0399621615
 C    0.0433492151    0.1208951899    0.0002533840
 C    1.1082781187   -0.5875963781   -0.8959778668
 C    2.4149663206    0.1344599350   -0.5138574286
 C    2.3877257549   -0.3181191442    0.9631979740
 C    2.5492493522   -1.8535406834    0.7991089277
 C    1.1447083866   -1.7574873762    0.1874929703
 C    0.8186692889   -0.5624227525    1.1382476837
 H    0.6854794909    2.2084221218    0.1760815158
 H   -0.5884624449    1.9338721726   -1.0208335890
 H   -0.9660046680    1.8991011390    0.7046767305
 H   -0.9107149803   -0.4095615586   -0.1155450969
 H    0.9168711240   -0.7858463688   -1.9509048676
 H    3.2944691134   -0.2458207558   -1.0420601647
 H    2.3710216675    1.2150142280   -0.6655977496
 H    2.9702328808    0.2456931980    1.6911696855
 H    3.3901796988   -2.2207919583    0.2008119810
 H    2.5171305234   -2.3854994297    1.7548725582
 H    0.4757148187   -2.6046436977    0.0395852220
 H    0.4387329648   -0.6892653053    2.1523182117