22

 C   -0.1427084736    1.4990202667   -0.0211183173
 N    0.0617886877    0.0609310542    0.0177558444
 C    1.3534388598   -0.5626642985   -0.2972148207
 C    2.5846766230    0.2688447510   -0.1359621780
 C    2.7538203838    0.6438477739    1.1345899014
 C    1.7318270647    0.0170533359    2.0711909048
 C    2.4082180950   -1.1047028533    2.8895858807
 C    1.0883463962    1.0213719461    3.0450751898
 C    0.7501379649   -0.6484855731    1.0818331181
 H    0.7267466402    2.1059768778    0.2647897514
 H   -0.4282923411    1.7750479652   -1.0420640485
 H   -0.9777726442    1.7527840517    0.6392796304
 H    1.3186412277   -1.3603364570   -1.0345158459
 H    3.2147887576    0.5602308713   -0.9688608842
 H    3.5292561468    1.3103961763    1.5004392100
 H    3.1982538526   -0.6982127290    3.5298236690
 H    1.6763373030   -1.6050661192    3.5347698753
 H    2.8566395509   -1.8547486646    2.2318362225
 H    0.6155549710    1.8590482995    2.5301013610
 H    0.3270430955    0.5283282070    3.6587037110
 H    1.8446018235    1.4301916489    3.7247930925
 H    0.2342491052   -1.5394483908    1.4348942423