14

 N    0.0042393260    1.4086561403    0.0283886879
 C   -0.0156899795    0.0378174079   -0.0031237616
 N   -0.9590999991   -0.7583040982    0.3939724938
 C   -0.4138914689   -2.0327606351    0.2248317043
 C    0.8309027737   -1.9205929410   -0.2757201065
 O    1.7649686667   -2.7862848485   -0.7098900704
 C    2.7734619906   -3.1057598307    0.1681800531
 N    3.7033850581   -3.8507593146   -0.2230602992
 O    1.1150823647   -0.5728595204   -0.4328467190
 H    0.5545290386    1.8427641115   -0.6985468820
 H   -0.9182398650    1.8069364657    0.1269714400
 H   -0.9611754354   -2.9301001948    0.4620780814
 H    2.6222327147   -2.6558645893    1.1557530415
 H    4.3657101545   -4.0139435329    0.5324563968