18

 O   -0.0351449647    1.4274880425    0.0081794299
 C    0.0094699434    0.0077784859    0.0012398702
 C   -1.3899785534   -0.5205085811    0.0118952423
 C   -2.5393809899    0.2340788640    0.0230594566
 N   -3.6066920858   -0.6275473787    0.0301772661
 C   -3.1600302894   -1.9244862575    0.0234365611
 C   -1.7853692187   -1.8956433614    0.0121172295
 C   -0.8802437536   -3.0865654070    0.0017144131
 O   -1.6721149567   -4.2657579845    0.0094060055
 H    0.8690427631    1.7529724157    0.0016467734
 H    0.5486016368   -0.3631753977   -0.8888221973
 H    0.5650701951   -0.3714659667    0.8775638304
 H   -2.6681356947    1.3027229873    0.0266896054
 H   -4.5716506350   -0.3500930403    0.0392671580
 H   -3.8367278359   -2.7615382245    0.0274170233
 H   -0.2266848971   -3.0590173934   -0.8885578558
 H   -0.2077963953   -3.0599527354    0.8778228542
 H   -1.0788949082   -5.0217923170    0.0030551442