16

 C   -0.0352201647    1.6130080314    0.0551337319
 C    0.0459456620    0.0957368439   -0.0042287621
 C    1.1160338475   -0.5957168467   -0.9032628670
 O    1.2878925877   -0.6408113151   -2.0847092681
 C    1.7190751086   -1.3226620135    0.2817699741
 N    2.0813858622   -0.2369868491    1.2444095685
 C    0.6740779939   -0.6843455118    1.1797175173
 C   -0.0023353871   -1.2567104511    2.2888660367
 C   -0.5951071343   -1.7160184979    3.2301327297
 H    0.9136591545    2.0348460000    0.3934508646
 H   -0.2590355058    2.0142594732   -0.9379113362
 H   -0.8265751814    1.9377226722    0.7378535258
 H   -0.9213526539   -0.3483953581   -0.2686692436
 H    2.1838556448   -2.2988919128    0.3389467010
 H    2.5155161723   -0.6983101595    2.0447763914
 H   -1.1163576663   -2.1285555252    4.0584444960