16

 O   -0.1087459351    1.3670011429    0.0868365666
 C    0.0486894634   -0.0235541394    0.0482867106
 C    0.7507131441   -0.4427766026   -1.2297952997
 O    1.0883229791    0.3809490561   -2.0477791211
 C    0.8363165611   -0.5074867242    1.2864175962
 C    0.1507026269   -0.1153073944    2.6217226878
 O   -0.1770617255   -1.3942878892    3.2287330930
 C    0.3127342265   -2.3276406232    2.3884844384
 N    0.8953656919   -1.9807394611    1.3160528506
 H    0.2844971107    1.6938716621   -0.7393743916
 H   -0.9329575724   -0.5307922059    0.0606290444
 H    0.9386150149   -1.5227081025   -1.3600557870
 H    1.8488379317   -0.0951481172    1.2223723277
 H    0.8097835782    0.4242535645    3.3051677599
 H   -0.7714353430    0.4530413146    2.4862743168
 H    0.1595665576   -3.3503316106    2.7156465573