17

 O    0.0894555730    1.4079932910   -0.1188647013
 C    0.0390067289    0.0037883309   -0.0141104282
 C    0.7929892676   -0.5091452217    1.2135521564
 O    0.0910300688   -0.2792713060    2.4482122897
 C   -1.1403787331   -0.8507193299    2.5740690430
 N   -1.5948335056   -1.2708880292    3.6777088298
 C   -1.9818557787   -0.8994145229    1.3440871572
 N   -2.2930115969    0.4221634608    0.7500041286
 C   -1.4116379132   -0.4969364896    0.0270315857
 H   -0.6658064372    1.7287970835    0.3971901518
 H    0.5400345694   -0.4039077051   -0.9002661568
 H    0.9987869446   -1.5840462736    1.1105433594
 H    1.7385461317    0.0256817351    1.3169612963
 H   -0.8905789647   -1.1543202172    4.4101494268
 H   -2.7761333216   -1.6360327609    1.3855133341
 H   -3.2320830524    0.4207324317    0.3637956680
 H   -1.7969996506   -0.9839382368   -0.8636728906