19

 C   -0.0347374358    1.5007326452   -0.1583942249
 C   -0.0149279878    0.0041944235    0.1817340654
 C   -1.3733035826   -0.6159334639    0.0827279161
 O   -2.3797403493   -0.1718793075    1.0083391422
 C   -2.8799252288   -1.5319851305    1.1324404172
 C   -1.9217825707   -2.0124973343    0.0528605264
 C   -2.0251450843   -1.1181770656   -1.1967717402
 C   -3.2884124718   -0.5649565803   -1.7372121474
 O   -3.5482643994   -0.5268799462   -2.9176708090
 H    0.9611031385    1.9374574926   -0.0430077462
 H   -0.3616461570    1.6652158611   -1.1898150128
 H   -0.7208529355    2.0369220799    0.5032389533
 H    0.6622383543   -0.5327759537   -0.4921544993
 H    0.3619953612   -0.1427477836    1.2011438733
 H   -2.6399203106   -1.9365080639    2.1217690839
 H   -3.9579787594   -1.6038320545    0.9571286269
 H   -1.4264451448   -2.9727150049    0.0048443128
 H   -1.3179434917   -1.4101485268   -1.9680967475
 H   -3.9902229045   -0.1556751365   -0.9830420201