15

 N   -0.0732904672    1.3380288838   -0.0246180090
 C    0.0209146401   -0.0285977184   -0.0466557893
 O    1.0872154195   -0.6083408818   -0.1213846647
 C   -1.2767507082   -0.7625236155   -0.0070772945
 C   -1.3888422253   -2.0946372939    0.0287660715
 C   -2.8298386646   -2.4877676856    0.0499012906
 O   -3.3177756338   -3.5957859084    0.0791841078
 N   -3.5156784146   -1.2883675971    0.0271139192
 C   -2.6553544083   -0.1328999618   -0.0180643239
 H    0.7905485979    1.8515434112    0.0491893184
 H   -0.9214761744    1.8134365412    0.2307947462
 H   -0.5771374059   -2.8066419671    0.0380499606
 H   -4.5206958899   -1.2522741638    0.0138692681
 H   -2.8089521305    0.5280618463    0.8494621342
 H   -2.8127155249    0.4717932409   -0.9234461150