14

 O    0.0640993646    1.3961676315   -0.1340339114
 C    0.0444534992   -0.0150925441   -0.0613830877
 C    0.7183915371   -0.5426406748    1.1990759743
 C   -0.1124369893   -1.2863483142    1.9452222953
 C    0.1802791042   -1.9060305360    3.1888931639
 N    0.3907729911   -2.4349064291    4.1976322930
 C   -1.4726134784   -1.3470049266    1.2953727145
 O   -2.0753579614   -0.0412670597    1.1708970970
 C   -1.3726963160   -0.5911956012    0.0460716091
 H   -0.5274160076    1.7074748244    0.5645769453
 H    0.5529074880   -0.3748934394   -0.9628459142
 H    1.7304300211   -0.2651224522    1.4667564306
 H   -2.1553334126   -2.1704376186    1.4726188661
 H   -1.9706878799   -0.7901259601   -0.8372951659