13

 O    0.0110805364    0.0699168049    0.0127227593
 C    0.0111899763    1.2608115106    0.0695917306
 C   -1.0496779993    2.3263184497   -0.0032388187
 C   -0.4097826455    3.5538260290    0.6171810639
 N    0.8616113691    3.1195784152    1.2348912941
 C    1.1023930415    2.3517238155   -0.0326830238
 C   -0.0139017196    3.2062222761   -0.7943990749
 C   -0.1368753870    3.8017656068   -2.0680584146
 N   -0.2096535271    4.3058534865   -3.1085991060
 H   -2.1100473089    2.2457113257   -0.1964790400
 H   -1.0053734462    4.3813886466    0.9797709625
 H    1.4872799218    3.9243441720    1.2363692496
 H    2.1207407284    2.1479802715   -0.3479762920