19

 C   -0.5116387171    1.3886016636    0.4437022534
 N   -0.0559802913    0.0371982492    0.1775500219
 C    0.2787700836   -0.3655788515   -1.1821306669
 C    1.5581331946    0.2431487115   -1.6890577960
 C    1.6159199961   -0.9242938430   -0.7342877854
 C    1.2628709569   -0.4647390806    0.6983904727
 C    2.2089090380    0.5173536476    1.3944393225
 C    1.0217071405   -1.6156470830    1.5878093371
 N    0.8576919466   -2.5218079421    2.2861422776
 H    0.1589973478    2.1851843962    0.0821204939
 H   -1.4835342882    1.5238215223   -0.0417860512
 H   -0.6595576049    1.5233463035    1.5192978273
 H   -0.4765432143   -0.7971266346   -1.8292415842
 H    1.8176409025   -0.0127703703   -2.7118644162
 H    1.8663192961    1.2401793825   -1.3907142043
 H    2.0776152322   -1.8718934072   -0.9736129404
 H    2.4510653522    1.3599839139    0.7448975670
 H    1.7646630006    0.9021822359    2.3166837186
 H    3.1389078181    0.0057762160    1.6574959326