15

 N    0.0037325329    1.3034254784   -0.1422916712
 C   -0.0295098484   -0.0383977636   -0.0596630056
 C   -1.1378690128   -0.8802375587   -0.0223370957
 C   -2.4784326837   -0.3912488756    0.0604438802
 O   -2.7783965276    0.8024143506    0.0482080635
 C   -0.5853619646   -2.2233852634    0.0087311399
 N   -1.3459494957   -3.3886814203    0.1253788262
 C    0.7619831941   -2.0887582637   -0.0047854148
 O    1.1101477055   -0.7252968069   -0.0379316832
 H    0.8444968620    1.7898858078    0.1210000757
 H   -0.9025905481    1.7386086167   -0.0048514779
 H   -3.2758811748   -1.1577390440    0.1551712935
 H   -2.1804556715   -3.3781024749   -0.4465275373
 H   -0.8177889901   -4.2307764195   -0.0612070692
 H    1.5921089828   -2.7710774030    0.0164286357