18

 O   -0.0038542173    1.4456268442    0.1377933964
 C    0.0118071580    0.0384276896   -0.0421956475
 C   -1.3815274245   -0.5426628831    0.0383889635
 C   -1.9338488841   -1.1740226039    1.2777311064
 C   -1.6568942716   -2.0264131493    0.0325032678
 C   -2.8061801967   -2.2434309763   -0.8956907050
 O   -3.1975064434   -3.2932896967   -1.3369607525
 C   -3.3650577556   -0.8591586251   -1.2646297435
 N   -2.3370417409    0.1075782333   -0.8577963062
 H   -0.4473427403    1.8082054714   -0.6374181291
 H    0.4594002286   -0.2283801302   -1.0111923178
 H    0.6447596077   -0.3740281808    0.7497119354
 H   -1.2638979756   -1.3512709420    2.1124114984
 H   -2.9646115199   -0.9837214168    1.5598343298
 H   -0.8834010821   -2.7826335812    0.0785677979
 H   -3.5596236334   -0.8238663055   -2.3416746219
 H   -4.3312922639   -0.7213622293   -0.7577373970
 H   -2.7478814949    0.9125599217   -0.3990657151