13

 O   -0.0570526545    0.1426851713   -0.6924044811
 C   -0.0255213604    1.1925309943   -0.1038226723
 C   -1.3157356224    1.8870720075    0.3137362400
 O   -1.1626739962    2.8953588734    1.3213809296
 C    0.0182269403    3.5565832292    1.3423456215
 N    1.1370198469    3.2249623058    0.8555334200
 C    1.2662735497    1.9278714472    0.2169834616
 C   -0.1040837342    4.8046064972    2.0666423949
 N   -0.2026697974    5.7984943527    2.6466409850
 H   -1.7557859803    2.3473809518   -0.5816895868
 H   -2.0226052048    1.1520712625    0.7022506726
 H    1.8711170743    1.2780839102    0.8644005226
 H    1.8458814988    2.0327992569   -0.7078414276