16

 C   -0.7170895610    0.9614550711    0.3882508787
 O    0.2537689488   -0.0820585461    0.4337182806
 C    0.7956214471   -0.4685776683   -0.8085141213
 C    2.2932245158   -0.7293178383   -0.6068022920
 O    2.9682185463   -1.3311395606   -1.3959899842
 C    0.1107807599   -1.7577683511   -1.3241230684
 O    0.0169236233   -2.7008773400   -0.2861271799
 C   -1.2145636819   -1.4574395558   -1.9104655340
 N   -2.2522748906   -1.2073776116   -2.3539107092
 H   -0.2890912546    1.8720478450   -0.0511130751
 H   -1.6050424700    0.6698369227   -0.1825495411
 H   -1.0017907261    1.1644600505    1.4223196393
 H    0.7044232652    0.3322474463   -1.5580697400
 H    2.6964056808   -0.2892486368    0.3292318886
 H    0.7507185596   -2.1843140025   -2.1034928147
 H   -0.2830118424   -2.2124351344    0.4938947128