23

 C   -0.1650501066    1.5408382703   -0.0249351438
 C    0.0062573610    0.0262056209    0.0142452966
 C    1.1390152367   -0.5936208059   -0.8678705259
 C    2.1180523786   -0.2754987402    0.2977973252
 C    0.8660652759   -0.5974750933    1.1707029609
 C    0.7385098837   -0.1352496871    2.5985934659
 O    1.7407088195   -0.7922915966    3.3676202833
 C    0.6880129307   -2.1061325670    0.8882023795
 C    0.8975901664   -2.1017883778   -0.6636924270
 H    0.7756363514    2.0844684137    0.0976242714
 H   -0.5982661156    1.8485406943   -0.9832483535
 H   -0.8470791302    1.8805330379    0.7628038087
 H   -0.9774836443   -0.4436722250   -0.1153876801
 H    1.3197765550   -0.2445856718   -1.8861051917
 H    2.9951392632   -0.9171161042    0.4179298427
 H    2.4223233335    0.7705457429    0.3475990101
 H    0.8559817106    0.9588173156    2.6524671654
 H   -0.2710293137   -0.3746028828    2.9754709249
 H    1.6675508320   -0.4887671104    4.2769877367
 H    1.4284893649   -2.7054947617    1.4217728912
 H   -0.3063433019   -2.4607291965    1.1791133586
 H    0.0197390768   -2.4604749939   -1.2095276864
 H    1.7551450922   -2.7061844815   -0.9735541623