23

 C   -0.0538244563    1.5122946601   -0.0010334473
 C    0.0267874768   -0.0213592212    0.0163716861
 C   -1.4026770641   -0.5733992137   -0.0873639299
 C    0.9890170828   -0.5980694251   -1.0858235542
 C    2.0240317962   -1.3046971046   -0.1931204764
 O    3.0346059883   -1.9284039919   -0.9204040776
 C    1.1252506745   -2.0353053165    0.8484512707
 C    0.7945419651   -0.5693373477    1.2588116632
 C    2.2813709018   -0.2483603094    0.9224118999
 H    0.9280710900    1.9877253423    0.0604234821
 H   -0.5303150100    1.8619208684   -0.9236922920
 H   -0.6551752920    1.8784973789    0.8394047624
 H   -1.8820955453   -0.2285591203   -1.0103073608
 H   -1.4345868530   -1.6656043138   -0.0905958979
 H   -2.0150886630   -0.2240727844    0.7522706055
 H    0.4932849494   -1.3039164544   -1.7589572679
 H    1.4538879128    0.1810350469   -1.6973556425
 H    3.6395955831   -2.3465304107   -0.2992765668
 H    0.3284930176   -2.6878371052    0.4863143648
 H    1.7133076698   -2.5529192133    1.6122434442
 H    0.3741637642   -0.3379086516    2.2379597289
 H    2.9656032659   -0.6173696156    1.6923243805
 H    2.5623995654    0.7649583127    0.6292231850