18

 O   -1.0471296592    1.0948063481   -0.2767308104
 C    0.1537137558    0.9370988766   -0.2639949786
 C    1.2141710492    1.9176254194    0.0674406517
 C    1.1530140266    3.4159374535   -0.2576420577
 C   -0.2123601359    4.1213406429   -0.2738884155
 C   -0.5907055204    4.2848746548    1.2038204776
 C   -0.9783139020    3.1065009353    2.0192121535
 N    0.4130975853    3.5973296600    2.0486157163
 C    1.3966806008    3.0207354254    1.1585632069
 H    0.5787992661   -0.0407069890   -0.5844823538
 H    2.1889017949    1.4875803800   -0.1531124006
 H    1.9335860033    3.7957478500   -0.9081225072
 H   -0.1000091274    5.1020925971   -0.7437416944
 H   -0.9655330815    3.5663650302   -0.8382741877
 H   -0.8863343935    5.2767560374    1.5370352648
 H   -1.5109046258    3.2663247566    2.9535179583
 H   -1.2054513336    2.1831210452    1.5082348455
 H    2.3927880773    3.0016648965    1.5868200714