20

 O    0.1092069506    1.4653689773   -0.0461559554
 C    0.0837981287    0.0367874294    0.0970921220
 C   -1.3777677330   -0.3642848815    0.3415720447
 N   -2.3779882425   -0.2398936976   -0.7100440330
 C   -2.1250573144    0.5230251563   -1.9319718719
 C   -2.2317987002   -0.9635361125   -1.9640403612
 C   -1.0635903194   -1.8872519317   -2.2699232463
 C    0.3431080391   -1.4044255364   -2.0183106805
 C    0.8124213694   -0.6297570580   -1.0410760173
 H    1.0103421328    1.7256003696   -0.2641135131
 H    0.6189410291   -0.2297237732    1.0266433222
 H   -1.3903305221   -1.4041037558    0.6902890561
 H   -1.7163366671    0.2540474099    1.1812646112
 H   -2.9569087302    1.1348809921   -2.2740865016
 H   -1.1470973251    0.9691112447   -2.0674431710
 H   -3.1731231828   -1.3894945739   -2.3143661824
 H   -1.2169835060   -2.8304340096   -1.7213798711
 H   -1.1416683331   -2.1688353074   -3.3276390147
 H    1.0721642950   -1.7804776216   -2.7341903335
 H    1.8848143211   -0.4269995800   -1.0428488632