18

 C   -0.1115557197    1.5682473782   -0.0178840432
 N    0.0025724823    0.1333436420    0.1189498489
 C   -1.1874190829   -0.6549599496    0.5003033340
 C   -0.3128142957   -1.5263210166    1.4205627702
 O    0.4129959868   -2.5722421376    0.7750166158
 C    1.5923600956   -1.7372465895    0.6082030133
 C    0.8512224293   -0.5024084506    1.1519473030
 C    1.4761850974    0.3160469930    2.2360196767
 O    2.4813818015   -0.0045289390    2.8237274113
 H    0.8814023061    2.0112491104   -0.1477386296
 H   -0.6946036869    1.7959691722   -0.9170765918
 H   -0.6071052474    2.0718047763    0.8324343456
 H   -1.9257531062   -0.0759347675    1.0796532738
 H   -1.6929139105   -1.1650581958   -0.3262504762
 H   -0.6991658512   -1.8115005192    2.4010858874
 H    2.4114188276   -2.0749863525    1.2504778723
 H    1.9080688296   -1.6659356827   -0.4359732191
 H    0.9344782545    1.2499041484    2.4996540275