21

 C   -0.1166723069    1.5471666821   -0.1103458890
 C    0.0673079831    0.0304063864   -0.0392833177
 C    0.9290788617   -0.5584791479   -1.1892522553
 C    2.3893542308   -0.3250873967   -0.6757926151
 C    1.9848994386   -1.3222503812    0.4611331551
 C    0.8660974506   -0.5474256269    1.2093230309
 C    1.3840998047    0.4615296702    2.2355506185
 C    1.1604758946   -1.9843066870   -0.6574862546
 O    0.9295314070   -3.0978269439   -1.0250595145
 H    0.8339325986    2.0875656605   -0.1379641492
 H   -0.6748312682    1.8158965687   -1.0132538840
 H   -0.6841037838    1.9186162268    0.7486982572
 H   -0.9287609046   -0.4247654258   -0.0672442341
 H    0.6206428347   -0.3562010671   -2.2136500291
 H    3.1486274568   -0.7282354191   -1.3481023648
 H    2.6530821425    0.6896969950   -0.3748819953
 H    2.7131152055   -1.8698782105    1.0571580959
 H    0.2282694618   -1.2617415149    1.7413426885
 H    2.0741352242    1.1904348466    1.8008202534
 H    0.5611897857    1.0176451599    2.6954055603
 H    1.9171454226   -0.0589775752    3.0380064529