21

 C   -0.3214860910    1.4435237853   -0.0924287711
 N   -0.0983910512    0.0126576989   -0.0122812763
 C    0.0228155815   -0.6043659912    1.3080554536
 C   -1.3020006868   -0.8633816012    1.9957120736
 C   -2.1151384557   -2.0678142004    1.5961349295
 C   -1.4214579633   -2.0384619787    2.9352519676
 C   -0.0192907530   -0.7972867650   -1.1188596363
 N   -0.0653488212   -0.1380051393   -2.3467220357
 O    0.0472349279   -2.0165836476   -1.0553791097
 H    0.6099010088    2.0161409667   -0.2253087410
 H   -1.0013111939    1.6847959110   -0.9138782465
 H   -0.7900100204    1.7891657169    0.8323466183
 H    0.5487420345   -1.5502037161    1.1656173454
 H    0.6552033031    0.0426852067    1.9301263757
 H   -1.8594747056    0.0274258655    2.2756072223
 H   -3.1954575106   -1.9740508127    1.5785255082
 H   -1.7000836543   -2.6962165039    0.8166837479
 H   -0.5490922446   -2.6700034202    3.0696617150
 H   -2.0239649074   -1.9219322364    3.8293852058
 H    0.3797768416    0.7641534613   -2.4205279646
 H    0.1695775117   -0.7664789697   -3.1004829016