13

 C   -0.0172540069    1.4525690348    0.0005403987
 N    0.0016221101   -0.0056988231   -0.0304902540
 C   -0.1009308193   -0.7055193145   -1.1734337270
 N   -0.0893914800   -2.0063140635   -1.2416669683
 C    0.0403532177   -2.6191226664   -0.0260909900
 N    0.1480860620   -2.0663691435    1.1464826340
 C    0.1355147713   -0.6877236417    1.2263303865
 O    0.2254617421   -0.0341402934    2.2384710511
 H    0.9077256719    1.8237534515    0.4462949396
 H   -0.1226056826    1.8308629366   -1.0177472311
 H   -0.8490784889    1.7975031087    0.6179836910
 H   -0.2005245441   -0.1214639657   -2.0867739739
 H    0.0519418665   -3.7073788398   -0.0608155467