14

 C   -0.3389741246    1.1504242748   -0.0714085790
 C    1.1355866502    1.0481719137    0.2701926433
 C    0.3499480719   -0.1789501456   -0.0370697458
 O    0.1062658323   -1.0311090388    1.0762401762
 C   -0.9139695249   -1.8590713184    0.9525876518
 N   -1.7079999562   -2.0023441479   -0.0738224644
 O   -2.5616421438   -2.9902444156    0.3278969320
 N   -2.2224002103   -3.3919376056    1.6075638194
 N   -1.2326391611   -2.7163026097    1.9887335300
 H   -1.0191084452    1.3744229614    0.7420677515
 H   -0.6364732882    1.5421493751   -1.0370320493
 H    1.8727179532    1.3744572376   -0.4539035495
 H    1.4136047872    1.2002167420    1.3066416383
 H    0.5142360693   -0.7302736331   -0.9567445146