13

 N    0.0320080122    1.3263986441   -0.0231614873
 C   -0.0757354906   -0.0098518031    0.0713941093
 N   -1.1805665225   -0.6280948303   -0.1472833462
 C   -1.2003256501   -2.0062318607   -0.0021507560
 O   -2.1713341545   -2.6990410359   -0.1760554258
 N    0.0235085582   -2.5912542697    0.3746746013
 C    1.2041815175   -1.9378616193    0.6010392698
 N    2.2755451173   -2.5120137131    0.9320149808
 O    1.1192771421   -0.5610352736    0.4318423007
 H    0.9278620054    1.7724768833    0.0593663308
 H   -0.7656140177    1.8412368257   -0.3527296098
 H    0.0354160872   -3.5943814673    0.4853753230
 H    3.0319407756   -1.8434858000    1.0518114594