19

 C   -0.2549388936    1.5264200326    0.0864085431
 C   -0.0175695027    0.0306337772    0.0367856346
 C   -1.2290563589   -0.7804400200   -0.3838675051
 C    1.3321392471   -0.4822531685   -0.3403128487
 C    0.8804647744   -0.6439144549    1.1037002629
 C    1.5529515831    0.1560314182    2.1569897376
 O    2.1931809661    1.1704179433    1.9439230069
 C    1.3943513881   -0.3531698390    3.5115966778
 C    1.2644004782   -0.7846252385    4.6280223086
 H    0.6270211353    2.0660251025    0.4331164607
 H   -0.5129601558    1.8921182117   -0.9141740027
 H   -1.0912157196    1.7686959393    0.7520631733
 H   -1.5583450823   -0.4804738710   -1.3856201486
 H   -1.0116780116   -1.8525443451   -0.4109934968
 H   -2.0686314442   -0.6219680937    0.3019982932
 H    1.4091926575   -1.3862176706   -0.9350687798
 H    2.1243194085    0.2439160065   -0.4890832461
 H    0.5511958686   -1.6254985150    1.4253840251
 H    1.1591634718   -1.1502593449    5.6205274038