17

 O    0.1689675895   -0.0492264478    0.4693257712
 C    0.1251365259    1.1421121495    0.2956567622
 N    1.1400643490    1.8976729901   -0.2433019228
 C    1.3383851521    3.3818444312   -0.3245261472
 C    2.7816088453    3.0922848365   -0.8727810701
 C    4.1544582403    3.2826171866   -0.2124182725
 C    4.6634999122    1.7919819189   -0.2076360925
 N    3.4495204797    0.9357829806   -0.0253275945
 C    2.5164620578    1.6830781208   -0.4347960142
 H   -0.7588265955    1.7695712125    0.5289335065
 H    0.6534254574    3.8867665770   -1.0080946514
 H    1.3146058795    3.8537192984    0.6623302414
 H    2.8126851766    3.2197128468   -1.9584461907
 H    4.8213904769    3.9658331859   -0.7430421433
 H    4.0531908106    3.6324054391    0.8205119533
 H    5.1764013475    1.5378013428   -1.1446656233
 H    5.3602157152    1.5931707512    0.6103599679