16

 O   -0.0418021265    1.4083319969   -0.1561907991
 C    0.0100815336    0.0113501051    0.0852624102
 C   -1.3646378005   -0.5984259882    0.1765194531
 C   -2.3788410854   -0.0811490376    1.2353100688
 N   -3.6343249969   -0.8466312431    0.9174279651
 C   -3.1722557329   -1.7514938412    0.1647918471
 O   -3.3619656284   -1.7275171381   -1.2294523748
 C   -1.9121992825   -1.3750858530   -1.1694260526
 C   -1.6381532748   -2.0608110424    0.0856192134
 H   -0.5256078711    1.5453129126   -0.9779284965
 H    0.6153811639   -0.5136279742   -0.6714062188
 H    0.5301198864   -0.1016949585    1.0441064935
 H   -1.9836986506   -0.2117131250    2.2544645494
 H   -2.6393077425    0.9722191427    1.1032907352
 H   -1.4063538423   -1.3513219290   -2.1279612430
 H   -1.0855140095   -2.9512785773    0.3553860389