21

 C   -0.0330254628    1.5026067137    0.0658432654
 C   -0.0051267785    0.0028807529   -0.0516925530
 C   -0.0995016206   -0.6343429384   -1.2236652670
 C   -0.0288168851   -2.1365824054   -1.3524180477
 C    0.5603155508   -2.7801764803   -0.0961356533
 C    1.9654522976   -2.2330237945    0.3433962760
 C    1.3203130121   -1.6336214528    1.5926010447
 C   -0.0214840895   -2.2577655690    1.2361707547
 C    0.1190438280   -0.7643999335    1.2228398622
 H    0.8825226891    1.8786825447    0.5405470954
 H   -0.1318705713    1.9827066515   -0.9115881109
 H   -0.8680153175    1.8374074488    0.6952955055
 H   -0.2134520444   -0.0588949902   -2.1397623758
 H   -1.0258896553   -2.5518312816   -1.5666119642
 H    0.5908852884   -2.4010899499   -2.2203368491
 H    0.5477861991   -3.8697938494   -0.1701491021
 H    2.6594617975   -3.0417570595    0.5846607390
 H    2.4559495989   -1.5360941067   -0.3437847158
 H    1.7876812619   -1.5402454576    2.5662683938
 H   -0.7370436804   -2.7728889376    1.8656736758
 H   -0.3037779579   -0.2684123252    2.0934711364