23

 C   -0.4477990908    1.2914438384   -0.1105004707
 O   -0.1019777591   -0.0758503204   -0.1097240896
 C    0.7877389246   -0.5605861454   -1.1428205065
 C    0.2654947732   -0.2172559403   -2.5462384175
 C    2.1945692094    0.0075591355   -0.9260158867
 C    0.6961946598   -2.0788445135   -0.9362888021
 O   -0.6342439453   -2.5236996943   -0.9591821109
 C    1.6617454305   -3.0403158152   -1.5491345735
 C    1.6396654706   -2.8462826824   -0.0428773357
 H    0.4311287606    1.9487067651   -0.0632135738
 H   -1.0491976936    1.5765765255   -0.9840505504
 H   -1.0464937248    1.4582094897    0.7890170582
 H    0.2549169362    0.8615220930   -2.7243999416
 H    0.9164433549   -0.6708643764   -3.2991140588
 H   -0.7413995711   -0.6166713826   -2.6826747490
 H    2.5065316170   -0.1158911245    0.1134942146
 H    2.9243660589   -0.4836372948   -1.5755438461
 H    2.2216107536    1.0742481653   -1.1661628333
 H   -1.0981456583   -1.9385288575   -0.3454187838
 H    1.2332093984   -3.9530343428   -1.9470416760
 H    2.5108926196   -2.6589381590   -2.1053590431
 H    2.4804363720   -2.3463709558    0.4233809689
 H    1.1890988737   -3.6331102577    0.5507581172