19

 C    0.2058259621    1.3484445684    0.2444199792
 O    0.0018040940   -0.0346005636    0.0576033816
 C    0.5658210830   -0.5533156574   -1.1280605626
 C    2.0699604744   -0.8495373100   -0.9711886950
 O    2.1537818896   -2.1546441330   -0.3823056686
 C    0.9848371308   -2.8339760507   -0.5539650771
 O    0.8191442505   -3.9425491070   -0.1375041030
 C    0.0113239732   -1.9660000311   -1.3530846100
 C   -1.4526172968   -2.2188002253   -1.0103604380
 H    1.2697019212    1.6081477140    0.3474488803
 H   -0.2129920796    1.9325014028   -0.5894238326
 H   -0.3087353433    1.6261032819    1.1667409419
 H    0.3735985549    0.1248327672   -1.9715772537
 H    2.5827780059   -0.8555293221   -1.9408878196
 H    2.5766597741   -0.1472905505   -0.3061092692
 H    0.1934458326   -2.2217003012   -2.4069237514
 H   -1.6740921792   -1.8862571713    0.0046172124
 H   -2.1139723316   -1.6863106218   -1.6996927710
 H   -1.6607276158   -3.2891455395   -1.0787542237