18

 C   -0.1279064141    1.5535492777    0.2660480449
 C    0.0403577773    0.0561584408    0.1274784726
 N    1.2934449599   -0.5906939628   -0.2519319041
 C    2.4919667539    0.1874773459   -0.5374024559
 C    0.8510613051   -0.7179852283    1.1162999569
 C    1.4774171926   -0.2619202493    2.4360259322
 O    1.0816837064   -1.5349685326    3.0352883191
 C    0.5422015135   -2.0051099740    1.8498409340
 O    0.0340803757   -3.0578510812    1.6476385495
 H    0.7089404648    2.0304846352    0.7814756375
 H   -0.2322975380    2.0228804895   -0.7178461610
 H   -1.0376162504    1.7719995295    0.8343882611
 H   -0.8273927936   -0.4536377655   -0.2892641458
 H    2.6427397591    1.0657547450    0.1068622430
 H    3.3636829591   -0.4651204130   -0.4327774385
 H    2.4482080274    0.5277716031   -1.5759224770
 H    2.5645281032   -0.1490267536    2.4448693902
 H    0.9999612081    0.5752153437    2.9505290813