21

 C   -0.1484680451    1.5315025825    0.0075637631
 C    0.0035043722    0.0161996939   -0.0383551220
 C    1.1320072681   -0.4850754874   -0.9605509391
 C    1.2785752759   -1.9885495854   -0.8495556577
 C    1.8553144711   -1.1107925264    0.2250510173
 O    3.2059899603   -1.0769844401    0.5297564967
 C    0.7639417911   -0.6194030418    1.1576144593
 C    1.0224920334    0.0022592850    2.4938501923
 C    0.2441105266   -1.2927147227    2.3949107447
 H    0.8127932347    2.0170712706    0.2047059797
 H   -0.5307742117    1.9109688507   -0.9465848318
 H   -0.8490081410    1.8398205597    0.7910780104
 H   -0.9671244569   -0.4528141252   -0.2439258420
 H    1.5394838586    0.0650638033   -1.8002659623
 H    0.4133972115   -2.6209158286   -0.6598201948
 H    2.0169740154   -2.4146478009   -1.5227244018
 H    3.4873026470   -1.9686361356    0.7598209235
 H    2.0418437972   -0.0396669720    2.8636705284
 H    0.4834855131    0.9041364265    2.7647723413
 H   -0.8236912835   -1.2566735222    2.5877735796
 H    0.7234108719   -2.2097720937    2.7250988851