17

 C    0.2016161205    1.5951154936   -0.1921829661
 C    0.1387668740    0.1452890723   -0.0900089858
 C    0.0750676069   -1.0540525003   -0.0057520927
 C    0.0221543759   -2.5009006092    0.0927380526
 C    0.8625686506   -3.2019558864   -0.9656162436
 C    0.1096398940   -3.0806085472    1.5323739272
 C   -1.3295344426   -3.5179773534    1.2803826381
 O   -2.1857659002   -4.1018513532    1.8624590909
 O   -1.3880974398   -2.9893941668    0.0192461801
 H    0.8195220417    1.9075578431   -1.0406824712
 H   -0.7985658946    2.0185118874   -0.3336628669
 H    0.6260784393    2.0393716996    0.7144987945
 H    1.9130884420   -2.9173309409   -0.8587348922
 H    0.7742723903   -4.2870133332   -0.8619907238
 H    0.5261733587   -2.9149174966   -1.9646742912
 H    0.8179119665   -3.8993774651    1.6695097473
 H    0.2235668567   -2.3474421338    2.3306867027