16

 O    0.1305979088    1.3545999246    0.1134146747
 C    0.0702251395   -0.0181971507    0.0711452198
 C    0.9476612119   -0.7894781833    1.0397056780
 O    0.2036642948   -1.6067661809    1.9612460546
 C    0.6206270963   -2.1758724373    0.7056412240
 C   -0.4033845370   -2.0038303216   -0.4120536683
 C   -1.2929366851   -0.7767748504   -0.0521685895
 N   -1.3619283604   -0.3037666699   -1.4903110505
 C    0.0498206553   -0.8001021198   -1.3104798657
 H   -0.4882756711    1.6622995318   -0.5658191492
 H    1.9114728392   -0.4211852550    1.3723502942
 H    1.3172973957   -3.0055286542    0.7592694151
 H   -0.8671864799   -2.8692458634   -0.8848338544
 H   -2.1478800531   -0.7351153658    0.6210906271
 H   -1.9014516601   -0.9650023085   -2.0548847151
 H    0.7792150952   -0.7831281254   -2.1231605948