19

 O   -0.1903742155    1.3393308559   -0.0738378060
 C   -0.1651083099   -0.0521644742    0.0330646020
 C   -0.5386861555   -0.7581291449    1.3106276974
 C   -1.6196570737    0.0109128833    2.0980306372
 C   -2.5479066858   -0.0155016126    0.8441823322
 C   -1.4629197048   -0.7861859564    0.0659301855
 C   -1.4649363316   -2.2212048252   -0.4014389497
 O   -0.3191315514   -2.8234100283    0.2254081598
 C   -0.0603764447   -2.1794010368    1.4851053941
 H    0.5705343499    1.6864672278    0.4036756483
 H    0.6184820561   -0.5480483506   -0.5406212337
 H   -2.0143921899   -0.5721011955    2.9331569208
 H   -1.3248889620    0.9966607310    2.4663549825
 H   -3.4488869254   -0.6139708028    0.9962715548
 H   -2.8281345213    0.9512210128    0.4220408256
 H   -2.3990505009   -2.7157755803   -0.0900180593
 H   -1.3356427342   -2.3733260748   -1.4779931421
 H    1.0115409090   -2.3056238343    1.6722197759
 H   -0.6133654584   -2.6642495241    2.3061122847