17

 C   -0.0689910031    1.4882944713   -0.3186708259
 C    0.0075252324   -0.0017809379   -0.0929139236
 C    1.2797967359   -0.7447372032   -0.2996054509
 N    0.7563869992   -0.5669986698    1.0544699930
 C    1.4453766657    0.2795711908    1.9264098906
 C    0.9937765803    0.7983981525    3.1228134327
 N    2.0608259612    1.4904766708    3.5907168531
 N    3.1124944740    1.4091041719    2.7636819248
 N    2.7391080268    0.6778724836    1.7479376598
 H    0.9017721831    1.9669991280   -0.1682846818
 H   -0.3972560644    1.6937603190   -1.3428223733
 H   -0.7895072106    1.9554968549    0.3621896514
 H   -0.9232653918   -0.5374148610   -0.2699796539
 H    1.2700522228   -1.7689502417   -0.6617812605
 H    2.1592180598   -0.1667466243   -0.5679485996
 H    0.0580301343    0.7231760407    3.6481523912
 H    2.1480329843    2.0141157843    4.4469787729