22

 C    0.0444740727    1.6046503118    0.5275148406
 C   -0.0491922755    0.1737122223   -0.0178137834
 C    0.8457759922   -0.7774229694    0.8010325092
 C   -1.4689565998   -0.3327898292   -0.0813241028
 C   -2.5908638742    0.2315194350    0.4831685496
 N   -3.6692334068   -0.5723700163    0.1918012545
 C   -3.2669091735   -1.6519755506   -0.5578841303
 C   -4.2287713599   -2.6937435974   -1.0262829704
 C   -1.9085331514   -1.5251417317   -0.7385732877
 H    1.0801943714    1.9585697329    0.5115221223
 H   -0.5613447637    2.2981903511   -0.0637509478
 H   -0.3032200832    1.6526115434    1.5660788355
 H    0.3462906207    0.1845448959   -1.0440169165
 H    0.5158315164   -0.8108526765    1.8453129330
 H    0.8059370287   -1.7976272191    0.4083162598
 H    1.8903066516   -0.4463146352    0.7835076755
 H   -2.7161900237    1.1331909548    1.0599621980
 H   -4.6159701426   -0.3910348992    0.4759211623
 H   -5.0161005018   -2.2756083862   -1.6665730277
 H   -3.7000760605   -3.4518843358   -1.6085139538
 H   -4.7259363472   -3.2058915200   -0.1924449296
 H   -1.2884958600   -2.2157394906   -1.2923429203