21

 C   -0.1336194573    1.6211573123    0.0071713345
 C   -0.0834962756    0.0907058113   -0.0293827221
 C    0.7525048032   -0.4799741722   -1.1887649326
 C    2.2454419143   -0.2153041614   -1.1262536870
 C    2.9659446321   -1.3261066035   -1.3066298342
 C    2.0958543985   -2.5278047865   -1.4530554603
 C    1.2528434533   -2.8682420419   -0.2250435403
 C    0.6845636446   -2.0087369419   -1.3250545702
 O   -0.3202735856   -2.5397109000   -2.1377467357
 H    0.8603542238    2.0540745588    0.1594816407
 H   -0.5311786198    2.0263645093   -0.9300214187
 H   -0.7744460577    1.9748476987    0.8209176184
 H    0.3054617198   -0.2899244237    0.9223982859
 H   -1.1070844599   -0.2976915384   -0.1222520153
 H    0.3474397990   -0.0596850755   -2.1231420362
 H    2.6569772090    0.7743894797   -0.9644385664
 H    4.0489560749   -1.3774266000   -1.3218668963
 H    2.3455231953   -3.3272674221   -2.1410177642
 H    0.8606924023   -3.8793486958   -0.1807169956
 H    1.5336973279   -2.4337987560    0.7287080800
 H   -1.1206947120   -2.6190380611   -1.6075838143