11

 C   -0.0066299325    1.4880865445    0.0175896163
 C   -0.0116939300   -0.0071856422   -0.0169463319
 N    0.1449158427   -0.6229290639   -1.1923971501
 C    0.1237639239   -1.9441785239   -1.1022747893
 N   -0.0347623584   -2.6503703839    0.0227096245
 N   -0.1840696904   -1.9752322966    1.1482350880
 N   -0.1754975944   -0.6556576602    1.1501443276
 H    0.9379185619    1.8658254752   -0.3860761478
 H   -0.8051108213    1.8770236904   -0.6219530808
 H   -0.1425684343    1.8452258021    1.0379791073
 H    0.2447315428   -2.5217862315   -2.0153676038