13

 O    0.3186574742    1.4687110711    1.8966407397
 C    0.7134286390    1.0454982668    0.8459395920
 C    1.3139492796    1.9352205067   -0.2470761955
 O    1.9617713244    1.4147138094   -1.1271624080
 C    1.1691166082    3.4322832312   -0.1687795392
 C    2.4899032729    4.1792142374   -0.1456541624
 N    1.6744401200    4.1792369232   -1.3384339871
 C    0.0153112842    4.0026533124    0.4845140690
 N   -0.9067939101    4.4887132991    0.9823721022
 H    0.7455327838   -0.0299918775    0.5796390568
 H    2.5221929544    5.1132071573    0.4061111052
 H    3.3875735263    3.5677541652   -0.1106437940
 H    2.0272675131    3.4827636875   -1.9974627986