19

 C    0.0227467585    1.5520050606   -0.0025593600
 C   -0.0094873136    0.0444992993   -0.0697310949
 C    0.3712392428   -0.7433271404   -1.3402812525
 C   -0.5015154161   -1.9041951265   -0.7886990784
 O    0.2541855455   -2.7827343566    0.0242679290
 C    1.0568228029   -2.0589164771    0.9578954302
 C    0.3695823352   -0.7349179117    1.2525917695
 O   -1.0299910679   -1.0524464778    1.5099585176
 C   -1.2659999154   -0.8385726524    0.1168934252
 H    1.0535189154    1.9262996460    0.0104629215
 H   -0.4794320206    1.9955844257   -0.8691446215
 H   -0.4769053441    1.9155140521    0.9017685197
 H   -0.0797820187   -0.2800475973   -2.2240302864
 H    1.4200686378   -0.9678938040   -1.5536958818
 H   -1.0734247434   -2.5204853847   -1.4825696809
 H    1.1252823338   -2.6700098566    1.8632872894
 H    2.0750679717   -1.8989380313    0.5697496720
 H    0.8315698236   -0.1669100518    2.0652072649
 H   -2.2951650575   -0.5739216955   -0.1352386225