14

 O   -0.0302177547    0.0731415451    0.2240269079
 C   -0.0182061410    1.2575556484    0.0305289659
 C   -1.2294176686    2.1931623532   -0.0261635505
 O   -0.8046421358    3.3617687126   -0.7146557567
 C    0.6064780609    3.4993915209   -0.6264718599
 C    1.1594131342    4.0296611425    0.7128818541
 O    1.6260807168    2.7061504653    1.0825666808
 C    1.2067626942    2.1524813777   -0.1899459482
 H   -2.0601120878    1.7355497009   -0.5695488845
 H   -1.5677691932    2.4167297747    0.9977076460
 H    0.9546556295    3.9865746233   -1.5369624899
 H    1.9929619669    4.7368013941    0.6321486917
 H    0.4062218064    4.4215006521    1.4048408448
 H    2.0169589122    1.6732680991   -0.7435319015