20

 O    0.0024160324    1.4259934494   -0.0060097519
 C    0.0415554504    0.0024122822   -0.0394228980
 C    0.8530221574   -0.5543337234    1.1447966040
 C    0.8396634482   -2.0789507457    1.2332008080
 C    0.0301080873   -2.7835386273    2.2964581832
 C   -0.4417418071   -2.7966123823    0.8653946693
 C   -1.6022483840   -1.9571955805    0.4058383706
 N   -1.9915418709   -0.7947560026    1.2285636659
 C   -1.3584279840   -0.5771864908   -0.0910603192
 H   -0.4732183984    1.6676995095    0.7975111257
 H    0.5467304979   -0.2413270028   -0.9826912986
 H    1.8788437643   -0.1859597923    1.0574668732
 H    0.4359507117   -0.1199828440    2.0595113633
 H    1.7593484636   -2.5689756803    0.9292260620
 H    0.4162405416   -3.7053541823    2.7175973901
 H   -0.5279254466   -2.1596867414    2.9858876492
 H   -0.3436827042   -3.7309329573    0.3209736550
 H   -2.4117095914   -2.5128227273   -0.0620810665
 H   -2.9955257475   -0.6520929375    1.1694267734
 H   -1.9787078006   -0.1937744231   -0.8979585287