21

 C    0.0176449281    1.5130832590   -0.0141129788
 C    0.0472918537    0.0051771137   -0.0403332430
 C    0.4524336314   -0.7228936503   -1.3200486639
 C    0.3336739161   -2.2043241769   -0.8672381301
 C   -0.1157078618   -2.0298485673    0.5817301299
 C   -0.3634623825   -3.2450523253    1.4403607801
 C    0.6106507680   -0.7836354393    1.1877850872
 O   -0.5728025472   -0.4433856343    1.9908639286
 C   -1.0891928183   -0.8077956512    0.6634501263
 H    1.0051459461    1.9309967881   -0.2408655064
 H   -0.6829705386    1.9067585261   -0.7593636890
 H   -0.2907335151    1.8667411148    0.9731133125
 H   -0.2155768635   -0.4799641966   -2.1532304652
 H    1.4672452202   -0.4561740324   -1.6338546392
 H   -0.3992390556   -2.7687575507   -1.4535075855
 H    1.2836825026   -2.7450722531   -0.9344509489
 H    0.5413906986   -3.8572595135    1.5279226536
 H   -0.6752705172   -2.9408088091    2.4428566696
 H   -1.1468377192   -3.8791534809    1.0096830028
 H    1.5886879574   -0.7142987594    1.6708801571
 H   -2.1708510731   -0.7676793216    0.5112761523