13

 O    0.0907946293    1.3509223751   -0.1427304705
 C    0.0662699176    0.0002148636   -0.0088202487
 C    0.0078246517   -0.8664047024   -1.0961185135
 N   -0.0020229623   -2.1390781018   -0.6064372566
 C    0.0484884332   -2.0914458275    0.7525566689
 C    0.0924604664   -0.7718576232    1.1715003414
 N    0.0495131524   -3.2947763554    1.4994826083
 O    0.0033929664   -4.3508164851    0.8577493460
 O    0.0961504673   -3.2092192959    2.7232039114
 H    0.1311563403    1.7531463064    0.7303637829
 H   -0.0259908465   -0.6545806852   -2.1513136967
 H   -0.0394555357   -3.0074288345   -1.1153367661
 H    0.1369860899   -0.4393223141    2.1955838033