16

 C    0.0262089159    1.5674534862   -0.0999980203
 C    0.0706811407    0.0611999679    0.0254479769
 C    1.3073718733   -0.7422846089   -0.1169262500
 O    2.4626666082   -0.0752258658    0.3639347138
 C    1.9188410333   -0.0339696711    1.7166629328
 C    0.6084692927   -0.6645062997    1.2653163693
 C   -0.1271933298   -1.7017317095    1.9873725743
 O    0.1308188435   -2.0611510353    3.1136026228
 H    0.9982753250    2.0068681473    0.1333451442
 H   -0.2268294107    1.8514288798   -1.1264634113
 H   -0.7252869545    2.0015539226    0.5663679789
 H   -0.8006078205   -0.4622411373   -0.3677910938
 H    1.4490817671   -1.5857595565   -0.7842488733
 H    2.4885635876   -0.6893399391    2.3805030673
 H    1.8869016538    0.9822004454    2.1218902700
 H   -0.9650706857   -2.1588138459    1.4113728085