20

 C    0.0365625876    1.5599277766   -0.2241395556
 C    0.0440013068    0.0599755475   -0.0208514950
 C    1.3193878953   -0.7414869481   -0.0973866858
 C    0.5989293975   -0.5911235793    1.2254673050
 C    1.1959718517    0.2196054356    2.3541881304
 O    0.2136665112    0.8988280969    3.1191214970
 C    2.0763939764   -0.6852415156    3.2529340872
 C    2.7249960562    0.0477141470    4.3364481333
 N    3.2515018058    0.6267455132    5.1862551396
 H    0.9717423557    2.0244699073    0.1007900039
 H   -0.0947754736    1.8010365150   -1.2842001032
 H   -0.7762294812    2.0316144615    0.3366110890
 H   -0.8354472573   -0.4370111261   -0.4227992378
 H    1.3135487527   -1.7093856488   -0.5860580998
 H    2.2455927300   -0.1879575598   -0.2238424432
 H    0.0616049951   -1.4734547821    1.5734740772
 H    1.8327513107    1.0127831248    1.9513252878
 H   -0.4723230324    0.2666781430    3.3611849412
 H    1.4586375123   -1.4824126635    3.6854016316
 H    2.8441120896   -1.1742914849    2.6431992671