23

 C    0.0220475556    1.5884422535    0.2182930246
 C    0.0169657582    0.0648034966    0.0273133749
 C    0.6811887260   -0.4039518778   -1.2428077718
 C    1.6087696990   -1.5911542779   -1.3104489471
 C    2.1317372016   -0.2400724462   -1.7224035275
 C    1.6565582486    0.1102810416   -3.1387575243
 C    0.2048410492   -0.1183632883   -2.6659107330
 C   -0.9028292621   -0.8097394080   -3.4099929463
 C   -0.9975042773    0.6672758304   -3.0916396233
 H    1.0475645901    1.9697454790    0.2596700001
 H   -0.4862780968    2.1016459586   -0.6028520744
 H   -0.4793223893    1.8680732370    1.1504345240
 H    0.5168067346   -0.4044088944    0.8834817530
 H   -1.0175660086   -0.3066545206    0.0506951942
 H    1.9682392597   -1.9535786944   -0.3516620057
 H    1.4543804554   -2.3710095588   -2.0533628487
 H    2.9637188547    0.2271466332   -1.2087550596
 H    1.8453753794    1.1548829769   -3.4032522035
 H    2.0238729400   -0.5322784122   -3.9475771121
 H   -0.7243485113   -1.0999242975   -4.4406329546
 H   -1.5464172384   -1.4900760354   -2.8605107487
 H   -1.7133635942    0.9721629551   -2.3349614599
 H   -0.8833891143    1.3792434096   -3.9037497405