19

 O   -0.1418457145    1.4842458931   -0.0084330052
 C   -0.0470954424    0.0884712769   -0.0555311532
 C   -0.4931986855   -0.7223583581    1.1353537107
 C   -1.3404766685   -0.6743209881   -0.1241419414
 C   -2.6427934383    0.0558985979   -0.1263884216
 C   -3.5386709386    0.0263114137   -1.3297067391
 C   -3.9654021654   -0.7082917862   -0.0645584272
 C   -3.9901446802   -2.1409090385   -0.0380809084
 C   -4.0160013843   -3.3439147421   -0.0090568870
 H    0.5351217776    1.8054743113    0.5959957526
 H    0.7887406801   -0.2890519974   -0.6447990820
 H    0.0314294427   -1.6386825440    1.3824743346
 H   -0.8598928488   -0.1618316177    1.9895353255
 H   -1.3286589501   -1.5706264441   -0.7361956822
 H   -2.6299170262    0.9850919190    0.4322043688
 H   -4.0868053573    0.9219449421   -1.5994551224
 H   -3.2373197986   -0.5907756463   -2.1689048373
 H   -4.7514444343   -0.2340196522    0.5161283819
 H   -4.0427471874   -4.4047187394    0.0160786029