14

 N    0.0750290788    1.2773141534   -0.1568525261
 C   -0.0199480476    0.0171042315   -0.0804920468
 N   -1.2243835035   -0.6743060887    0.0075587572
 C   -1.2643842822   -2.1231347746    0.1430398730
 C   -2.7606905823   -2.3916585065   -0.0727381291
 O   -3.4005245870   -1.1505519711    0.2300656558
 C   -2.5038035096   -0.1173365173    0.1604589083
 O   -2.8184483419    1.0281442494    0.2371099576
 H    1.0560123737    1.5439514646   -0.2210351486
 H    0.8227364447   -0.6864122054   -0.0859107596
 H   -0.6420040441   -2.6192964081   -0.6064226406
 H   -0.9304603462   -2.4408077673    1.1392260678
 H   -2.9789499556   -2.6618569749   -1.1120701431
 H   -3.1595251571   -3.1623186951    0.5886632941