22

 C   -0.2660168089    1.6343324990   -0.2043340207
 C    0.0676071704    0.1478152397    0.0213666863
 C    0.7622016265   -0.4937957643   -1.1461635540
 C    2.0318298075   -0.9185122124   -1.2244398055
 C    3.0971193297   -0.8754267591   -0.1727940084
 C    2.3238976448   -1.5593514388   -2.5673263097
 C    1.1126130721   -1.1554658716   -3.4382593192
 C    0.0025980118   -0.7903541567   -2.4268233272
 H    0.6459533314    2.2176512718   -0.3657154316
 H   -0.9084392271    1.7733756057   -1.0794614653
 H   -0.7888987301    2.0527845330    0.6615775364
 H    0.6752470530    0.0525470846    0.9272720997
 H   -0.8672944324   -0.3945660712    0.2227305891
 H    3.4614170344   -1.8853512207    0.0586783236
 H    3.9699254623   -0.3069857829   -0.5200558008
 H    2.7541891537   -0.4217585121    0.7602601714
 H    3.2790446458   -1.2280491117   -2.9938554860
 H    2.4064347603   -2.6515420793   -2.4571895448
 H    1.3698228107   -0.2710559274   -4.0301378007
 H    0.8107426766   -1.9363856092   -4.1411991534
 H   -0.6956566810   -1.6259739232   -2.2650162232
 H   -0.6116378215    0.0511216768   -2.7682849458