25

 C   -0.3369174311    1.4518165897   -0.1103758348
 C   -0.0643849442   -0.0547697202   -0.1255225731
 C    0.8710529782   -0.5317170459   -1.2559480853
 C    2.2917978989    0.0186836033   -1.1012381692
 C    0.8542291756   -2.0796297031   -1.3710989478
 C   -0.1515590027   -2.3455371299   -2.4980461670
 C    0.0694670750   -1.1310837856   -3.4044459242
 C   -1.0946020386   -0.7541717981   -4.3064161149
 O    0.3292265758   -0.0527287732   -2.5067979748
 H    0.5641340950    2.0290906820    0.1191298030
 H   -0.7092678262    1.7788498912   -1.0843129393
 H   -1.0863689208    1.7007564850    0.6473445871
 H    0.3630448602   -0.3713105554    0.8348153196
 H   -1.0170690977   -0.5884002689   -0.2327382881
 H    2.7473781422   -0.3307579884   -0.1680194962
 H    2.9192526048   -0.3154735170   -1.9330838260
 H    2.2949346536    1.1115629844   -1.0971811549
 H    1.8457221257   -2.4492911107   -1.6535657189
 H    0.5825181535   -2.5568261741   -0.4261302240
 H    0.0139429683   -3.2963588172   -3.0115231962
 H   -1.1797177248   -2.3412936729   -2.1182089766
 H    0.9633681216   -1.3076455486   -4.0290159893
 H   -1.9995872226   -0.5874011357   -3.7135731958
 H   -0.8724648681    0.1636985881   -4.8580112693
 H   -1.2920475616   -1.5505377287   -5.0313957537