17

 C   -0.2618876053    1.3629357418   -0.0708360094
 N    0.1215168581   -0.0291427158   -0.0404791031
 C    0.4070659459   -0.8111710482   -1.1331032269
 N    0.3542083747   -2.0874082360   -0.9713997447
 C    0.0175802315   -2.3126175642    0.4043875367
 C    0.9559035859   -1.7969018960    1.4893841999
 C   -0.1499440862   -0.8968063184    1.0662789052
 C   -0.8731982884   -3.4514020824    0.7235254575
 O   -1.2659882903   -3.7171627062    1.8359467585
 H    0.3175189009    1.9542730715    0.6467308807
 H   -0.0789096141    1.7609493440   -1.0719012187
 H   -1.3287935412    1.4924292420    0.1575322441
 H    0.6645016776   -0.3313547058   -2.0720493237
 H    0.8261063277   -2.2909945096    2.4455154758
 H    1.9719876202   -1.5567963308    1.1950043644
 H   -0.9649293240   -0.6288563140    1.7305853590
 H   -1.1674792028   -4.0460799118   -0.1671850355