20

 C    0.0082585875    1.5159090360   -0.1810226175
 C    0.0203062187   -0.0053914816   -0.0002966479
 C   -1.3805088270   -0.6036931324    0.0422680596
 C   -2.2657721316   -0.5798572357   -1.2401969949
 C   -2.7593844016   -2.0084281755   -0.8765997892
 O   -2.8759852678   -2.9766136179   -1.8835945023
 C   -1.5381747262   -2.1466775735    0.0880061167
 O   -0.4494868639   -2.7754413282   -0.5807649495
 H    1.0251373357    1.9196384572   -0.2088210473
 H   -0.4879505646    1.8024362957   -1.1147262842
 H   -0.5239554299    2.0103582555    0.6397260718
 H    0.5855700267   -0.4760078336   -0.8114026378
 H    0.5493958166   -0.2618798466    0.9267108672
 H   -1.9379052905   -0.1764739965    0.8845422612
 H   -3.0163146920    0.2070367833   -1.3406440136
 H   -1.6540727372   -0.6012309906   -2.1482805013
 H   -3.7103597778   -1.9910957447   -0.3370456692
 H   -1.9878702733   -3.0749815920   -2.2505833389
 H   -1.7055309304   -2.6063971669    1.0698002689
 H   -0.5776815814   -3.7264151124   -0.5042035218