21

 C   -0.1171533901    1.5834106565   -0.1607424735
 C   -0.0622022870    0.0573430842   -0.0430179539
 C    1.1595823306   -0.5506892417   -0.8363733628
 C    1.9810536628   -0.5901581093    0.5076375712
 C    0.6325264815   -0.4991219387    1.1808995445
 C   -0.1779723807   -1.1329348922    2.0252664775
 C   -1.6193333872   -0.9354262059    1.5650905411
 O   -2.3212111684    0.0681291025    2.3035379771
 C   -1.4549412776   -0.6011232774    0.0420805974
 H    0.8633503689    2.0451497244   -0.0021442876
 H   -0.4667932731    1.8782584876   -1.1567406890
 H   -0.8130093463    2.0059105225    0.5716707549
 H    0.9516413664   -1.5572042396   -1.2064122779
 H    1.5711511545    0.0602430075   -1.6443350491
 H    2.5908208743   -1.4712074685    0.7181656283
 H    2.6005919726    0.3041269570    0.6254683187
 H    0.0944297300   -1.7487833712    2.8743844612
 H   -2.2176374157   -1.8430080954    1.6979606416
 H   -1.6786338523    0.7442617879    2.5409897531
 H   -2.2790824376    0.0236266918   -0.3132473551
 H   -1.4680382555   -1.5381394317   -0.5255441877