16

 C    0.0483005539    1.4646002603   -0.0062928943
 O    0.0322099111    0.0412493287    0.0105326377
 C    0.6024810633   -0.5765704902   -1.0392364884
 C    0.6946023117   -1.9177242514   -1.2199804079
 C    0.2767503756   -3.1188924366   -0.4652131219
 O    1.3622301841   -2.0874152216   -2.4438951005
 C    1.5983661554   -0.8495958964   -2.8651605364
 O    2.2354979123   -0.7537949296   -4.0308229804
 N    1.1851254933    0.1109247522   -2.0999207160
 H    1.0723614114    1.8515972358   -0.0232090715
 H   -0.4888434089    1.8591658649   -0.8749514525
 H   -0.4512672751    1.7767557565    0.9121350788
 H   -0.4248807628   -3.7433626507   -1.0318221325
 H    1.1281605523   -3.7507141778   -0.1837918919
 H   -0.2224126805   -2.7959627516    0.4517280268
 H    2.3398459729    0.1883760176   -4.2138106591