23

 C   -0.0481846568    1.4214331882    0.0140331929
 O   -0.0133390503    0.0159514997    0.0184331127
 C    0.6248001005   -0.5240409663   -1.1196108933
 C    0.6366836335   -2.0452148836   -1.0004964979
 C    1.2702849755   -2.7421252423   -2.2343293417
 C    2.0627527316   -3.9456171849   -1.6693709816
 C    2.2514802700   -3.5950140456   -0.2062830078
 C    3.1738043299   -4.3793862088    0.6726485668
 C    1.4724787528   -2.5696820414    0.1438969604
 H    0.9639294000    1.8572127849    0.0036032431
 H   -0.5964571672    1.8149668546   -0.8572240418
 H   -0.5599141116    1.7413168147    0.9253220910
 H    0.0941576355   -0.2158692945   -2.0381531116
 H    1.6590524103   -0.1446018477   -1.1971008972
 H   -0.4102472724   -2.3575529873   -0.8700186790
 H    0.5282438241   -3.0312322440   -2.9829932201
 H    1.9641455761   -2.0472039030   -2.7223795651
 H    1.5025067388   -4.8872540982   -1.7666003603
 H    3.0141226531   -4.1063249805   -2.1914565133
 H    4.2042296064   -4.3483046563    0.2953430757
 H    3.1750257900   -4.0011034693    1.6985187926
 H    2.8882472297   -5.4392402031    0.7015924738
 H    1.3979677905   -2.1525602753    1.1420256516