17

 C    0.0521437550    1.5261168314   -0.1182686793
 C   -0.0003082975    0.0142934356   -0.0092465355
 O    0.6620124197   -0.5299144115   -1.1675678721
 C    0.7119705636   -1.8759548662   -1.2391222508
 O    0.2418791996   -2.6074942795   -0.4035625725
 C    1.4306193742   -2.3211677929   -2.4974857656
 C    1.5132621367   -3.8400941072   -2.6255512252
 H    1.0865512373    1.8800643034   -0.1477180408
 H   -0.4543462598    1.8702912982   -1.0244460666
 H   -0.4426413523    1.9785717343    0.7462976185
 H    0.5035365828   -0.3497097983    0.8918496338
 H   -1.0288336525   -0.3593652044    0.0201702515
 H    0.9116487138   -1.8729471971   -3.3531233822
 H    2.4269072556   -1.8632077354   -2.4911782021
 H    2.0456472717   -4.2759919391   -1.7764606591
 H    0.5156378600   -4.2858122631   -2.6476307835
 H    2.0377805021   -4.1189853183   -3.5436522987