18

 C   -0.1707097492    1.5302980620   -0.0176573448
 C   -0.1095402752    0.0011309539   -0.0021763013
 C    0.8510607788   -0.5435834427    1.0582123109
 O    0.4171658458   -0.1217494079    2.3674416489
 C    0.3572287615   -1.2287103682    3.2511626390
 C    0.6129705829   -2.4444965047    2.3855036022
 C    0.9024639781   -2.0435563404    1.1555619758
 C    1.3636672379   -1.0995487565    4.3320195995
 N    2.1413683578   -1.0153599428    5.1822521449
 H    0.8118334003    1.9624158761   -0.2374184882
 H   -0.8708893646    1.8861187038   -0.7788485207
 H   -0.4954608295    1.9129319457    0.9532526845
 H   -1.1042857601   -0.4205386445    0.1839728804
 H    0.2191873999   -0.3741774455   -0.9798009440
 H    1.8562918832   -0.1296208288    0.8721360079
 H   -0.6313334996   -1.2541671944    3.7324345952
 H    0.5770072796   -3.4537886540    2.7714479421
 H    1.1472652324   -2.6762494312    0.3119974976