21

 C   -0.2082097782    1.5431076561   -0.0477657360
 C    0.0451987148    0.0379365096    0.0022499107
 C    1.0607464875   -0.5638247485   -0.9870103045
 C    2.4148987757    0.0050934432   -0.5196313646
 C    2.2548667603   -0.0085793028    1.0368305790
 O    2.3561528642    1.2742073185    1.6432088786
 C    0.8186992005   -0.5502738767    1.2138868779
 C    0.8598155430   -2.0238129395    0.7761694451
 O    1.0411573245   -1.9619281732   -0.6533420240
 H    0.6953735784    2.1265242257    0.1282914600
 H   -0.6304349807    1.8267224849   -1.0184341506
 H   -0.9332199965    1.8302413418    0.7210730211
 H   -0.9096237281   -0.4865741049   -0.1186265836
 H    0.8482687085   -0.4660529866   -2.0526676213
 H    3.2388673319   -0.6204645882   -0.8707946034
 H    2.5768976034    1.0278595076   -0.8748147675
 H    2.9777666320   -0.6915770964    1.5053732021
 H    3.2431948833    1.6091812072    1.4770306107
 H    0.4067740559   -0.3814598631    2.2092092308
 H    1.6872668813   -2.5853866126    1.2282778081
 H   -0.0771772719   -2.5470983223    1.0056202714