20

 O    0.0081826793    1.4342209437   -0.1264772446
 C    0.0346563875    0.0111883728   -0.0237397376
 C    0.7023917722   -0.5373375695    1.2632616020
 C   -0.4552214224   -0.9544554470    2.1941346507
 C   -1.0000459794    0.1871363236    3.0717235545
 C   -1.9477028049    0.9715344777    2.1347566941
 C   -2.3390876499   -0.0712686937    1.0906805531
 C   -1.3813061851   -0.5398778951    0.0512951850
 N   -1.5915101114   -1.3403371846    1.2853902509
 H    0.9141043323    1.7364247266   -0.2452010282
 H    0.5337987672   -0.3991783311   -0.9122729099
 H    1.2979773515   -1.4193048484    1.0065719758
 H    1.3775099331    0.1959129161    1.7164351794
 H   -0.1824477909   -1.8242431557    2.7963654361
 H   -1.5701253634   -0.2408805492    3.9026737786
 H   -0.2050012468    0.8029228124    3.5026012167
 H   -2.8319865773    1.3360996156    2.6637003681
 H   -1.4490032764    1.8259959608    1.6774043167
 H   -3.3970513243   -0.1951075275    0.8729800401
 H   -1.7879450610   -0.9767726876   -0.8569098315