19

 C    0.1203093582    1.3995727052   -0.4666711403
 C    0.0334053499   -0.0315643034    0.0435739523
 C    1.3150784979   -0.8523383909    0.1053553711
 C    0.6892376701   -0.3605147018    1.3782335991
 C   -1.1836360845   -0.7269384223   -0.2852080615
 C   -2.2208372818   -1.2764329648   -0.5620448039
 C   -3.4327538013   -1.9922114258   -0.9330561682
 C   -3.1661249759   -3.0803750001   -1.9754105737
 O   -3.6921910183   -4.1596854422   -1.9649893529
 H    1.0721885887    1.8542655576   -0.1754846554
 H    0.0476015205    1.4311507824   -1.5583315172
 H   -0.6893241864    2.0110398322   -0.0561770433
 H    1.2463184482   -1.9088474402   -0.1240571713
 H    2.2214327578   -0.3702444934   -0.2450916779
 H    1.1645575624    0.4603305578    1.9045198051
 H    0.1932534708   -1.0813246237    2.0168985442
 H   -3.9293125242   -2.4562821111   -0.0742804437
 H   -4.1589495116   -1.2971048772   -1.3829877848
 H   -2.4403039604   -2.7844927882   -2.7641099877