19

 C   -0.1887776357    1.5830173821   -0.0267821492
 C    0.0250217869    0.0760898168    0.0163165121
 C    1.1957659648   -0.6080515452   -0.7470868270
 C    2.1572194981   -0.1077897526    0.3727799427
 O    3.3557068990   -0.8313394563    0.5519592794
 C    3.0958251788   -2.1274464093    1.0275308416
 O    2.0305465709   -2.7369846197    0.3415841827
 C    0.9606353491   -1.8358747176    0.1827873921
 C    0.8755515297   -0.5932567542    1.1360021476
 H    0.7272081431    2.1601017569    0.1204365214
 H   -0.6121119895    1.8774497809   -0.9930705062
 H   -0.8994819778    1.8897838088    0.7482403071
 H   -0.9323472144   -0.4360689443   -0.1388071515
 H    1.3845665471   -0.6238999012   -1.8208764862
 H    2.4167285804    0.9492208730    0.3998916830
 H    3.9907832494   -2.7318857053    0.8647471500
 H    2.8593877830   -2.0828409245    2.1046709440
 H    0.0491591655   -2.4171344820    0.0252829293
 H    0.6766286816   -0.5761266862    2.2085411973