16

 C    0.1242947589    1.5462386258   -0.0411918021
 N    1.3103589904    0.6669749828   -0.0667988587
 C   -0.0131166703    0.0758851018    0.0239742714
 C   -0.4829801662   -0.8671429927    1.1842449039
 N   -1.0946947356   -1.6876374651    0.1123493355
 C   -1.8630698667   -2.6896214224   -0.4260810692
 C   -1.8528469021   -2.4036232832   -1.7813611163
 N   -1.1287148223   -1.2588424019   -2.0820510847
 C   -0.7057513518   -0.8814146658   -0.8999822784
 H    0.0226939770    2.1455461160    0.8594568281
 H   -0.1931158729    2.0354833682   -0.9580659562
 H    1.6737569557    0.5713177228   -1.0120537769
 H    0.3241716136   -1.3692453019    1.7219176747
 H   -1.2093137260   -0.4420935256    1.8814226122
 H   -2.3134785221   -3.4843754064    0.1430760316
 H   -2.3321999396   -2.9725310224   -2.5643494949