19

 C    0.1020939785    1.4068413720   -0.5057224718
 O    0.3055148664    0.0616326259   -0.1200099045
 C    0.7652164138   -0.7836322938   -1.1697092213
 C    1.1877137396   -2.0891345122   -0.4763310917
 O    2.1670915553   -1.8378743086    0.5033490284
 C   -0.2471834890   -1.0129811339   -2.2016664821
 C   -1.0959114186   -1.2233774139   -3.0317666481
 C   -2.0869941070   -1.4639583573   -4.0802809693
 O   -2.0411104710   -0.5166446801   -5.1372859913
 H    1.0308046512    1.8610631174   -0.8829289235
 H   -0.6705557094    1.4899169726   -1.2810146768
 H   -0.2233981249    1.9480809440    0.3853271159
 H    1.6611704522   -0.3336716744   -1.6293368836
 H    0.2883026019   -2.5625788240   -0.0544826913
 H    1.6204111283   -2.7706019774   -1.2136966873
 H    1.8112630993   -1.1248968490    1.0479718349
 H   -1.9708591139   -2.4933577844   -4.4556116942
 H   -3.0970737377   -1.3946695938   -3.6617235237
 H   -1.1364618951   -0.4940322991   -5.4663499286