18

 C   -0.0223518410    1.3405332911   -0.1592431977
 O   -0.0100331036   -0.0431445795    0.0994241381
 C   -1.2827740122   -0.6340811290   -0.0152586422
 C   -1.1418447003   -2.1213939896    0.3167261540
 C   -2.4360537449   -2.8599462897    0.1699088887
 N   -3.0830654559   -3.2761843355    1.2345773330
 O   -4.2366057757   -3.8986997138    0.7644434443
 C   -4.2460128952   -3.8358739979   -0.5736243969
 C   -3.1418583792   -3.1934203456   -1.0265101148
 H    1.0015570312    1.7038194079   -0.0436954600
 H   -0.3650668113    1.5623210323   -1.1826441659
 H   -0.6738075248    1.8822620584    0.5444963699
 H   -2.0005081443   -0.1610472496    0.6754299839
 H   -1.6814273920   -0.5019587087   -1.0362826259
 H   -0.3851968543   -2.5539978140   -0.3468120701
 H   -0.7827164892   -2.2267530581    1.3433476432
 H   -5.0944494153   -4.2920128147   -1.0601555810
 H   -2.8610280918   -2.9910870941   -2.0466690907