18

 C   -0.5599965010    1.1877744523   -0.3497424011
 C    0.0413270188   -0.2155532243   -0.2687322002
 C    0.9395044169   -0.6459916716   -1.4127898898
 C    2.0809066437   -1.1556182512   -0.9489059149
 C    2.0960409753   -1.0849801271    0.5424668851
 C    2.1107199241    0.2918081275    1.1742261185
 C    2.5892732339    1.4885389662    0.4290252027
 O    3.0942954301    2.4315713757    0.9936981118
 N    0.8432736231   -0.4598020921    0.9612963668
 H    0.2023523725    1.9619914427   -0.4688493499
 H   -1.2420518071    1.2544341093   -1.2029480468
 H   -1.1284825053    1.4040059488    0.5585469583
 H   -0.8026989976   -0.9191062749   -0.1997289402
 H    0.6591849937   -0.5431817260   -2.4548119435
 H    2.8944801451   -1.5637092410   -1.5352660839
 H    2.4778974486   -1.9197844422    1.1257735293
 H    2.3570235871    0.3586948796    2.2309570693
 H    2.4955110880    1.4622909785   -0.6728177515