19

 C   -0.2204785448    1.5156662075   -0.0328222881
 C    0.0432703697    0.0034460315    0.0264053394
 C    0.8037211290   -0.4335542120   -1.2249160825
 O    1.1703784268   -1.8149592017   -1.2195031559
 C    1.7716260014   -2.3040358126   -0.0993714237
 O    2.3144150904   -3.3783702897   -0.1389580178
 C    1.6504852144   -1.4959462367    1.1303852746
 C    0.8186269685   -0.4513014003    1.2494068060
 C    0.5894393664    0.2363133385    2.5635851558
 H    0.7159891663    2.0838236261   -0.0208335373
 H   -0.7548102926    1.7711147046   -0.9532110885
 H   -0.8316538475    1.8528814825    0.8076273505
 H   -0.9304999796   -0.5105314806    0.0425855304
 H    0.1968794036   -0.2969538109   -2.1232892814
 H    1.7117595455    0.1774304660   -1.3296828656
 H    2.2086594543   -1.8842905286    1.9750583607
 H    1.1574367433   -0.2414120557    3.3647893333
 H    0.8748749147    1.2935381717    2.5205273243
 H   -0.4738844098    0.2120512703    2.8345059758