23

 C   -0.1273251088    1.5613903818   -0.0051245654
 C   -0.0645295546    0.0343650619   -0.0019053074
 C   -1.4260205330   -0.5606376428   -0.3597859813
 C    1.1789031235   -0.6167307560   -0.6593885361
 C    2.1125232705   -0.2733766984    0.5520347416
 C    2.6224167527   -1.7210884133    0.6627708276
 C    1.1375386367   -1.8665384475    0.2857896736
 C    0.7089301926   -0.6358124094    1.1757449356
 C    0.3463429762   -0.6581320689    2.6368419831
 H    0.8324349748    2.0181209410    0.2521687431
 H   -0.4197083425    1.9366844210   -0.9929888631
 H   -0.8729691769    1.9254476606    0.7117901030
 H   -1.7457620630   -0.2297745470   -1.3550265513
 H   -1.4149897682   -1.6541714690   -0.3617555365
 H   -2.1956546429   -0.2359855420    0.3506734940
 H    1.4762065279   -0.6229432760   -1.7109083681
 H    2.6674532184    0.6536721281    0.7014590488
 H    3.3520482637   -2.0421537801   -0.0878542572
 H    2.9218645852   -2.0704065501    1.6564456530
 H    0.5652217420   -2.7814494826    0.1274019828
 H    1.0897597475   -1.2096421003    3.2232386716
 H    0.2867863370    0.3570667297    3.0454389464
 H   -0.6258898488   -1.1382490207    2.7961411023