17

 O    0.1071904770    1.4167940038   -0.0868447356
 C    0.0865307375    0.0031340415   -0.0295528913
 C   -1.3533559149   -0.5329874989   -0.0194615551
 N   -1.4096606976   -1.9831664919   -0.0064831512
 C   -1.6369843131   -2.8328211497   -1.0657774943
 N   -1.5901816555   -4.0903823726   -0.7113971751
 C   -1.3130678416   -4.0877509400    0.6422025402
 C   -1.1995459270   -2.7954321167    1.0808100166
 O   -0.9444415794   -2.2018913913    2.2757756293
 H   -0.1548823634    1.7557053303    0.7749341003
 H    0.6011462305   -0.3531030298   -0.9276316938
 H    0.6299855762   -0.3854480137    0.8425541264
 H   -1.8836071124   -0.1520353341    0.8602643714
 H   -1.8815906448   -0.1764649293   -0.9073815736
 H   -1.8372177376   -2.4517804350   -2.0562837446
 H   -1.2169894637   -5.0002007300    1.2104148354
 H   -0.8688222101   -2.8882760526    2.9457170950