16

 C    0.0136093974    1.5880851860    0.2866222268
 C   -0.0211313947    0.0889029403   -0.0596825467
 C   -1.3939230371   -0.4752435670   -0.1475747439
 C   -2.1258510176   -0.9973857432   -1.1733499798
 O   -1.6765883903   -1.1147652673   -2.4564690685
 C   -3.4046740044   -1.3709186100   -0.6425058086
 C   -3.3572767295   -1.0451488644    0.6758428736
 O   -2.1588282763   -0.5044112926    0.9942632193
 H    1.0452655960    1.9473803689    0.3536114779
 H   -0.5061355710    2.1767675336   -0.4753374177
 H   -0.4747671505    1.7753865059    1.2472496973
 H    0.4625615804   -0.0854819462   -1.0261519355
 H    0.5615475766   -0.4671292308    0.6871940821
 H   -2.3469033784   -1.5636160176   -2.9785145912
 H   -4.2333989768   -1.8171741218   -1.1713757825
 H   -4.0658808238   -1.1339357138    1.4827334974