14

 N    0.1537586810    0.9778959573    0.5887465544
 C   -0.0688070761   -0.1654373163   -0.1139226177
 C    1.1754911696   -0.9486637720   -0.4167934764
 O    2.2670441438   -0.6245671117   -0.0168016013
 N   -1.1668424891   -0.6507447772   -0.5627741520
 C   -2.3906814462    0.0662585607   -0.2923362966
 C   -3.5815203101   -0.6456059523   -0.9231734319
 O   -4.7197343483   -0.2798789889   -0.7991266880
 H    1.0888553694    1.1078997859    0.9448809406
 H   -0.5980134880    1.4789389631    1.0277603302
 H    0.9866539324   -1.8478031391   -1.0312038060
 H   -2.5980244819    0.1650875337    0.7873025959
 H   -2.3692275706    1.0960216669   -0.6892688434
 H   -3.2991449758   -1.5424059101   -1.5168697377