15

 O   -0.4542035430    0.1954907330    0.0945516201
 C   -0.2386701554    1.3624032373   -0.0079231324
 O    0.9943211282    1.8841538215    0.2286377047
 C    1.1630776928    3.2737547295    0.0115532069
 C    2.5016566251    3.7696839384    0.5420871915
 C    2.8162994277    4.9169125071   -0.4306352845
 O    2.1848682178    4.5602302309   -1.6794590175
 C    1.2407466001    3.6127745087   -1.4882034844
 O    0.5839101351    3.1339454577   -2.3644764431
 H   -0.9882846963    2.1262834938   -0.2761348190
 H    0.3224746938    3.8367183746    0.4410550661
 H    2.4764209808    4.0933152383    1.5832814322
 H    3.2345201599    2.9641337721    0.4426585604
 H    2.3997698707    5.8726161577   -0.0942560496
 H    3.8818189127    5.0467054094   -0.6249578414