20

 C   -0.1087528268    1.5655773975   -0.0763863685
 C    0.0045755735    0.0668463270    0.0254592200
 O   -1.1580445228   -0.5550540703   -0.4545381750
 C    1.3446248077   -0.6164268460   -0.1936889711
 C    0.7070064567   -0.6000787649    1.1693302457
 C    1.2723904208   -0.1224345387    2.5111398512
 C    0.6149769630   -1.3735653184    3.0951031078
 C   -0.8188052361   -1.4328072909    2.7613571818
 N    0.1571903175   -1.8701356462    1.7293655878
 H    0.7912968295    2.0545717173    0.3057007322
 H   -0.2438039784    1.8650363354   -1.1208643124
 H   -0.9712805005    1.9269573730    0.4930323096
 H   -1.1699381814   -1.4566668877   -0.1100272232
 H    1.3429175720   -1.5679698475   -0.7166239808
 H    2.2241310810   -0.0011755373   -0.3601310237
 H    2.3639548907   -0.1558495772    2.5393200246
 H    0.9318652539    0.8381077778    2.9097635939
 H    1.0755977619   -2.0494212592    3.8075085405
 H   -1.3961896426   -2.2585286142    3.1653371180
 H   -1.3795645194   -0.5169679894    2.5918872816