15

 N   -0.0932404007    1.1403990217    0.4719297295
 C   -0.0252861618   -0.0348747301    0.0168319391
 O    1.1580785326   -0.6188714441   -0.4685693862
 C    0.7902307033   -1.8652119901   -1.0383800145
 C    1.0665494214   -3.3197261871   -0.5669959475
 C    0.3929042862   -3.7243597156    0.6828466824
 N   -0.4719954180   -3.5640195522   -0.5235226084
 C   -0.5908218498   -2.1169498189   -0.5958861244
 C   -1.1126897137   -1.0486044803    0.0055285243
 H    0.8205881580    1.5940881997    0.4446624698
 H    0.9449975571   -1.8301074715   -2.1228655235
 H    1.7099296570   -4.0005717617   -1.1132647934
 H    0.5116002596   -4.7624505999    0.9782017431
 H    0.2621073200   -3.0217524720    1.4995636997
 H   -2.0268107612   -0.9125305680    0.5623052199