20

 C   -0.0077202153    1.5191786404   -0.0017501081
 C    0.0942304276    0.0141811976   -0.0620639530
 C    0.4732285346   -0.6890780481   -1.3869021271
 C   -0.5760186792   -1.7021367975   -0.9033766316
 C    0.0076876593   -2.7198988400    0.0859959289
 N    0.6930454672   -2.0796256224    1.2254860601
 C    2.0005264987   -1.4518159442    1.0387305145
 C    0.7744100519   -0.6125394700    1.1488503985
 O   -1.2242147131   -0.6452903641   -0.1407832195
 H    0.9907185249    1.9694987978   -0.0069081675
 H   -0.5709873261    1.8991043426   -0.8580028387
 H   -0.5188363753    1.8333628604    0.9140937295
 H    0.1094445978   -0.1123337336   -2.2395725321
 H    1.4975076478   -1.0132624393   -1.5701852485
 H   -1.2515452467   -2.1682171283   -1.6262131576
 H   -0.8176943505   -3.3089984640    0.5016081994
 H    0.6849445435   -3.4149437877   -0.4253267235
 H    2.6668024060   -1.5379558452    1.8942032465
 H    2.5043489515   -1.5292357895    0.0793859343
 H    0.5662121753   -0.1021440650    2.0884214956