19

 C    0.5064049271    1.2947491885    0.2093523895
 C    0.1365481172   -0.1272578983   -0.0426523141
 C   -0.3047032613   -0.7390316061   -1.2016556961
 N   -0.5453675881   -0.0695456152   -2.4296369066
 C   -0.5115858833   -2.1189397948   -0.9102567596
 C   -0.1997022591   -2.3175872324    0.4186572652
 C   -0.2517215327   -3.5308181804    1.2842213146
 O    0.9387321000   -3.7064589607    2.0560665398
 N    0.1957348948   -1.1060364854    0.9273134576
 H    1.5916770429    1.4680746093    0.2135410265
 H    0.0755590088    1.9217654977   -0.5765249645
 H    0.1179541470    1.6521203161    1.1705274157
 H    0.3046722332    0.3074863709   -2.8343761820
 H   -0.9522170512   -0.6985172258   -3.1108276976
 H   -0.8651595294   -2.8762791931   -1.5955055665
 H   -1.0516058885   -3.4626976123    2.0325832179
 H   -0.4702444439   -4.4080478186    0.6583329089
 H    1.6745251585   -3.7255456279    1.4339885233
 H    0.5499717281   -0.9847530216    1.8609140280