13

 C   -0.0455663806    1.3081914069    0.0715406638
 O    0.0455533977   -0.1211586253   -0.0633251262
 C    0.6567109399   -0.5442615623   -1.1446833951
 N    1.1928132028    0.1431936214   -2.1138306723
 C    1.6803863455   -0.8283793309   -2.9638603565
 C    1.4100073814   -2.0626316800   -2.4588976607
 O    0.7353685278   -1.8779895142   -1.2590918379
 C    1.6691678016   -3.3723836050   -2.8961287842
 N    1.8950186778   -4.4431526092   -3.2784066297
 H    0.9533771642    1.7492272246    0.1041964924
 H   -0.6016250898    1.7323654057   -0.7677122232
 H   -0.5731825037    1.4754058509    1.0092732987
 H    2.1923642154   -0.5846470325   -3.8810768390