20

 C   -0.1155827153    1.5895641701    0.0787073496
 C    0.0172231130    0.0691227361    0.0314020695
 C    0.7314383062   -0.4486045661   -1.2683654950
 C    0.8306420377   -1.9823342017   -1.2548896264
 C    0.4550793984   -2.6882141125   -0.0183245723
 N    1.8162491730   -2.9636042047   -0.5912356076
 C    2.4456564820   -2.4739151966    0.7111392381
 C    1.1165888662   -1.8326221395    1.0493140333
 C    0.9068546794   -0.5152764797    1.1042556590
 H    0.8692200123    2.0707477280    0.0675969940
 H   -0.6789200507    1.9668016396   -0.7809086751
 H   -0.6329665777    1.9107448365    0.9883019548
 H   -0.9811518565   -0.3838633035    0.0538888762
 H    0.1643170903   -0.1576626489   -2.1617154067
 H    1.7125473022    0.0332568149   -1.3533980752
 H    0.5534365648   -2.4530545819   -2.1942583326
 H   -0.2988747605   -3.4588002137    0.1044604585
 H    2.7188658630   -3.3790375003    1.2621863731
 H    3.3166465906   -1.8175403590    0.6136290495
 H    1.6586285813    0.1380756326    1.5461133653