16

 C    0.1555862453    1.5752900114    0.0579667022
 C   -0.0220535597    0.0582048745    0.0587700107
 C    0.6858709607   -0.6863585285   -1.1312656869
 O    1.8261228327   -1.4160441665   -0.5916798567
 C    1.7071348067   -1.3480815524    0.7417162530
 N    2.3960886856   -1.8330905697    1.7436037170
 C    1.7014445062   -1.2923394270    2.8030755523
 N    0.6603727252   -0.5258810381    2.5077892568
 N    0.6777038251   -0.5960543129    1.1449831337
 H    1.2149623557    1.8427283196   -0.0029851812
 H   -0.3673173987    2.0168249024   -0.7960263596
 H   -0.2563448119    2.0036121009    0.9751000993
 H   -1.0872610905   -0.1928385178    0.0808426086
 H    0.0205005786   -1.4116926656   -1.6063131224
 H    1.0632350781    0.0080231813   -1.8843720208
 H    1.9820041407   -1.4824863717    3.8284471840