17

 C    0.2495608600    1.2655740770    0.2367277529
 C   -0.1844722206   -0.1941074229   -0.0152824863
 C   -1.6384730018   -0.3387334396   -0.0315938134
 C   -2.8345607918   -0.4513383651   -0.0727233801
 C    0.3929310008   -0.6833109091   -1.3357352836
 O    1.7788796722   -0.9606546774   -1.3634072993
 C    0.8968597492   -2.0659458705   -1.5573678335
 C    0.8307919073   -3.1070258210   -0.4835040701
 O    1.2080275221   -2.9538250981    0.6503625829
 H    1.3407806448    1.3276572322    0.2493615301
 H   -0.1331227212    1.9286471393   -0.5450262684
 H   -0.1349400138    1.6150404236    1.1975868947
 H    0.2342308711   -0.8215713207    0.7783286695
 H   -3.8913408786   -0.5555411591   -0.0900769323
 H    0.0126849439   -0.1655292747   -2.2187695575
 H    0.8629874146   -2.4591427654   -2.5742498766
 H    0.3780614419   -4.0648406384   -0.8228138490