15

 N   -0.0125185254    1.4971337981   -0.0873901898
 C   -0.0115693310    0.0895460027   -0.0510674965
 C   -1.0615083788   -0.8089713700   -0.1589583353
 C   -2.4685281671   -1.3722024173   -0.3261449934
 C   -1.7602352464   -2.7900369001   -0.3209162554
 N   -0.5118815850   -2.0386362925   -0.1444255185
 N    0.8121598881   -2.0890857541   -0.0542014377
 C    1.1199200513   -0.7766453942    0.0137599442
 H    0.8472132826    1.8805652273    0.2850365653
 H   -0.7875619928    1.8968897087    0.4270157940
 H   -3.1584967448   -1.2115270922    0.5062905031
 H   -2.9742417222   -1.1278519142   -1.2635067056
 H   -2.0107158349   -3.4460775477    0.5169980868
 H   -1.8164370939   -3.3445542882   -1.2613329062
 H    2.1554130103   -0.4793675663    0.1069028750