17

 O   -0.0317210195    0.1085795444   -0.6679729938
 C    0.0136167284    1.1861833188   -0.1273327034
 C   -1.2307268447    1.8570685787    0.4656561087
 C   -1.0533751161    3.3476473918    0.7768392469
 O   -1.9904559230    4.0764964948    0.9918645722
 C    0.3886696342    3.8125780473    0.7716877114
 C    1.0130876267    3.4120462095   -0.6037162536
 C    1.2823210407    2.0022592905    0.0144049666
 C    1.3042953782    2.7176258775    1.3999744362
 H   -2.1024111586    1.6938146378   -0.1727318523
 H   -1.4556826960    1.3493343685    1.4139527810
 H    0.4603034623    4.8454509046    1.1105580397
 H    0.3923789592    3.4808964435   -1.5007894625
 H    1.9508785713    3.9453961884   -0.7720486672
 H    2.1467966614    1.4290289443   -0.3185810918
 H    2.2975074131    3.1193790488    1.6116312184
 H    0.9442650124    2.1732000809    2.2765857237