23

 C    0.0238467063    1.4487814416    0.0273202381
 C   -0.0514559382   -0.0776669876    0.0007998523
 C   -1.3824860701   -0.5477191649   -0.5995104120
 C    1.3191508932   -0.7009897644   -0.2141570539
 C    0.6888229262   -0.6941687040    1.1777186649
 C    0.7318556263   -2.2014512238    1.4930488012
 C    2.2014726347   -2.5226393531    1.0330335117
 C    1.5791071989   -2.2105837599   -0.3775749434
 C    0.3133518894   -2.9170248463    0.1797635467
 H    0.9671161568    1.8047934039    0.4525937991
 H   -0.0638031115    1.8578906536   -0.9858665221
 H   -0.7937875258    1.8658907168    0.6265642804
 H   -1.2482931419   -1.1408205056   -1.5080122675
 H   -1.9783053138   -1.1339243753    0.1051081303
 H   -1.9863668733    0.3223120915   -0.8764907244
 H    2.1385587935   -0.0365351220   -0.4726508929
 H    1.0375535681   -0.0246970845    1.9587085297
 H    0.3495541220   -2.5207143979    2.4632046688
 H    2.9985348432   -1.8647599885    1.3908377706
 H    2.4801351909   -3.5724367960    1.1643707329
 H    2.0550011046   -2.5390575912   -1.3021911249
 H    0.4744115030   -3.9949757722    0.2579926284
 H   -0.6597723428   -2.7344548699   -0.2619415439