17

 O   -0.1118406367    1.4519280955   -0.0691586000
 C   -0.0562546697    0.0535235688   -0.0185517947
 C   -1.4332420941   -0.5699409016    0.0202484512
 N   -2.0516382842   -0.8591903646   -1.2854080750
 C   -1.5682730183   -1.9665819323   -0.4491968644
 C   -0.3400537371   -2.7008670438   -0.9561865706
 N    0.6587467558   -1.7892096229   -1.4954289144
 C    0.7519932137   -0.4650187206   -1.2156411745
 O    1.4633793486    0.3046756536   -1.8425654674
 H    0.5324737505    1.6931409279   -0.7567281587
 H    0.4790962568   -0.2768144671    0.8919882811
 H   -2.0719660444   -0.2222911275    0.8279739354
 H   -3.0626513372   -0.7807971739   -1.2247151676
 H   -2.2950093905   -2.6096795325    0.0412481256
 H    0.0749262110   -3.2998261442   -0.1324006855
 H   -0.6257346974   -3.4006251688   -1.7494851277
 H    1.1747974832   -2.0768480061   -2.3136192329