21

 C    0.1171533260    1.7004547010   -0.1780717474
 C    0.0005708558    0.1879694590    0.0442068400
 C    0.6797558543   -0.5926139520   -1.0918259754
 C    2.0809396627   -0.8739517806   -0.5616545006
 O    3.0547127336   -1.2091625318   -1.1720292131
 O    2.0899843483   -0.6871071043    0.7832731839
 C    0.7651017988   -0.3558590809    1.2931840211
 C    0.9700577543    0.6366773324    2.4322278762
 C    0.1275023062   -1.6487641155    1.8146967758
 H    1.1616443925    2.0140058909   -0.2821250778
 H   -0.4036751125    1.9811679685   -1.0988115888
 H   -0.3266827352    2.2710579722    0.6417787445
 H   -1.0579980760   -0.0741494747    0.1331030425
 H    0.1953430491   -1.5531160684   -1.2965809347
 H    0.7369229733   -0.0512382417   -2.0378421052
 H    1.5268384400    1.5153920379    2.1017699802
 H    0.0057096639    0.9634978137    2.8334230492
 H    1.5325704592    0.1636196057    3.2418446200
 H    0.7805494009   -2.1182222639    2.5551538184
 H   -0.8360988851   -1.4353446098    2.2878034152
 H   -0.0418978001   -2.3674897878    1.0075346860