21

 C    0.0923555652    1.4767115248    0.0664795089
 C   -0.0538337424   -0.0097078209    0.0025553263
 C   -0.0748067361   -0.7900160608   -1.0936973909
 C   -0.1689228915   -2.2959547823   -0.7996986658
 C   -0.6707289932   -2.2586448276    0.6569093804
 C   -0.0353274125   -2.6098583704    2.0478381837
 C    1.1858217375   -1.7432332229    1.6694030580
 C   -0.0787996614   -0.9397943471    1.1818149176
 C   -0.7122423011   -1.2800535085    2.5665351324
 H    0.9974006316    1.7606496112    0.6186624553
 H    0.1491328480    1.9215385291   -0.9310899300
 H   -0.7509027847    1.9360775581    0.5970384394
 H    0.0258712266   -0.4115212343   -2.1071093933
 H   -0.8590763586   -2.8141659287   -1.4734846352
 H    0.8101488921   -2.7736073135   -0.9326490779
 H   -1.7663998391   -2.2757725848    0.6687230058
 H   -0.0287967816   -3.5692430444    2.5686351831
 H    1.7513871352   -1.3033691052    2.4954318690
 H    1.8555194540   -2.1262021484    0.8974291940
 H   -1.8045815081   -1.2750773236    2.6201312991
 H   -0.2616609800   -0.8299855099    3.4555756305