18

 C   -0.4734974722    1.3983300499   -0.0865576261
 C    0.0920354253   -0.0120313874   -0.0555898504
 N    1.3837552162   -0.1996420471   -0.8168129928
 C    2.0790180375   -0.6161501167    0.4153657079
 C    3.3122141169   -1.4766287518    0.5195171158
 C    3.4475020349    0.0100171933    0.6788285506
 O    3.9395745128    0.7716782122   -0.3648203311
 C    0.8394322754   -0.4493246315    1.2298081532
 O    0.5417997880   -0.5709255645    2.3830916757
 H    0.2945107449    2.1292928133    0.1820156036
 H   -0.8476375472    1.6459916762   -1.0843535936
 H   -1.2996185732    1.4844128092    0.6259906965
 H   -0.6723390600   -0.7463512831   -0.3385595815
 H    1.3124107889   -0.9521571782   -1.4950281101
 H    3.3899182824   -2.1042700997    1.4016905942
 H    3.6839630190   -1.9116811498   -0.4029981727
 H    3.6407434451    0.4121346315    1.6701728137
 H    3.1803942654    0.9229882642   -0.9570387528