19

 O   -0.2092280910    1.5751512100    0.1862596335
 C   -0.0337117012    0.1848172433   -0.0476631445
 C    0.9462077691   -0.3861745947    0.9558306388
 C    1.2384188823   -1.6601051196    1.2133412146
 C    0.7063780218   -2.9125286914    0.5757769567
 C   -0.6077545799   -2.9139281197   -0.1507308037
 C   -1.4858070581   -1.9378879729   -0.3860780193
 C   -1.4204505300   -0.4812270197   -0.0127152920
 O   -2.0250211505   -0.2155738293    1.2648186663
 H   -0.8397853675    1.6277287631    0.9182393900
 H    0.3761217596    0.0982920561   -1.0619749448
 H    1.4820364372    0.3868362167    1.5015882845
 H    2.0102122193   -1.8498936033    1.9575325816
 H    1.4785869503   -3.3043551132   -0.1086842920
 H    0.6437284816   -3.6921776722    1.3506803037
 H   -0.8778542955   -3.9056279421   -0.5128143898
 H   -2.3999951662   -2.2178253395   -0.9046434103
 H   -2.0424458405    0.0832076254   -0.7151842344
 H   -1.5605123707   -0.7679211470    1.9056312612