15

 O   -0.0755725424    1.2770805601    0.2671398731
 C   -0.0590837628   -0.0722079982   -0.0851176917
 C   -1.4726485204   -0.6417646437   -0.0848628670
 O   -2.4241580099    0.0362149718    0.2310209487
 N   -1.5974503676   -1.9425794907   -0.5594356896
 C   -0.9588130207   -3.1378703123   -0.0665139339
 C   -2.4630598222   -2.9666796817   -0.0176990292
 C   -3.0961606320   -2.7907885347    1.2699757122
 N   -3.6107161560   -2.6963836223    2.3002113570
 H   -1.0030092068    1.4823973515    0.4651220914
 H    0.3783651925   -0.2214822602   -1.0839036732
 H    0.5538609780   -0.6618854896    0.6176683644
 H   -0.5296054318   -3.8001490824   -0.8126629058
 H   -0.4315362076   -3.0885959736    0.8828121378
 H   -3.0756639103   -3.4884752739   -0.7475156144