22

 C   -0.1488398847    1.5027036322   -0.0478712529
 C    0.0716514731   -0.0174467101   -0.0014153979
 C    0.7162194635   -0.4671026355   -1.3127297513
 O    0.7204447778   -1.8767845639   -1.5694207211
 C    1.4483560666   -2.7245217196   -0.7877226374
 N    1.5697533745   -2.8140468602    0.4627742524
 C    0.8182322365   -2.0026637841    1.4103797858
 C    0.8494554287   -0.4706159278    1.2537711342
 C    2.2826237236    0.0736046644    1.3628472808
 H    0.7864240331    2.0483142221   -0.2123588979
 H   -0.8340851575    1.7753372006   -0.8570841566
 H   -0.5810886996    1.8622682464    0.8909565125
 H   -0.9165299053   -0.4965364824    0.0458584615
 H    0.1599361269   -0.0496626927   -2.1565415208
 H    1.7466704782   -0.0944575031   -1.3813930027
 H    1.9448364001   -3.4629972117   -1.4199799500
 H   -0.2306450427   -2.3341781386    1.3825356431
 H    1.1942271463   -2.2536856877    2.4085045708
 H    0.2884753366   -0.0833752690    2.1163654831
 H    2.9373741335   -0.3321757030    0.5866899741
 H    2.3119792680    1.1648984083    1.2965366512
 H    2.7161467730   -0.2095999945    2.3273463390