19

 O    0.7195410311    0.1080671694   -0.7397435490
 C   -0.1424140848    0.3325048723    0.3645959037
 C   -1.4839523625   -0.3675102287    0.2445676138
 C   -2.5091005992   -0.1558431590    1.3099319939
 C   -3.2164847776   -1.2628542631    1.5649010215
 C   -2.7486743391   -2.4387619145    0.7326830829
 C   -1.6584956700   -1.8416116196   -0.1574804000
 C   -2.0750477408   -0.7462881884   -1.1054650450
 O   -3.3994518043   -0.5067161097   -1.4612823890
 H    0.3880763343    0.6241864446   -1.4809216425
 H    0.3945935850   -0.0498137562    1.2408003484
 H   -0.3019676427    1.4103532871    0.5306176801
 H   -2.6589008839    0.8066931857    1.7884604144
 H   -4.0412050282   -1.3309453500    2.2660609493
 H   -2.3688815170   -3.2513835540    1.3641896803
 H   -3.5675858879   -2.8641268213    0.1365822939
 H   -0.7962504210   -2.4409412206   -0.4269396408
 H   -1.4282083627   -0.6080323000   -1.9657270610
 H   -3.8951266887   -0.3524714341   -0.6461089549