17

 O    0.0694244242    1.4182848468   -0.0465256936
 C    0.0166574257    0.0064113837    0.0297048749
 C   -1.4008409225   -0.6007263892    0.0477201385
 C   -2.3491833168   -0.3281958135   -1.0938684712
 C   -1.5303754692   -1.5940973791   -1.0884661337
 C   -0.2116417090   -1.5721855006   -1.8407602817
 N    0.1410184903   -0.2591498934   -2.4369312333
 C    0.7347247562   -0.6697033443   -1.1459458224
 H   -0.1612034007    1.6368024859   -0.9585031254
 H    0.5226241728   -0.2578708877    0.9643769524
 H   -1.8362230501   -0.8033397151    1.0197838042
 H   -3.4075530897   -0.4193933144   -0.8742997458
 H   -2.0993675184    0.4277659217   -1.8273840056
 H   -2.0176557984   -2.5539419383   -0.9629416493
 H    0.1189262513   -2.4704723316   -2.3508647447
 H    0.8176381495   -0.3908056070   -3.1840189629
 H    1.8042673748   -0.8459442438   -1.0933375201