17

 C   -0.0041687705    1.5309325030    0.0015043778
 C    0.0519277087    0.0252969836   -0.0482696197
 C    0.4718417360   -0.7211357756   -1.3056227495
 C    0.3888096917   -2.0130963028   -0.9862299854
 C   -0.0797554351   -2.0109376250    0.4624103645
 O   -0.3574905400   -3.1922142133    1.1250362576
 C    0.6194916952   -0.7846029592    1.1785610139
 O   -0.5825783735   -0.5137320748    1.9715953968
 C   -1.0888353037   -0.8306611764    0.6317349116
 H    0.9789882181    1.9704893260   -0.1988329184
 H   -0.7029106388    1.9262319872   -0.7437585487
 H   -0.3333946790    1.8566458904    0.9917432419
 H    0.7623295494   -0.2623135944   -2.2413822052
 H    0.5813502918   -2.8937859515   -1.5838869690
 H    0.4438595306   -3.7251332333    1.1564824720
 H    1.5913913470   -0.7104161013    1.6756816893
 H   -2.1702042280   -0.8122759727    0.4718292104