19

 C    0.5396982190    0.6935850543    0.0900325577
 O   -0.2416630853   -0.2271703705   -0.6518268702
 C   -1.5324792338   -0.4566198729   -0.1116200324
 C   -2.5249486289   -0.7544056780   -1.2589805180
 C   -2.6789420051   -2.2613755496   -1.2729398993
 O   -1.4261760917   -2.9578819349   -1.2961143927
 C   -2.1220227631   -2.8335183740   -0.0448864894
 C   -1.5278434251   -1.7332566658    0.8168343609
 O   -0.2427499728   -2.0439925301    1.3045354142
 H    1.4885965199    0.8037063331   -0.4411597668
 H    0.0491965102    1.6773589984    0.1447416291
 H    0.7350770416    0.3363294158    1.1082086224
 H   -1.8458714872    0.4273404501    0.4573480685
 H   -3.4980888461   -0.2880016507   -1.0673026015
 H   -2.1393516980   -0.3596397797   -2.2025586705
 H   -3.4853745592   -2.7353198967   -1.8270600251
 H   -2.4617309300   -3.7656415628    0.3994205823
 H   -2.1623631310   -1.5683999841    1.6950304394
 H    0.3223903467   -2.0635368322    0.5202596916