19

 C    0.0242444273    1.6204040073    0.2598048793
 C   -0.0027614049    0.1134489770    0.0127432089
 C    1.0571591779   -0.4627455288   -1.0058298904
 C    1.6745534505   -1.2598521078    0.1473020959
 O    2.0604475691   -0.3280736916    1.1689457605
 C    0.6929994908   -0.7421567614    1.1067363525
 C   -1.4208535539   -0.3491689888   -0.2468913750
 C   -2.0308447049   -0.3936459753   -1.5804070365
 O   -1.6312822357   -1.5954216340   -0.9143456244
 H    1.0254480767    1.9281592901    0.5694117895
 H   -0.2451945604    2.1721041803   -0.6470818077
 H   -0.6819119143    1.9075589217    1.0479331486
 H    0.5947795858   -1.1117506744   -1.7512856053
 H    1.7175979976    0.2641846622   -1.4842092133
 H    2.2006499334   -2.2062557090    0.1179301714
 H    0.2604599343   -1.1823115707    1.9989022525
 H   -2.0947204241   -0.1917550977    0.5992250245
 H   -3.1051658592   -0.2563210692   -1.6902283663
 H   -1.4363052862   -0.1256920599   -2.4525116449