16

 O    0.0432408900    0.0462326924   -0.1281096238
 C   -0.0137896665    1.2376785800    0.0051200747
 C   -1.1307448530    2.2492071834   -0.0142920277
 C   -0.9590946923    3.2269520013    1.1449345019
 C   -0.0607128160    3.3746107012   -0.0325907977
 C    1.0429449238    2.3293096725    0.0498402991
 C    2.3573916788    2.3351662114    0.7827496943
 C    2.3339401854    2.2505621385   -0.7194888263
 H   -2.0686436219    2.1687085328   -0.5483582319
 H   -1.7711360443    3.9419838024    1.2341563422
 H   -0.5597677340    2.8824642877    2.0945245875
 H   -0.0554984231    4.2412121139   -0.6803433324
 H    2.6740027396    3.2676097262    1.2384977170
 H    2.6173536176    1.4415994622    1.3406540141
 H    2.5644178807    1.2983235912   -1.1856382621
 H    2.6346066353    3.1245616229   -1.2876210688