12

 O   -0.0691445961    0.0651177455    0.2567796410
 C   -0.1218431565    1.2305937619    0.0625055484
 C   -1.1471267616    2.2701237042   -0.2010750438
 C   -0.6796414181    3.5748728851    0.5077751235
 O    0.1946451012    3.4978737149    1.6082890162
 C    1.2774479838    2.7265712283    1.2195390201
 O    2.1987898974    2.4855048837    1.9223922843
 N    1.0150844393    2.2235331934   -0.1191614445
 C    0.0106831229    3.1552840718   -0.7088928094
 H   -2.1619088476    2.1459992140   -0.5549374700
 H   -1.3888217526    4.3884332984    0.5736845724
 H    0.1661693679    3.6313668689   -1.6658185284