17

 C   -0.0962257050    1.4422470389   -0.0954454526
 C   -0.0412803875   -0.0239319169    0.1647112934
 C   -1.0132371126   -0.8938473791    0.4937317820
 C   -2.3635313290   -1.2229051134   -0.1143462247
 N   -1.6734082163   -2.3918996287   -0.7698041863
 C   -0.5356286179   -2.2924780820    0.2073106539
 C    0.9336981580   -2.1111125067   -0.2307017600
 O    1.7747575601   -2.9267090578   -0.5168760099
 N    1.1490324559   -0.7385045056   -0.0754501574
 H    0.5411282261    1.9992315605    0.6026863519
 H    0.2496037604    1.6764593196   -1.1093945164
 H   -1.1178232324    1.8098419605    0.0220545427
 H   -3.1336721315   -1.5214370466    0.6099035055
 H   -2.7939339822   -0.5025214501   -0.8172892103
 H   -2.1843444165   -3.2657014462   -0.6751205269
 H   -0.5742553909   -3.0408098207    1.0084825091
 H    2.0529099513   -0.3234778756   -0.2390338537