15

 O    0.0518631908    0.0843340091    0.4822831794
 C    0.0169378933    1.2475434708    0.1906826121
 N   -1.0142532972    2.1624579085    0.0921546256
 C   -0.1463309774    3.3376767276   -0.0952739302
 C    1.0636640889    2.3663208062   -0.1335305081
 N    1.9602504575    2.7716001097    0.9429069058
 C    1.1753070252    3.4365325723    1.9863306769
 C    0.0418773772    4.1180782508    1.2131784204
 O   -0.5985830044    5.0706417916    1.5677987941
 H   -1.9720061622    2.1142900081    0.4144689141
 H   -0.3866841035    3.9652345404   -0.9540959556
 H    1.5897397353    2.2411290172   -1.0814653963
 H    2.5035207596    1.9907736611    1.2926541681
 H    0.7220074912    2.7580050200    2.7297538446
 H    1.7667769456    4.1765559564    2.5319742093