16

 N    0.0397247750    1.1468968868    0.7095055273
 C   -0.0322441960    0.0565714963    0.0985768997
 C   -1.1495623472   -0.8679005081   -0.3332525345
 C   -0.0076690333   -1.7159907731   -0.9136301391
 C    0.3235167335   -3.1982938236   -0.5566264068
 C    0.4043613768   -3.4819225607   -2.0632809046
 O   -0.8612794384   -3.1008079452   -2.6200455777
 C    0.1163020793   -2.0780528361   -2.3985492750
 O    0.9694184068   -0.7443109194   -0.4303835100
 H    1.0081654307    1.4560622674    0.8084485988
 H   -1.7088572854   -1.3220007706    0.4862974208
 H   -1.8467234487   -0.4496209895   -1.0610660611
 H    1.2895198528   -3.2521147184   -0.0490238486
 H   -0.4292902397   -3.7655706361   -0.0049922938
 H    0.9790241217   -4.2290702609   -2.5962877345
 H    0.4089660320   -1.4508605887   -3.2324159811