18

 O   -0.6662990953    1.1405281385    0.8652380597
 C   -0.0229045892    0.1165176631    0.1065196720
 C    0.8947162006   -0.7832641335    0.9795331701
 C    0.0205931193   -1.9351078079    1.4438175579
 C   -1.3438855193   -1.6000661656    2.0289906094
 C   -1.2290388616   -1.9572186907    0.5817625104
 O   -1.8633183252   -3.1352886857    0.1860145143
 C   -1.1215987965   -0.8208553586   -0.4275712528
 H    0.0191000550    1.6573239973    1.3009453628
 H    0.5435055689    0.5748807065   -0.7159662677
 H    1.7255397066   -1.1648293707    0.3728290964
 H    1.3389597495   -0.2027841420    1.7985084914
 H    0.4860118566   -2.8627819028    1.7580006023
 H   -1.7852180759   -2.3656406697    2.6574309516
 H   -1.5671032243   -0.5758874289    2.3026107561
 H   -1.3706414521   -3.5042066500   -0.5560714817
 H   -2.0564769962   -0.2739624075   -0.5787992576
 H   -0.8168747107   -1.2366153117   -1.3971754647