20

 O   -0.0355265306    1.4440641203    0.0393993299
 C    0.0240961257    0.0269598171    0.1000133454
 C   -1.3991015573   -0.5071536577    0.0116490529
 C   -1.4582513194   -2.0360263340    0.0324444763
 C   -2.8874168632   -2.5872856613   -0.0154849022
 C   -2.9571779709   -4.1401086881   -0.0361436572
 O   -3.7814283352   -4.4787513875    1.1061487373
 C   -4.0725880340   -3.2947675914    1.6955469626
 N   -3.6573748190   -2.2111585158    1.1906302379
 H    0.8596486953    1.7863126552    0.1164501851
 H    0.6297390428   -0.3810464259   -0.7271579836
 H    0.4906437491   -0.3127865026    1.0396618026
 H   -1.9857078797   -0.1046026570    0.8427766227
 H   -1.8551674046   -0.1259048787   -0.9105702020
 H   -0.9008246795   -2.4449184180   -0.8219525483
 H   -0.9704460512   -2.4213966653    0.9381246054
 H   -3.3975586514   -2.1619174439   -0.8888906654
 H   -3.4308362410   -4.5503443639   -0.9311768905
 H   -1.9782599860   -4.6119754780    0.0990705941
 H   -4.6706884698   -3.3825338735    2.5961859770