15

 N    0.0130168127    1.4310665949    0.1843907528
 C    0.0178806673    0.0329669029    0.0459693170
 C   -1.0631637208   -0.8109094511   -0.0086944474
 N   -0.6269341468   -2.1558800082   -0.1229282435
 C    0.7336324830   -2.1126963375   -0.0618058660
 C    1.1923598565   -0.8011194982    0.0107818173
 C    2.6044097711   -0.9405270210    0.0122921789
 N    2.9715350950   -2.2155560808   -0.0482168929
 N    1.8051094237   -2.9369319629   -0.1026762180
 H    0.7270008822    1.8750465625   -0.3800661820
 H   -0.8842940240    1.8403376488   -0.0435315839
 H   -2.1180911896   -0.5880684185   -0.0219615819
 H   -1.1994294044   -2.9435970787    0.1258905503
 H    3.3710238598   -0.1810271868    0.0604894005
 H    1.8557984942   -3.9389803454   -0.1261790613