25

 C    0.1252201543    1.5013084595    0.1219946181
 C   -0.0325287410   -0.0183095263   -0.0393252349
 C   -1.5107350983   -0.4097914105   -0.0055304243
 C    0.7025692381   -0.5437179570   -1.2918680668
 C    2.1060673118   -0.8559965836   -0.7627000820
 C    1.8349528799   -1.3357840843    0.6800248392
 C    1.5915920998   -2.8513715073    0.7433121292
 C    2.9345157010   -0.9285965186    1.6621617770
 O    0.6219858755   -0.6635395727    1.0700622430
 H    1.1752545566    1.8002399942    0.0489260320
 H   -0.4381852091    2.0402134042   -0.6473581470
 H   -0.2452588209    1.8117720566    1.1031970382
 H   -2.0528653408    0.0391784936   -0.8446256808
 H   -1.6199063755   -1.4964739081   -0.0625222082
 H   -1.9771661137   -0.0689304234    0.9237929195
 H    0.2167533057   -1.4538705524   -1.6589277831
 H    0.7013333727    0.1820505137   -2.1092736102
 H    2.6344790611   -1.6055952243   -1.3574943203
 H    2.7235766023    0.0482288476   -0.7484608829
 H    2.5146255590   -3.4075357803    0.5472496244
 H    1.2251890440   -3.1282573763    1.7360267428
 H    0.8424263927   -3.1630842473    0.0092469736
 H    3.0676431876    0.1569008277    1.6584994155
 H    2.6740532380   -1.2363362097    2.6794338448
 H    3.8881814093   -1.3973794552    1.3969921030