21

 C   -0.0051765533    1.5097031896    0.0847853815
 C   -0.0003165889   -0.0207302563    0.0242165278
 C    1.0780257454   -0.6857139762   -0.9073044436
 C    1.3930463277   -1.7060263068    0.2163151914
 C    2.8429906253   -2.0587640919    0.4677348572
 O    2.8984319882   -2.8820860579    1.6237882145
 C    0.6772730429   -0.7733660785    1.2263569533
 C   -1.3363875685   -0.5327369484   -0.2509022637
 C   -2.4416375378   -0.9500117672   -0.4785713842
 H    1.0024560502    1.8847455159    0.2910980729
 H   -0.3457611442    1.9381557471   -0.8631627667
 H   -0.6736956498    1.8663825332    0.8745520560
 H    0.7315308701   -1.0701824241   -1.8678601393
 H    1.9110908093    0.0048955161   -1.0774657204
 H    0.8202635329   -2.6274572369    0.0770983992
 H    3.2590749177   -2.5751093229   -0.4136844110
 H    3.4267803545   -1.1330182803    0.6095516910
 H    3.8194181165   -3.0954373963    1.7994526532
 H    1.3844935238   -0.1157252853    1.7424336328
 H    0.0136848154   -1.2293439787    1.9614730778
 H   -3.4166895774   -1.3201357644   -0.6773637398