15

 N    0.0614826924   -1.1359821291   -0.0048689114
 C    0.0088777386    0.0212874374    0.0070661940
 C   -0.0198491683    1.4428599401    0.0077830691
 C   -1.1276147043    2.1999655938    0.0800854253
 C   -0.8054616485    3.6734951308    0.0235320924
 C    0.7230510937    3.7145902194    0.0137639955
 C    1.4585239680    3.1302592190    1.1906965379
 C    1.2232107854    2.2788223821   -0.0395953970
 H   -2.1338073333    1.8127211616    0.1842381229
 H   -1.2312200108    4.1280472811   -0.8811578718
 H   -1.2395810843    4.2176137171    0.8721847202
 H    1.2166093365    4.4879744978   -0.5616685741
 H    2.4695090745    3.4831311073    1.3627995270
 H    0.9047888290    2.8824162770    2.0906910606
 H    2.0623164815    1.9605245747   -0.6459646806