25

 C    1.1356638568    1.1338008493   -0.0707085652
 C    0.8346993900   -0.0877746713    0.8100204613
 C    1.2033989528    0.1795223349    2.2714881629
 O    2.5924974329    0.4715811873    2.3417969580
 C   -0.6243457433   -0.4946920101    0.7016154968
 C   -1.1313000856   -1.3102706006   -0.4672179356
 C   -1.1561838100   -1.8989471427    0.9259810458
 C   -0.2166202599   -3.0486122578    1.2412855763
 C   -2.5066933877   -2.0197494002    1.6094700901
 H    2.1802105420    1.4352003875    0.0332684390
 H    0.9346784008    0.9146630888   -1.1236644692
 H    0.5070469182    1.9851711778    0.2181079291
 H    1.4702920476   -0.9142897141    0.4696088915
 H    0.6005854014    1.0222971980    2.6509306670
 H    0.9539946955   -0.7026696855    2.8808552953
 H    2.8093573344    0.6884516270    3.2527534418
 H   -1.3020531574    0.2921647583    1.0326968358
 H   -2.0695262232   -1.0291923807   -0.9349792026
 H   -0.3903999035   -1.6960912948   -1.1616848359
 H    0.7417395939   -2.9618558762    0.7234534060
 H   -0.0116912221   -3.1136702081    2.3167485745
 H   -0.6668405118   -4.0013804087    0.9376174653
 H   -3.0159741664   -2.9455376808    1.3152201591
 H   -2.3993168983   -2.0353732769    2.7010150600
 H   -3.1628946771   -1.1827186604    1.3511634227