25

 C    0.3724982516    1.5330828310    0.2522019058
 C   -0.1555129141    0.1428988223   -0.1287964731
 C    0.5680710046   -0.4900155265   -1.3127938553
 C    0.4312039989    0.2748607653   -2.6193056835
 C    1.8807378972   -1.1986084009   -1.0596260377
 C    0.6572814792   -1.9995339225   -1.4403988790
 C    0.0288222776   -2.9718438124   -0.4775057211
 O    0.6896153101   -4.2162969566   -0.6131924543
 C    0.1470229720   -5.2126436210    0.2163352533
 H    1.4453893571    1.4979402745    0.4693527616
 H    0.2187798541    2.2632325255   -0.5480111093
 H   -0.1387938411    1.9109567397    1.1431148939
 H   -0.0731411499   -0.5082770045    0.7472695633
 H   -1.2282191446    0.2127134368   -0.3567071531
 H    0.8652220537    1.2779156280   -2.5498316381
 H    0.9407607652   -0.2462351050   -3.4354563900
 H   -0.6226199777    0.3873165083   -2.9023345972
 H    2.6828055375   -1.0975491108   -1.7834059273
 H    2.2216298699   -1.2780527106   -0.0313723832
 H    0.6366125461   -2.3721804602   -2.4615632657
 H    0.1071107191   -2.6183334801    0.5629823465
 H   -1.0475338509   -3.0941121226   -0.6945707679
 H    0.2267832081   -4.9486510624    1.2837385024
 H   -0.9159984305   -5.4008325881   -0.0070776787
 H    0.7115274367   -6.1316018070    0.0391162974