20

 C    0.0160770436    1.5965919514    0.0152820247
 C   -0.0884699590    0.0719013552   -0.0628733085
 C    0.7774076184   -0.5267580835   -1.1778423116
 O    2.1486838416   -0.1770536534   -1.0417538457
 C    0.6369551826   -2.0577098811   -1.2720302756
 C    1.4050459455   -2.6712039068   -2.4712692990
 O    2.2721702820   -3.6675860173   -1.8666792994
 C    2.1005336438   -3.5253240411   -0.5384687157
 N    1.2510442291   -2.6979494027   -0.0864551423
 H    1.0562974579    1.9042544476    0.1496967332
 H   -0.3519464271    2.0668422085   -0.9037377209
 H   -0.5716411389    1.9903411983    0.8498403697
 H    0.2104721254   -0.3828792081    0.8891369455
 H   -1.1312210695   -0.2267623154   -0.2318175472
 H    0.4691218094   -0.0961283311   -2.1404299066
 H    2.4617529667   -0.6275932631   -0.2463087922
 H   -0.4285663632   -2.3149339731   -1.2981493327
 H    0.7670707264   -3.1768229636   -3.1985175611
 H    2.0399582832   -1.9372294318   -2.9743750975
 H    2.7293470021   -4.1707564090    0.0659497828