17

 O   -0.3769794546    1.4083846685    0.0436074027
 C   -0.0964353675    0.0545375702   -0.0459797947
 C   -0.1345643780   -0.8229297398    1.1731812557
 C   -1.2717080821   -0.9007172320    0.1904317010
 O   -2.4927488725   -0.2872245928    0.5239006572
 C   -3.4104115626   -0.5837680280   -0.5505369431
 C   -3.0290159072   -1.9855205708   -1.0370740936
 C   -1.5307912499   -2.0492876716   -0.7150538008
 O   -0.7191168209   -2.8457561995   -1.1167338727
 H   -1.2884346621    1.4798178135    0.3638625487
 H    0.6043337733   -0.1826418815   -0.8399070367
 H    0.5179072648   -1.6896495902    1.2073764840
 H   -0.3548962150   -0.3465607152    2.1226501029
 H   -4.4190239557   -0.5063043967   -0.1419347069
 H   -3.2937894467    0.1560680120   -1.3542224099
 H   -3.5344662687   -2.7643379004   -0.4546215447
 H   -3.2220111848   -2.1705773256   -2.0950140091