16

 C    0.3761673974    1.0587033722    0.8627265550
 C   -0.1190612381    0.1994383514   -0.2759084651
 O    0.3559346442    0.2199244530   -1.3881848235
 C   -1.2674341540   -0.7158806747    0.0363824377
 C   -1.5033466384   -1.9520113094   -0.7938909309
 N   -2.4845929476   -0.9056179676   -0.9200663889
 C   -3.3861754460   -1.0596288164    0.2805203696
 C   -2.2012343290   -0.7366029651    1.2090834710
 O   -2.1002977516   -0.4002867826    2.3545902163
 H    1.2580130940    1.6157637377    0.5456476020
 H   -0.4134104855    1.7519996527    1.1748116697
 H    0.6006313293    0.4435039229    1.7399102691
 H   -0.8317148972   -2.0287368609   -1.6437842292
 H   -1.7640245516   -2.8845841083   -0.2964483767
 H   -4.1460918650   -0.2749532797    0.3067412399
 H   -3.8599843508   -2.0419972051    0.3592111339