13

 O   -0.3961685298    1.3070749082   -0.6892365549
 C   -0.6946633442   -0.0555136282   -0.6347090881
 C   -0.8961132820   -0.5078020030    0.8027340238
 O   -0.6924902294    0.2628129708    1.7177002924
 C   -1.3173734122   -1.9203288193    1.0621303189
 C   -2.5533982039   -2.4592494138    0.4539231004
 O   -1.2756942531   -2.8227415224   -0.0447722532
 H   -0.3049565855    1.5869883830    0.2355838445
 H   -1.5924909391   -0.2865019266   -1.2277880461
 H    0.1114882884   -0.6754673147   -1.0618921424
 H   -0.9949072644   -2.3208192084    2.0215731857
 H   -3.0940486737   -3.2380044762    0.9886056401
 H   -3.1550126709   -1.8288987793   -0.1980887212