19

 C    0.0090538599    1.5301837192   -0.1701835597
 C   -0.0059464701    0.0063264895   -0.0307000459
 C   -1.4204316607   -0.5533572319    0.1728208031
 O   -2.2545154680   -0.2173519106   -0.9439403122
 C   -2.8524311993   -1.3791477019   -1.4982742329
 C   -2.2901858442   -2.5375750408   -0.6973177606
 C   -1.4886073472   -2.0510575976    0.2557273478
 C   -2.6220377416   -3.8822241979   -0.9732931086
 C   -2.9381280050   -5.0112210027   -1.2513931512
 H    1.0250913616    1.9006380547   -0.3353800157
 H   -0.6127190846    1.8429687676   -1.0129956905
 H   -0.3811635846    2.0134969677    0.7326490932
 H    0.4248912215   -0.4627882495   -0.9231091881
 H    0.6111248756   -0.3028075844    0.8229521061
 H   -1.8469746843   -0.0912540065    1.0815254586
 H   -3.9487510713   -1.3264104258   -1.4136131972
 H   -2.6083000134   -1.4602759750   -2.5671771795
 H   -0.9498738081   -2.6313504106    0.9930177726
 H   -3.2071113265   -6.0119353135   -1.4831957793