21

 C   -0.0418128344    1.4384991080   -0.1734291290
 C    0.0069225681   -0.0137308814   -0.0766474436
 C    0.0590024229   -1.2143771312    0.0025401439
 C    0.0814600844   -2.6710830623    0.0972196742
 C   -1.3192833842   -3.2921550632    0.1151879692
 C   -2.1811236678   -3.2303658979   -1.1762366706
 C   -2.6611012289   -4.6631141204   -0.8742624118
 O   -2.7742662083   -5.4822042467   -2.0146689571
 C   -1.4368821421   -4.8414500370    0.0678498957
 H    0.4680045627    1.9131659589    0.6725200712
 H    0.4403381329    1.7942187310   -1.0909140459
 H   -1.0750697764    1.8034019871   -0.1819835018
 H    0.6459164400   -3.0888193136   -0.7478848088
 H    0.6240013522   -2.9758265477    1.0030413278
 H   -1.8786707282   -2.8893919426    0.9652481608
 H   -2.9284099640   -2.4408548056   -1.2718948482
 H   -1.5508552290   -3.2386048861   -2.0713295001
 H   -3.5977454986   -4.6527348678   -0.2978582382
 H   -3.0834873212   -6.3498213641   -1.7353511645
 H   -0.6056584847   -5.2845854228   -0.4909425607
 H   -1.5711088254   -5.3829448247    1.0079697674