17

 C    0.0863153360    1.0642265901   -0.3201596612
 O   -0.1308217340   -0.0341050836    0.5416801907
 C   -1.3493255720   -0.6688671175    0.3069617868
 C   -1.5411609194   -1.6785159643   -0.7896469248
 C   -0.2509386755   -2.4788576306   -1.0132316750
 C   -0.2467172467   -2.8889899979    0.4928967706
 C   -1.5371874411   -2.0878467357    0.7088588855
 H    1.0668147508    1.4795239326   -0.0752860161
 H    0.0754584474    0.7609478372   -1.3768624821
 H   -0.6756106126    1.8463362815   -0.1783907676
 H   -2.2175648435   -0.0279028452    0.4780738969
 H   -2.3717768029   -1.6186404766   -1.4839892093
 H   -0.3982233901   -3.3352988216   -1.6742845455
 H    0.6115528988   -1.9066710342   -1.3666698309
 H   -0.3936088985   -3.9623914796    0.6282167308
 H    0.6121393763   -2.5670224308    1.0863097040
 H   -2.3615750430   -2.3907587940    1.3443036773