19

 O   -0.2417696813    1.5511847138   -0.4199527193
 C   -0.0660362736    0.1794278951   -0.0973957365
 C   -1.4489147094   -0.4504843370    0.0184621518
 C   -1.3875231322   -1.9245909918    0.3704827642
 C   -2.6813454222   -2.7541182036    0.2353595323
 C   -1.8820204318   -3.5832155898   -0.8071511900
 O   -0.7299656127   -2.7153390417   -0.6582439857
 C   -1.6089871408   -4.9715595920   -0.4693627732
 C   -1.3962166745   -6.1204193490   -0.1865474521
 H    0.6264168815    1.9369205886   -0.5678402030
 H    0.5071117341   -0.3493450182   -0.8724281680
 H    0.4774591784    0.0598872689    0.8548249715
 H   -2.0221930648    0.0790097113    0.7903294455
 H   -1.9803670082   -0.3178716765   -0.9310769548
 H   -0.8756070798   -2.0655287224    1.3328426235
 H   -2.9938825992   -3.3051603741    1.1214547931
 H   -3.5306859021   -2.2112113667   -0.1826158530
 H   -2.2768827813   -3.5252859948   -1.8291313000
 H   -1.2030314701   -7.1357242403    0.0581618735