17

 O   -0.0844137272    1.3444987543   -0.0981096137
 C    0.0497610896   -0.0516894553   -0.0017351741
 C    0.8005965892   -0.7390300175   -1.1537367647
 O   -0.2083769797   -1.2982538792   -1.9900977081
 C   -1.2732231774   -1.7608799332   -1.1560643829
 C   -1.3397993617   -0.7626546663    0.0066197051
 C   -1.0386632383   -1.2346043889    1.4460803178
 O    0.1771397584   -1.9967896433    1.4016011983
 C    0.2707137410   -0.5705062041    1.4518413383
 H    0.7945110267    1.7369701218   -0.0539156727
 H    1.3743863965   -0.0300558325   -1.7583225618
 H    1.4711886424   -1.5208203656   -0.7710362081
 H   -2.1766171800   -1.7829392377   -1.7704321246
 H   -1.0656962750   -2.7750847662   -0.7876947697
 H   -2.1536608671   -0.0391939253   -0.0531918751
 H   -1.7270279380   -1.4505904896    2.2543172870
 H    0.8436854206   -0.1215108116    2.2559483891