17

 C   -0.0840196373    1.5256891317   -0.1035984398
 C    0.0070919796    0.0378011730    0.0541227221
 C    1.2335723402   -0.7829721760   -0.2416320270
 C    0.6529740168   -0.7890029034    1.1641141437
 C    1.4218645603   -0.2754954991    2.3515258536
 N   -0.2765052092   -1.8778890136    1.4170693128
 C   -1.2437639364   -1.7057988979    0.6104145765
 O   -1.2292081361   -0.6318675144   -0.2179733681
 H    0.8604080903    1.9947336929    0.1850980528
 H   -0.2901317330    1.7979264429   -1.1441226078
 H   -0.8805113243    1.9382604366    0.5232589204
 H    1.1415094830   -1.6795641207   -0.8460022594
 H    2.1521753156   -0.2224244651   -0.3825097149
 H    2.0393002762    0.5855831810    2.0794626983
 H    0.7447518577    0.0258774393    3.1568483505
 H    2.0822749521   -1.0563944463    2.7417159579
 H   -2.1136438855   -2.3440034109    0.5122100584