16

 O   -0.0608682815    0.0095165317    0.0783885836
 C   -0.0228306195    1.2064924873    0.0326380090
 N   -1.0106966448    2.1741740628   -0.0494266441
 C   -0.1052158304    3.3160102875    0.0612897976
 C    0.1541036437    3.8918078143    1.4777005322
 C    1.6763476382    4.1772067454    1.4378840463
 C    1.6474361646    2.6259657220    1.4403096626
 O    0.4382182679    2.6973712891    2.2593189674
 C    1.0850301389    2.2942038891    0.0428290773
 H   -1.9802898666    2.0946288936    0.2247145930
 H   -0.2012968026    4.0641793884   -0.7273814274
 H   -0.5791289764    4.5594806254    1.9298649390
 H    2.1010788708    4.7004945393    0.5765451384
 H    2.0438099069    4.5876668811    2.3787796102
 H    2.4325842617    1.9998523609    1.8600907421
 H    1.8031246590    2.2995504120   -0.7755274172