15

 C    0.0813942481    1.4584699566   -0.1897221314
 C   -0.0909576125   -0.0344096333    0.1048428601
 O    0.2726276619   -0.8656922882   -0.9902092371
 C    1.6065695063   -1.3438991580   -0.7914437074
 C    1.7480106037   -1.5444843810    0.7185296587
 C    0.7985099053   -0.4828894457    1.2742724274
 O    0.7522239226   -0.0539713573    2.3964017654
 H    1.1174472656    1.6938274642   -0.4530916056
 H   -0.5608720356    1.7531975641   -1.0231918329
 H   -0.1883565334    2.0409006164    0.6957356423
 H   -1.1397437732   -0.2420317064    0.3496180696
 H    1.7142290064   -2.2602555003   -1.3755607107
 H    2.3430145374   -0.6137564904   -1.1606084557
 H    1.3730885793   -2.5282350491    1.0252027407
 H    2.7572082182   -1.4253559817    1.1165644265