17

 O   -0.1362196490    0.5398326621   -1.3361420729
 C   -0.0271445578    1.3121998962   -0.4195502979
 C   -1.1947788186    1.6706548224    0.4924198591
 C   -0.8409667215    2.5785744663    1.6819926690
 C    0.1111484832    3.6703349655    1.2631160163
 C    1.1043245840    3.4232835794    0.4128803300
 C    1.3260392961    2.0247008430   -0.1379883994
 C    2.0869635043    1.1943981670    0.7971680102
 C    2.6789064271    0.5027681360    1.5828952852
 H   -1.9221202291    2.1784717375   -0.1533057431
 H   -1.6711159755    0.7382099449    0.8105465600
 H   -1.7571412046    2.9998163789    2.1057895399
 H   -0.3788979971    1.9825629404    2.4806122984
 H   -0.0216100208    4.6650248284    1.6781678639
 H    1.8059588164    4.1934830087    0.1101777633
 H    1.8551106713    2.0548986181   -1.0960299267
 H    3.2189211517   -0.1056279348    2.2654959647