23

 C   -0.0112751939    1.6243788041   -0.0316978611
 C   -0.0018903768    0.0861269952    0.0397136367
 C   -1.3408508396   -0.4950471305    0.0281830030
 C   -2.4584680570   -0.9493794720    0.0136162780
 C   -3.7889354192   -1.4854249896    0.0121320349
 C   -4.3470939734   -2.1880894526   -1.2222215567
 C   -4.0601301204   -2.9921036555    0.0159077314
 C   -2.8815378863   -3.9435582316    0.0010804036
 C   -5.2411399411   -3.4638452487    0.8419378409
 H    1.0111141265    2.0143059575   -0.0187949466
 H   -0.5006305691    1.9675734112   -0.9473014849
 H   -0.5527684676    2.0488508045    0.8181228843
 H    0.5759684587   -0.3131043415   -0.8041823898
 H    0.5320050611   -0.2326896214    0.9448052619
 H   -4.5104408505   -0.8944741491    0.5711650645
 H   -5.3796298236   -1.9844110484   -1.4866661795
 H   -3.6762763041   -2.2929788583   -2.0676805333
 H   -2.0432851443   -3.5339915307   -0.5672016145
 H   -2.5267044917   -4.1438088779    1.0186485696
 H   -3.1664970340   -4.9023191626   -0.4475916047
 H   -5.6315847646   -4.4133688879    0.4566154935
 H   -4.9537298796   -3.6232583943    1.8876603598
 H   -6.0597016095   -2.7373703000    0.8256137192