18

 C   -0.0083176675    1.5109001226   -0.0098325384
 C   -0.0372953783    0.0160602237    0.0652903359
 O   -0.0084687802   -0.6181293380   -1.2005524185
 C   -0.3175434581   -1.9708201091   -0.9099614466
 C    0.9386148411   -2.6527327653   -0.3722510462
 N    1.3863226191   -1.9568355933    0.8528537156
 C    0.5721365192   -0.8084305068    1.1843989859
 C   -0.9315408381   -0.8491187588    0.9221905807
 O   -1.3123570303   -1.9431486571    0.1101371780
 H    0.9356804626    1.8631584124   -0.4381969481
 H   -0.8292557680    1.8777403424   -0.6341000361
 H   -0.1114325663    1.9450171092    0.9884956708
 H   -0.7259810466   -2.4478718496   -1.8032954451
 H    0.7199888886   -3.7060748031   -0.1675047559
 H    1.7168349093   -2.6131761861   -1.1466168571
 H    1.3782393210   -2.6004190385    1.6347525408
 H    0.9224467806   -0.2592173018    2.0535111790
 H   -1.7132831283   -0.5125115128    1.5921766652