16

 C   -0.0465857852    1.5784732430    0.0878935294
 C    1.2681758048    0.8438331814    0.0963791799
 O    1.9673743849    0.8184399501    1.3132673484
 C    2.0688062158   -0.4780869119    1.8415374166
 C    1.3547573938   -0.7352822122    3.1424415806
 C    0.7781961996   -1.2492748656    1.8494774957
 O   -0.3202837754   -0.5485267882    1.3273346382
 C   -0.0224355447    0.0726460493    0.1043191933
 H   -0.3308881893    2.0638089459    1.0143084116
 H   -0.3525444135    2.0811253130   -0.8229808251
 H    1.8995181375    0.8513139542   -0.7896838014
 H    3.0097703243   -0.9818236235    1.6303677220
 H    1.7851988318   -1.4484919105    3.8367138097
 H    0.8501721936    0.1137556171    3.5887057200
 H    0.7741079286   -2.3177180157    1.6441257273
 H   -0.3361505466   -0.4845714966   -0.7759356162