18

 C    0.0075911796    1.4820088963    0.0799176359
 C    0.0358358000   -0.0118674612   -0.0341690663
 C    0.6849330491   -0.9299551538   -1.1090661265
 C    0.1072215866   -1.8586292620   -0.0172466543
 N    0.6083823547   -0.9172951602    1.0634665129
 C   -1.2080262265   -0.9793749974   -0.0011373486
 N   -2.0412290892   -0.8822422070    1.1699406517
 C   -2.0410475318   -1.0346514546   -1.2006645993
 N   -2.7136968730   -1.0984030406   -2.1384695727
 H    1.0214637528    1.8889985554    0.1513745762
 H   -0.4755662222    1.9201965274   -0.7988260237
 H   -0.5539300317    1.7825281458    0.9689884314
 H    0.2493359255   -0.9535254872   -2.1111889700
 H    1.7764009578   -0.8874927221   -1.1440802966
 H    0.1818401438   -2.9420054985    0.0818741802
 H    1.6306386614   -0.8795306118    1.0233209665
 H   -2.7150457445   -1.6399905481    1.2032431765
 H   -1.4350611626   -0.9436776704    1.9833653166