17

 O    0.1705295611    1.3838635926    0.2012217103
 C    0.0733307564    0.0019402302   -0.1211322560
 C   -1.3393436394   -0.4955077377   -0.0967656518
 C   -2.0426415877   -0.9726221299    1.1585498460
 C   -1.9043440345   -1.9162271267   -0.0082297536
 O   -2.9236931984   -1.6384279995   -0.9783847323
 C   -2.3873222742   -0.3023877150   -1.1876078769
 C   -1.2881162925   -3.1953770541    0.0264200557
 C   -0.7660762980   -4.2788802699    0.0590168006
 H   -0.1968592770    1.5019527305    1.0837360792
 H    0.4919811401   -0.0920779349   -1.1287210892
 H    0.6914837338   -0.6168234349    0.5480247937
 H   -1.3885482158   -1.1804606109    1.9998418734
 H   -3.0373861064   -0.6165492868    1.4122780799
 H   -3.1429001968    0.4762900757   -1.0382560765
 H   -1.9540392097   -0.2154845171   -2.1905121293
 H   -0.3084607312   -5.2368637715    0.0847699070