20

 C    0.1112858474    1.5067000254   -0.0675378249
 C    0.0829945388   -0.0067670698    0.1461533396
 O    0.5842635800   -0.3576876958    1.4321588149
 C   -1.3273125127   -0.5776091994   -0.0836584361
 N   -1.3780801540   -2.0230779965   -0.1708690558
 C   -1.7473261710   -2.7298678001   -1.2928276334
 C   -1.6900282042   -4.0716198740   -0.9999172116
 C   -1.2709906761   -4.1867870464    0.3542420090
 C   -1.0885777845   -2.9123958494    0.8383612271
 H    1.1087247592    1.8953514416    0.1523090446
 H   -0.1459631290    1.7713612731   -1.0979260673
 H   -0.6051914823    2.0095059532    0.5950503471
 H    0.7656682009   -0.4933823539   -0.5592618813
 H    0.1005997494    0.1593291680    2.0868101364
 H   -1.9848645695   -0.2278089796    0.7250160027
 H   -1.7317112917   -0.1804750970   -1.0191867507
 H   -2.0283380220   -2.2106632961   -2.1958432742
 H   -1.9266455789   -4.8769976002   -1.6782524465
 H   -1.1181842062   -5.0991687347    0.9103446176
 H   -0.7460951734   -2.5538768886    1.7936488928