19

 C   -0.1373127698    1.5558948782    0.0528106642
 C    0.0285079038    0.0648133437    0.0112270675
 C   -0.7905658065   -0.8880926920    0.8252571852
 C    0.7069075808   -0.8850440311    1.0324545709
 C    1.3317156587   -1.6432567211   -0.1019041290
 C    2.5308764593   -2.4633017602   -0.2198685194
 O    1.2206805175   -3.0592528549   -0.2820098777
 C    0.7084525596   -0.7002084406   -1.1463448715
 O   -0.0892894989   -1.3181803372   -2.1232015235
 H    0.7851450677    2.0698912824   -0.2405949125
 H   -0.9302971415    1.8800406870   -0.6311278258
 H   -0.4074744181    1.8978990822    1.0572520830
 H   -1.3634783449   -0.4348874290    1.6282913271
 H   -1.2729628315   -1.7431744223    0.3613283044
 H    1.1664672048   -0.6553267700    1.9859764504
 H    3.0928575541   -2.4683029631   -1.1532262827
 H    3.1060643864   -2.7189507779    0.6689977184
 H    1.4615325228   -0.0654476418   -1.6334794049
 H   -0.0162099342   -2.2689748124   -1.9640152139