17

 C   -0.2529841591    1.3856844930   -0.1551791161
 O    0.3021223548    0.1058960721    0.1087824954
 C    0.7803700053   -0.5252958292   -1.0391904088
 C    1.2647227812   -1.9935556820   -0.8053051242
 C    1.0592002010   -2.5619211387    0.5899385454
 N    0.2642934862   -2.3919386323   -1.8107438602
 C   -0.2799289926   -1.1483414183   -2.0026510077
 O   -1.2089358666   -0.7440929953   -2.6525138396
 H    0.5036788375    2.0662510336   -0.5749466222
 H   -1.0949508785    1.3210995125   -0.8537621943
 H   -0.5981157894    1.7834135496    0.8014528231
 H    1.5114920952    0.1016918200   -1.5723521248
 H    2.2914300138   -2.1672511668   -1.1474347831
 H    0.0498323701   -2.3536949720    0.9503001603
 H    1.2209937062   -3.6449135135    0.5908170582
 H    1.7709588594   -2.1121175584    1.2884495554
 H    0.0019276954   -3.2974696041   -2.1729429769