15

 O   -0.0264659692    1.4634995902   -0.0347589195
 C    0.0367237533    0.0595141752    0.0219339238
 C   -0.0215057153   -0.6578566349    1.4147790566
 C   -1.4925411251   -0.1616857559    1.5179692994
 C   -1.3381115926   -0.6575795970    0.0461779936
 C   -0.6053602080   -1.8822939559    0.6413535180
 O    0.2011488088   -2.6111291082   -0.2519497808
 H    0.8720072492    1.8034782423    0.0051275322
 H    0.7674180084   -0.3421822366   -0.6836573679
 H    0.7359754055   -0.6660588432    2.2013445957
 H   -2.1625713738   -0.7396247176    2.1607705162
 H   -1.6252063769    0.9099583061    1.6439902940
 H   -2.0932953099   -0.6622513093   -0.7401381294
 H   -1.2386313515   -2.5442374726    1.2454802620
 H    0.7170886471   -3.2424079325    0.2586037860