21

 C   -0.0991847131    1.5670702507    0.0121937142
 C    0.0191733807    0.0407985119    0.0084765787
 C    0.7603275803   -0.5155647182   -1.2128274042
 N    2.1703352703   -0.1215653303   -1.2077211434
 C    2.9146090851   -0.7366975368   -2.2971632424
 C    3.0049420109   -2.2305498020   -2.0131688388
 N    1.6727256547   -2.7509297946   -1.7469079732
 C    0.6049368871   -2.0438089065   -1.2751690803
 O   -0.4424291158   -2.5896396841   -0.9750267215
 H    0.8775910918    2.0596225595    0.0795320804
 H   -0.5983310078    1.9308696235   -0.8934889103
 H   -0.6852896431    1.9067886177    0.8713730120
 H    0.5405659322   -0.2966256776    0.9115610344
 H   -0.9720003512   -0.4184897574    0.0200198532
 H    0.2400122588   -0.1529168211   -2.1240169512
 H    2.2381739710    0.8880815425   -1.2617365232
 H    2.4449526539   -0.5812722123   -3.2869213407
 H    3.9223294257   -0.3126974908   -2.3357796104
 H    3.4301969719   -2.7567851545   -2.8751378463
 H    3.6681392655   -2.3960683421   -1.1528610142
 H    1.5330948509   -3.7512409476   -1.7370067027