19

 C   -0.8119946539    1.2106055869    0.0918994253
 C    0.0006339806   -0.0814397594   -0.0088725847
 C    0.7720333681   -0.3338989721   -1.3434808810
 O    0.8370450642    0.7951411607   -2.2073895998
 C    2.2002167852   -0.7075389869   -0.9481980769
 C    2.9864822221    0.4042858259   -0.3348306394
 C    2.3418410402   -0.6448062521    0.5602889926
 C    1.0231884790   -0.2416527861    1.1350883346
 O    0.7622390468   -0.1132877314    2.3060771802
 H   -0.2019340051    2.0850047396   -0.1478088969
 H   -1.6725811328    1.2012884113   -0.5859094116
 H   -1.1875283965    1.3178909109    1.1127410675
 H   -0.6834297839   -0.9274953307    0.1431148293
 H    0.3125493346   -1.1764892627   -1.8772453578
 H   -0.0568152583    0.9985614956   -2.5010098758
 H    2.7161712821   -1.4654965477   -1.5245732286
 H    4.0674483581    0.3627703828   -0.4013870032
 H    2.5725615733    1.4051522319   -0.3650484305
 H    2.9814060960   -1.3011906967    1.1368041566