17

 C   -0.0131284217    1.4431400674    0.0100885811
 N   -0.0923345127    0.0060080134   -0.1297696365
 C   -1.2551449428   -0.6949605451   -0.0496297048
 N   -2.3985624238    0.0065131064    0.0081610311
 C   -3.5097001996   -0.7359452005    0.0527798283
 C   -3.5195422091   -2.1160491978    0.0458420999
 C   -2.2562869208   -2.7394942532   -0.0040437017
 N   -2.1304342161   -4.1048289781   -0.0521099847
 N   -1.1265284462   -2.0355760161   -0.0445303985
 H    0.9944632076    1.7661175522   -0.2624214819
 H   -0.7324819605    1.9260579481   -0.6547948264
 H   -0.2270089990    1.7821983796    1.0328159232
 H    0.7437135028   -0.5476453827   -0.0535610690
 H   -4.4468894193   -0.1839185299    0.0990660242
 H   -4.4401190248   -2.6849802279    0.0779331040
 H   -2.8930503027   -4.6613912163    0.2965752881
 H   -1.2054079513   -4.4563594894    0.1406037637