19

 C   -0.0493980134    1.4886286779   -0.2201624546
 C    0.0178438986   -0.0122583509   -0.0484086701
 C    1.3413431673   -0.7634751797   -0.1847991878
 O    2.5252981493   -0.0546768947   -0.3651791865
 C    0.6609206358   -0.6488787249    1.1601272797
 O    1.2849233014    0.2455369025    2.0495617663
 C    0.0077013503   -1.8446913078    1.8402192784
 C    0.9455380366   -2.5283802520    2.7279173203
 C    1.7626677902   -3.0149329393    3.4646549996
 H    0.9014282101    1.9595724390    0.0332288890
 H   -0.2783535555    1.7396168559   -1.2607289844
 H   -0.8252006161    1.9289158781    0.4141748479
 H   -0.8513683301   -0.5511088207   -0.4206762799
 H    1.3502748582   -1.7163542859   -0.7073288838
 H    2.6983152316    0.3880652979    0.4780203911
 H    1.7955172892   -0.2941028908    2.6701123789
 H   -0.8633643387   -1.5071127640    2.4175149959
 H   -0.3664333630   -2.5372379935    1.0778354614
 H    2.4643875983   -3.4830295573    4.1102803084