18

 C   -0.0750458912    1.5409182999    0.0045762675
 C    0.0104784560    0.0434620483    0.0121244655
 C   -0.8621547408   -0.8746921255    0.8235109615
 C    0.6322471559   -0.8982716740    1.0392112057
 C    1.3732216658   -1.6421103229   -0.1237176268
 C    2.6967187702   -2.3238979495   -0.0328884502
 O    0.3888060647   -2.1510650898   -1.0429484099
 C    0.7532870606   -0.7617437029   -1.1097646891
 H    0.8922866429    1.9992396350   -0.2345128116
 H   -0.8013511384    1.8967255051   -0.7368530951
 H   -0.3880463032    1.9201215924    0.9826430977
 H   -1.4217909385   -0.3816451476    1.6131605069
 H   -1.3586997732   -1.7204838300    0.3649073928
 H    1.1008188696   -0.6454450644    1.9822078013
 H    2.6214286954   -3.2416083809    0.5619652082
 H    3.0586743292   -2.5889533725   -1.0297476340
 H    3.4340288815   -1.6729513354    0.4486629338
 H    1.0979188638   -0.3788633552   -2.0646217841