20

 C    0.0631287265    1.5356292505    0.0241511640
 C    0.0580072082    0.0211896873   -0.0040571362
 C   -0.8640529982   -0.7076203946    0.9640257239
 C    0.6213750343   -0.7563737253    1.1787989372
 C    1.3701276688   -2.0596572628    0.9186228868
 C    1.7860266403   -2.1490364014   -0.5435114368
 O    0.6899562745   -1.8645440746   -1.4265907092
 C    0.1788840157   -0.5923250888   -1.3603812242
 N   -0.2309909747    0.0086954978   -2.3974936388
 H    1.0072471977    1.9348701118   -0.3603163680
 H   -0.7406935475    1.9321913446   -0.6000696577
 H   -0.0710587191    1.9003376342    1.0473603158
 H   -1.4720566047   -0.0900222343    1.6159957737
 H   -1.3484143865   -1.6144475385    0.6167998777
 H    1.0097384885   -0.1408092094    1.9839896750
 H    2.2670338104   -2.1178239786    1.5442612098
 H    0.7453171663   -2.9216571684    1.1775788072
 H    2.6047058934   -1.4477794067   -0.7553038630
 H    2.1207768257   -3.1534720310   -0.8134268405
 H   -0.0685529797   -0.5766535019   -3.2194488666