16

 C    0.0750444742    1.1198561051   -0.8234340378
 C   -0.0940519782    0.1065984865    0.2868093999
 O    0.7108548729   -0.0381228245    1.1827633654
 C   -1.3036621448   -0.7588819262    0.2382273989
 C   -1.8201489525   -1.4876814513    1.4502849528
 C   -1.2717318789   -2.3088442894    0.3219208605
 N   -2.2082845136   -2.7546242660   -0.6738338502
 C   -2.7071888012   -1.7069358626   -1.1923647781
 O   -2.2540771726   -0.4886502061   -0.7835853393
 H    1.0059784740    1.6663611482   -0.6716342454
 H    0.0854528459    0.6198681186   -1.7976418894
 H   -0.7726196490    1.8127682580   -0.8392881331
 H   -1.1841678697   -1.3842244037    2.3215253045
 H   -2.8911182932   -1.4917362856    1.6219416091
 H   -0.3562460187   -2.8738942793    0.4457769091
 H   -3.4749749147   -1.6722481018   -1.9550018968