17

 O   -0.0911484285    1.4436475500    0.0049237968
 C    0.0012176534    0.0674706875    0.0014950192
 C    0.7405826066   -0.8553638349   -1.0507685002
 C    1.7222770726   -1.3173137291    0.0497768282
 C    0.6725288352   -0.8653469551    1.0900083237
 C   -0.6008278460   -1.8038808944    0.9812084711
 O   -0.4020849779   -2.8227208100   -0.0247841943
 C   -0.5368451764   -1.7945078226   -1.0318193611
 C   -1.2559796690   -0.8341569371   -0.0426525367
 H    0.7972527187    1.8163903318    0.0333585262
 H    1.0912702498   -0.5227709320   -2.0282969915
 H    2.0087098254   -2.3707181345    0.0539555080
 H    2.6144721078   -0.6851998744    0.0810930947
 H    0.9603470319   -0.5419745896    2.0908783126
 H   -1.0483978099   -2.1908290826    1.8967514343
 H   -0.9252299833   -2.1727740969   -1.9775152807
 H   -2.3003479303   -0.5325569661   -0.0744448903