23

 C   -0.2115647031    1.5357047206   -0.0525690693
 C    0.0870612680    0.0282077896   -0.0586533282
 C    0.8207170252   -0.3567955385   -1.3537864487
 C    0.8334828567   -0.4759857231    1.2124880793
 C    2.3075598204   -0.0435129334    1.2924498003
 C    0.0921426643   -0.0122373522    2.4855642676
 O    0.6562523240   -0.7012974377    3.5961929461
 C    0.7698050274   -2.0138495195    1.2547256111
 O   -0.1449394270   -2.6685159258    0.8242084315
 H    0.7034466203    2.1359061925    0.0070084309
 H   -0.7201683272    1.8147227759   -0.9811963331
 H   -0.8634652950    1.8333699092    0.7734344919
 H   -0.8701719180   -0.5054504684   -0.0616393088
 H    1.7608209002    0.1933137550   -1.4682506522
 H    1.0427860679   -1.4269020582   -1.3921635458
 H    0.1973501188   -0.1194759971   -2.2216762624
 H    2.4059574914    1.0426015890    1.2053980425
 H    2.7323856068   -0.3412505540    2.2544164582
 H    2.9083554955   -0.4985296557    0.4998351397
 H    0.2013195009    1.0746850040    2.6060171243
 H   -0.9783611136   -0.2423975644    2.3803539025
 H    0.1701744504   -0.4525990328    4.3872786786
 H    1.6440352956   -2.5045250749    1.7341260338