23

 C    0.0599305192    1.6487949153   -0.0597678060
 C    0.0269275597    0.1146277962   -0.0409025527
 C    0.7066810056   -0.4667287207   -1.3031748258
 C    0.7892497894   -1.9960471230   -1.3218711719
 O   -0.4651255281   -2.6055647251   -1.0431511162
 C   -0.5639795853   -3.3309742420    0.1667400336
 C   -0.8741197373   -2.4614418495    1.4031455535
 C    0.2540468034   -1.5566653458    1.8411500270
 C    0.6378020336   -0.4385718217    1.2216402508
 H    1.0907126854    2.0203935722   -0.0152169632
 H   -0.3952290208    2.0420156976   -0.9747580348
 H   -0.4819546002    2.0674761947    0.7940790797
 H   -1.0190699518   -0.2092852372   -0.0864559743
 H    0.1487780569   -0.1194952501   -2.1815850112
 H    1.7277417731   -0.0722889374   -1.4035386257
 H    1.1070327826   -2.3268030063   -2.3202583324
 H    1.5437359756   -2.3416061896   -0.6051971633
 H   -1.3872152479   -4.0399387164    0.0207713678
 H    0.3513888464   -3.9171309898    0.3409693373
 H   -1.7751135424   -1.8786323351    1.1763058426
 H   -1.1388112925   -3.1393169480    2.2232424746
 H    0.8041611949   -1.8705189843    2.7259302274
 H    1.4862840604    0.1149077760    1.6240289334