19

 C    0.0073223877    1.4963190394   -0.1813879727
 C    1.5294816340    1.5157222154   -0.0384128712
 C    1.9442262567    1.0255650004    1.3344881369
 C    1.1586009275    1.2885051921    2.5647591504
 C    0.1510539318    0.5345055116    3.0057669039
 C   -0.2858619506   -0.7563588782    2.3437696339
 O   -0.8070872744   -0.6291627757    1.0265973215
 C    0.0441416487   -0.0539591868    0.0615497044
 C    1.5620906075    0.0154411236    0.2755574954
 H   -0.5538330489    2.0748919785    0.5558828310
 H   -0.3457523980    1.7493024070   -1.1831680488
 H    2.2158792550    2.0763228141   -0.6606698742
 H    3.0221750611    1.0998185037    1.4712759642
 H    1.4298049176    2.1887539563    3.1145061833
 H   -0.3879069793    0.8373128481    3.8997162664
 H    0.5559864527   -1.4652949853    2.3427047358
 H   -1.0944035785   -1.2164716162    2.9176386911
 H   -0.1818164980   -0.5737948537   -0.8743609350
 H    2.2705157275   -0.7339091544   -0.0581895063