14

 O    0.1117932583    1.3669600536    0.0322135052
 C   -0.0333374524   -0.0137089189   -0.0165463950
 C   -1.3502707404   -0.7136124429    0.0405434985
 C   -2.5448752753    0.1539669137   -0.3165693330
 O   -2.2565142184    0.7344179670   -1.6035508692
 C   -1.2394248693    0.0522147873   -2.2422036282
 O   -1.0201247390    0.1976286408   -3.4070058991
 C   -0.5198278878   -0.7844826604   -1.2402967750
 H   -0.5463317085    1.7843738569   -0.5369683224
 H    0.7916755724   -0.4837085993    0.5071627676
 H   -1.5039255979   -1.5724140464    0.6825960992
 H   -3.4657833058   -0.4325991364   -0.3953005641
 H   -2.7064364264    0.9738689116    0.3900510978
 H    0.0149886605   -1.6539533267   -1.5966236624