21

 C   -0.0676167503    1.5245574569    0.3923005974
 C   -0.1137490070    0.0334094703    0.0590775351
 O    0.3187663657   -0.7436691324    1.1769540529
 C   -1.5192409165   -0.4795758036   -0.2921117238
 C   -2.0544800439    0.0929814557   -1.6211494234
 O   -3.4374707584   -0.1339483142   -1.7825744769
 C   -1.5011960242   -1.9983301690   -0.3585558234
 C   -2.2000868399   -2.8496439186    0.6038152043
 O   -2.7461997478   -2.6417764380   -0.7068965328
 H    0.9511399425    1.8174385576    0.6719245835
 H   -0.3608752115    2.1468467612   -0.4574342816
 H   -0.7289937566    1.7466634557    1.2354340230
 H    0.5485414528   -0.1603148419   -0.8033678982
 H    1.1979255320   -0.4417148286    1.4265829305
 H   -2.2126009709   -0.1667353192    0.4984847439
 H   -1.9166576176    1.1783030328   -1.6529548776
 H   -1.4700524984   -0.3296609057   -2.4581252038
 H   -3.5942914642   -1.0636019887   -1.5687622869
 H   -0.6445373797   -2.4254333914   -0.8815425332
 H   -1.8463929770   -3.8608116848    0.7947268207
 H   -2.7538717991   -2.3870192844    1.4184363304