23

 C   -0.0092530652    1.5275899073    0.1082196928
 C   -0.0959877111    0.0097205143   -0.0793881919
 C    0.7867044988   -0.5316308413   -1.2083270729
 C    2.3067167731   -0.3035994276   -1.0497840925
 C    2.9448142652   -1.3134748596   -2.0260973364
 C    2.0359635108   -2.5512091643   -1.9610121193
 C    2.1041111470   -3.3726907067   -0.6580589998
 O    0.8853412016   -2.7837415118   -0.1591634270
 C    0.6792465720   -2.0494280775   -1.3935950676
 H    1.0023083452    1.8436178789    0.3834061969
 H   -0.2832732170    2.0595614336   -0.8102562768
 H   -0.6858151972    1.8641408284    0.9000897289
 H    0.1799706778   -0.5019023000    0.8492568687
 H   -1.1384472135   -0.2694467026   -0.2819199056
 H    0.4684336573   -0.0769851382   -2.1598425435
 H    2.6102576249    0.7260635544   -1.2552344037
 H    2.6027570410   -0.5291885449   -0.0181091259
 H    2.9336152877   -0.9057337532   -3.0438503958
 H    3.9878124358   -1.5435485484   -1.7846696790
 H    2.0241520963   -3.1359634514   -2.8814276410
 H    2.0054161248   -4.4584480050   -0.7861156405
 H    2.9607551211   -3.1697847630   -0.0016775019
 H   -0.2472252663   -2.3663384912   -1.8866002264