18

 C   -0.2432705355    1.5149721567    0.1132892868
 N    1.0848605727    0.9406962096   -0.1345152327
 C   -0.0674822421    0.0377298215    0.0311925414
 C   -0.1108086312   -0.8838930106    1.1946437359
 C   -0.5942398103   -2.0808695267    0.8634154620
 C   -0.9588220430   -2.1723605706   -0.5987061559
 C   -0.5628832297   -0.7968964650   -1.1495089908
 C   -1.0942049463   -0.2571962624   -2.4044947965
 O    0.2438673144   -0.7648474695   -2.3368299998
 H   -0.3634174264    1.9861643234    1.0859381663
 H   -0.7688286568    2.0184617990   -0.6939121275
 H    1.3081747378    0.9708069350   -1.1289084273
 H    0.2296858324   -0.5776446932    2.1761642759
 H   -0.7238774497   -2.9140716939    1.5440373954
 H   -0.4104437846   -2.9620673623   -1.1259943365
 H   -2.0272137697   -2.3771037784   -0.7442701106
 H   -1.7921149663   -0.8559846073   -2.9897226806
 H   -1.1780000056    0.8174214246   -2.5591874654