18

 O    0.1559478924    1.1976911758    0.4615643623
 C    0.0716398188   -0.0654603969   -0.1795413547
 C   -1.3219996138   -0.6495137103   -0.0822804469
 C   -1.6834208138   -2.1018159193   -0.1106702430
 C   -0.6318654485   -2.9862145422    0.5926416162
 C   -0.8517873028   -2.1347627639    1.8381733322
 N   -0.4674757672   -2.1695304998    3.0455736946
 O    0.4827680125   -3.1927956227    3.2377886438
 C   -1.8810069579   -1.2769983243    1.1893046558
 H   -0.0502932654    1.0569314037    1.3921510019
 H    0.3249746127    0.1163586669   -1.2296336046
 H    0.8199641038   -0.7636909357    0.2192476670
 H   -2.0696856834   -0.0218121585   -0.5635040503
 H   -2.4571496456   -2.4833776731   -0.7644368506
 H   -0.9843889487   -4.0077274289    0.7632995308
 H    0.3739082783   -3.0323904898    0.1675555542
 H    0.6666437280   -3.1225794784    4.1804351636
 H   -2.7882748193   -0.9129646126    1.6540611477