23

 C   -0.2074105317    1.5656229458    0.9371524555
 C   -0.0949016989    0.1003828361    0.5471503680
 C    0.9594191968   -0.4046392810   -0.4983883609
 C    2.2554380980    0.0980831413    0.1418069217
 O    2.0081467673   -0.2555813212    1.5216738021
 C    0.7043543876   -0.8866900372    1.4511866116
 C    0.2771931861   -1.3487308564    2.8152695998
 C    0.8672333493   -1.8061853705    0.2009174740
 C   -0.2628576339   -2.7466135563   -0.1970965977
 H    0.7240347693    1.9409978262    1.3676078839
 H   -0.4649209340    2.1881007250    0.0727825145
 H   -0.9955352455    1.7054652865    1.6851572142
 H   -1.0803625644   -0.3016414057    0.3066228050
 H    0.8334385479   -0.2712076750   -1.5733872035
 H    3.1485651671   -0.4196991454   -0.2283318619
 H    2.4121766141    1.1790440605    0.0499624203
 H    0.1907426909   -0.4998170122    3.5009216256
 H   -0.6919718862   -1.8537241251    2.7661196765
 H    1.0117598193   -2.0450096485    3.2322472157
 H    1.8121726176   -2.3610929704    0.2155034345
 H   -1.2402056686   -2.2595380517   -0.2474583986
 H   -0.0647549835   -3.1834756884   -1.1821174087
 H   -0.3441033743   -3.5752066963    0.5152935386