15

 C   -0.2090903179    1.5183893120    0.0717114884
 C    0.1009358687    0.0135006083   -0.0203170494
 C    0.7579800288   -0.5200489263    1.2117685962
 N    2.0663108219   -0.7602351645    1.2913969614
 N    2.2337511263   -1.1920070477    2.5384671980
 N    1.1619270586   -1.2652677408    3.2974774782
 C    0.1935075846   -0.8378187541    2.4735257877
 C   -1.1650525825   -0.7484264382    2.8728266596
 N   -2.2860757220   -0.6548355527    3.1446637486
 H    0.7068382198    2.0968085495    0.2231489855
 H   -0.6843338713    1.8641153865   -0.8504510877
 H   -0.8886710641    1.7315158887    0.9020582385
 H   -0.8285016083   -0.5392692302   -0.1960053027
 H    0.7613288305   -0.1834045274   -0.8693891477
 H    3.1410729469   -1.4618918731    2.8859816755