16

 C    0.0659737837    1.4552973820   -0.0061792236
 N   -0.1422286236    0.0201218252    0.0604140408
 C    0.5530325429   -0.6860020091    1.0354465754
 C    1.2211867376   -0.1959242438    2.1273251479
 O    1.7170662537   -1.2178457455    2.8845302576
 C    1.3751875162   -2.3803042899    2.2605364745
 C    0.6591676505   -2.1103224331    1.1256047477
 C    1.7828756630   -3.5920666949    2.8456120269
 C    2.1263778650   -4.6374517906    3.3361808532
 H    1.1246792870    1.7413768960   -0.1179378103
 H   -0.4986736028    1.8631934785   -0.8473592596
 H   -0.3133864500    1.9239475786    0.9088478535
 H   -0.1173380649   -0.4308596634   -0.8425716383
 H    1.4119546958    0.7959508073    2.4973141816
 H    0.2530429286   -2.8405938294    0.4434066366
 H    2.4288954272   -5.5578366480    3.7703684561