13

 O   -0.0010075824    1.3875550562   -0.0359393137
 C    0.0199342703    0.0007934488    0.0209526076
 C   -0.4429743104   -0.6974350119    1.2811834508
 C   -1.3473684380   -0.6862145175    0.0618407694
 C   -2.5362868319    0.1103408141    0.0327940806
 C   -3.5523585261    0.7507415680   -0.0007851400
 C    1.0550155709   -0.6322707492   -0.7712426179
 N    1.8972135627   -1.1273991360   -1.3903037837
 H    0.7677208991    1.7243566377    0.4393297876
 H    0.0239662862   -1.6342104006    1.5605475808
 H   -0.7179778112   -0.0378380703    2.0955110480
 H   -1.3988904019   -1.6174495707   -0.4937558332
 H   -4.4439250672    1.3266180014   -0.0342521464