16

 C    0.0742664329    1.4074126973    0.1033805271
 N   -0.0083027698   -0.0120608886   -0.1677804526
 C   -1.2249639918   -0.6438496302   -0.0695245266
 C   -2.4909471676   -0.1228231003   -0.0521448713
 N   -3.3412459279   -1.2401103975    0.0032905350
 C   -4.7309394945   -1.2432626805    0.0360777954
 O   -5.4026374389   -2.2402841254    0.0928307851
 C   -2.5255240824   -2.3510716070    0.0291206425
 N   -1.2640052876   -2.0339868066   -0.0124706651
 H    1.1136955324    1.7307455372    0.0195125511
 H   -0.5071046254    1.9635569691   -0.6412423137
 H   -0.3026000760    1.6834148980    1.1013902048
 H    0.7514453190   -0.5785221098    0.1783060723
 H   -2.8773902531    0.8800213549   -0.0772019811
 H   -5.1438112797   -0.2192085523    0.0041002110
 H   -2.9417634198   -3.3444252382    0.0799511461