23

 C    0.0243493968    1.5724611372    0.0919111514
 C   -0.0131301152    0.0385802699    0.0341951056
 C    0.4195237734   -0.4369259739   -1.3593011500
 C    0.4940635878   -1.9147296254   -1.6162155902
 C    0.4084021905   -2.9464516812   -0.7623733212
 C    0.2753913601   -2.9726031521    0.6902525241
 C    0.4690353313   -1.9771327182    1.5713948620
 C    0.3196181466   -2.2127031327    3.0502697595
 C    0.8483889997   -0.5710916990    1.1644968047
 H    1.0502468182    1.9437741703   -0.0213346277
 H   -0.5787088798    2.0175104495   -0.7065571417
 H   -0.3589738571    1.9433345862    1.0480100897
 H   -1.0489659534   -0.2847173928    0.1977494974
 H   -0.2683555747   -0.0027883791   -2.0999661760
 H    1.3976192432    0.0100992617   -1.6019967969
 H    0.6236105805   -2.1665246456   -2.6678690821
 H    0.4502170036   -3.9374142924   -1.2118191740
 H    0.0242680656   -3.9503277931    1.0977332113
 H    0.0749199172   -3.2537030733    3.2769803755
 H    1.2427610349   -1.9539456155    3.5864798093
 H   -0.4682232241   -1.5757523266    3.4752322038
 H    1.9047482782   -0.5490203155    0.8575753676
 H    0.7834499265    0.0768081615    2.0462568079