14

 O   -0.5638178647    1.5263100449   -0.4180928587
 C   -1.0270360991    0.2558788768   -0.7618676684
 C   -1.1472592623   -0.6402329768    0.4528498515
 O   -0.7995330378   -0.2745811383    1.5456063475
 C   -1.7742069964   -2.0625732656    0.2706489092
 C   -3.2211315237   -1.9330011174    0.1099753055
 C   -4.4063594766   -1.7840249863   -0.0036622797
 C   -1.1570840437   -2.7852431282   -0.8493596341
 N   -0.6456748407   -3.3398851946   -1.7237680578
 H   -0.3619212177    1.4960209747    0.5284942765
 H   -2.0125423189    0.3083134293   -1.2498834832
 H   -0.3541638396   -0.2425256281   -1.4795923440
 H   -1.5459239886   -2.5988418687    1.1991371281
 H   -5.4577858801   -1.6670991917   -0.1065506223