15

 O    0.1158351702    1.3940457848    0.4357431052
 C   -0.0054493867    0.0739353790   -0.0670430286
 C   -1.4195730973   -0.4216274061    0.0021646233
 C   -2.1108905964   -1.0561764562    1.2090072314
 O   -3.5216188570   -0.8335021520    1.1099375574
 C   -3.4002344694   -1.2067065063   -0.2913618302
 C   -2.0083012408   -1.8861509564   -0.0112818518
 C   -2.5632975649   -0.0496499042   -0.8909681590
 O   -2.6652654454    0.6774292987   -1.8392763345
 H   -0.3822818654    1.9727516098   -0.1519446527
 H    0.3545868431    0.0050378456   -1.1045345023
 H    0.6503962136   -0.5513942450    0.5484884481
 H   -1.6486410258   -1.1213960708    2.1855734286
 H   -4.2975688005   -1.6240039977   -0.7389254883
 H   -1.5332633873   -2.8098404132   -0.3062822865