18

 O    0.1944863763    1.4437057897    0.0136314369
 C    0.0713659384    0.0324087462   -0.0191258692
 C    0.5138028682   -0.6213425440    1.3292862157
 N   -0.6816650409   -0.6126653097    2.2065787940
 C   -1.6653229989   -0.5258723926    1.4096453030
 O   -2.9628722734   -0.3584535587    1.7110745107
 C   -3.6627604219   -0.0140095788    0.4853093422
 C   -2.5807659660    0.4039624747   -0.5395994264
 C   -1.3974531106   -0.4456495510   -0.0723126576
 H   -0.0957323331    1.7449455941    0.8826760120
 H    0.6650585254   -0.2991887128   -0.8741170843
 H    0.8735769179   -1.6480928626    1.1777951487
 H    1.3295441937   -0.0538749265    1.7885531900
 H   -4.2218621468   -0.8955144518    0.1506490913
 H   -4.3721895403    0.7794320512    0.7291498324
 H   -2.9015961571    0.2169151965   -1.5660934481
 H   -2.3365792208    1.4654131408   -0.4413755681
 H   -1.4370601999   -1.4531678247   -0.5081064431