16

 N   -0.0567721815    1.1720869775   -0.5639535690
 C    0.0660676647    0.0060368199    0.1169897746
 O    1.0722813929   -0.3701491136    0.6884734381
 C   -1.1796023886   -0.8390818874    0.0965227270
 C   -1.7070600453   -1.5949420535    1.3422383741
 C   -2.4459169954   -2.4754447676    0.3361305582
 C   -2.7954066899   -1.5242871833   -0.8257373814
 O   -2.3775800083   -0.2068288487   -0.4579635398
 C   -1.4446510133   -2.1408438557   -0.7648304125
 H    0.7219612467    1.8083611093   -0.5953543108
 H   -0.9314694134    1.4054321449   -1.0037250962
 H   -0.8937812195   -2.1301557950    1.8341574334
 H   -2.2796463428   -0.9979384050    2.0583416237
 H   -2.9694563959   -3.4081068269    0.5010526238
 H   -3.6264165688   -1.6414800971   -1.5079412363
 H   -0.8403996216   -2.7309427879   -1.4383004370