16

 O    0.0879088931    0.0225006232   -0.0040496749
 C    0.0229845938    1.2088334920    0.0215575855
 C   -1.1023658968    2.2626299860    0.1272608633
 C   -2.1022232823    2.2393732742    1.2946119636
 C   -3.0740656469    1.1592055237    1.1815170532
 C   -3.8761506282    0.2724982790    1.0673123527
 C    0.0397131317    3.2805326147    0.1036200493
 C    1.0695795709    2.9907925880    1.1117746402
 N    1.0882155072    2.1917322910   -0.1521761541
 H   -1.6491683940    2.2709114945   -0.8215679631
 H   -1.5673148324    2.1557980595    2.2478053533
 H   -2.6256703122    3.2040921635    1.3217344981
 H   -4.5768457874   -0.5198776178    0.9740054327
 H    0.0521504196    4.1808516498   -0.4984433345
 H    1.9191273657    3.6616161804    1.1846056402
 H    0.8159168283    2.4860034685    2.0402692448