18

 C   -0.0083274866    1.5099136015   -0.0355814055
 C   -0.0204742137   -0.0092816432    0.0384363334
 C   -1.4304957452   -0.6502426579   -0.0280443982
 C   -1.4041765034   -1.7106991448    1.0462502761
 C   -0.2684435934   -1.7171031453    1.7466745370
 C    0.7151211909   -0.7026313154    1.2452074699
 C    1.7004340124   -1.2650679107    0.1726326229
 O    2.6804074105   -1.9588215878    0.1735204664
 N    0.9803716262   -0.6610203602   -0.8275492082
 H    1.0094850329    1.8982764752    0.0629726078
 H   -0.4140052836    1.8597518954   -0.9920116827
 H   -0.6238602582    1.9387288632    0.7615151656
 H   -2.2203128956    0.0902893783    0.1543985281
 H   -1.6254860986   -1.0681419679   -1.0242254846
 H   -2.2367266479   -2.3860617582    1.2113723433
 H   -0.0359683396   -2.3949486607    2.5594326823
 H    1.1787004416   -0.0677369536    2.0039253174
 H    1.0660274714   -0.7146825778   -1.8330433607