25

 C   -0.2397951045    1.5774292475   -0.0438415844
 C    0.0062146790    0.0598357235   -0.0128850234
 C    0.7452249316   -0.4289100052   -1.2766762679
 C    2.2256292628   -0.0178105595   -1.2926290471
 C    2.9519079415   -0.5096560261   -0.0364933022
 O    4.2936114526   -0.0392151651    0.0280987690
 C    2.2424288921   -0.0264466901    1.2263689589
 C    0.7593075057   -0.4373914900    1.2494370873
 C    0.0859467318   -0.0254130935    2.5634359775
 H    0.6887642561    2.1552928784   -0.0096469176
 H   -0.7648612782    1.8573464278   -0.9634588214
 H   -0.8590668145    1.9011305876    0.7973420304
 H   -0.9814970767   -0.4213113072   -0.0056772831
 H    0.6813617813   -1.5245466899   -1.3219832685
 H    0.2411993748   -0.0539481814   -2.1749659915
 H    2.7163179710   -0.4204096270   -2.1889866545
 H    2.3279027873    1.0730108615   -1.3425650067
 H    2.9415820411   -1.6146725463   -0.0384775732
 H    4.7397963912   -0.3074636186   -0.7816244295
 H    2.7598263779   -0.4285153711    2.1046811711
 H    2.3420064439    1.0650930955    1.2818495602
 H    0.7301402814   -1.5367641338    1.2027606717
 H    0.1579154917    1.0535219711    2.7355523271
 H   -0.9760037780   -0.2950962863    2.5688485474
 H    0.5614870474   -0.5233238016    3.4149851605