17

 O   -0.1961124566    0.0369422627    0.1290354139
 C   -0.1019443974    1.2036620533   -0.1501806881
 C    1.1663667538    2.0197918984   -0.0568360132
 C    1.5158013261    2.6829841816   -1.4014635327
 C    2.6911460046    3.6385205668   -1.2777481794
 C    2.6771525816    4.9303424297   -1.9953851323
 O    2.3852532848    4.8746356046   -0.6024869798
 C    3.9614440462    3.0414407527   -0.9332112494
 C    5.0024538663    2.5091977403   -0.6549445872
 H   -0.9882480136    1.7775952493   -0.5131668165
 H    0.9989556433    2.8146948317    0.6833950905
 H    1.9777649983    1.3798463142    0.2978079344
 H    1.7527949993    1.9174753100   -2.1488537662
 H    0.6546840412    3.2505039679   -1.7711863915
 H    3.6210139889    5.4033341009   -2.2587974862
 H    1.8346206997    5.1606398660   -2.6465856180
 H    5.9268364234    2.0494270500   -0.4043854585