16

 C   -0.0621358776    1.5039625026    0.0656335545
 C   -0.0104661982    0.0029993146   -0.0010891928
 C    0.0754733437   -0.6509615488   -1.2328683627
 N    0.1727455904    0.0085102303   -2.4566176270
 C    0.1211801820   -2.0530984754   -1.1643854408
 O    0.1996017495   -2.7360609566   -2.3293143271
 N    0.0889780748   -2.7301413398   -0.0325058099
 C    0.0075208319   -1.9995549376    1.0864465225
 N   -0.0448180940   -0.6783538321    1.1584875367
 H    0.7907454785    1.9526830389   -0.4574380079
 H   -0.9728199634    1.8974274404   -0.4064112503
 H   -0.0526476213    1.8225670724    1.1081471616
 H   -0.3119487202    0.8930546277   -2.5036152823
 H   -0.0383805504   -0.5811238088   -3.2492465239
 H    0.2102980104   -3.6737680722   -2.0921079379
 H   -0.0189345060   -2.5501532656    2.0225319772