16

 C    0.0509385052    1.5068050434   -0.0514435035
 C   -0.0744600245    0.0184414209    0.1173341512
 C   -1.3999138188   -0.6893093853   -0.1733990974
 C   -1.3286545779   -1.9343409804    0.7007969368
 C   -0.2101189073   -1.9662034295    1.4449513492
 C    0.6472928230   -0.7934504956    1.1227276678
 O    1.0577352054   -0.7693616595   -0.2649936462
 C   -2.3425777406   -2.9287607403    0.6860977550
 N   -3.1923126504   -3.7160228495    0.6588052503
 H    1.0482719526    1.8412536720    0.2435372691
 H   -0.1067149797    1.7905066937   -1.0976823660
 H   -0.6926019521    2.0325919836    0.5559893434
 H   -2.2624505778   -0.0674923535    0.0930132568
 H   -1.4953343082   -0.9422590462   -1.2346603734
 H    0.0514055073   -2.7424792750    2.1519425937
 H    1.3680132738   -0.3922738190    1.8281916631