21

 C   -0.2379459403    1.5980370935    0.1333251062
 C    0.1918104176    0.1427458166   -0.0847147550
 C    0.7964209690   -0.4846461864    1.1542788349
 O    1.9917511129    0.1114419159    1.5931229580
 C   -0.0819752418   -1.0942210688    2.2128525068
 C    0.8036571412   -1.9889491106    1.3386750595
 C    0.2293498036   -2.8806258136    0.3737626890
 C   -0.2437478221   -3.6403807553   -0.4338955489
 C   -0.8119802648   -4.5601756876   -1.4091667596
 H    0.6157346317    2.2273301495    0.4085685319
 H   -0.6699877381    2.0203786687   -0.7784444456
 H   -0.9882796440    1.6775753749    0.9277989026
 H   -0.6637010427   -0.4599217859   -0.4045424938
 H    0.9324475826    0.0918121695   -0.8918432932
 H    1.7671475563    0.9498391023    2.0113339201
 H    0.2195985519   -0.9789128532    3.2479032616
 H   -1.1514169913   -1.1376995344    2.0393640764
 H    1.7020546290   -2.3483636775    1.8320031836
 H   -0.0279696083   -5.0590680478   -1.9899970610
 H   -1.4118889068   -5.3396464037   -0.9257187589
 H   -1.4623921957   -4.0358611960   -2.1183439746