13

 O   -0.3398976248    0.0225408171   -0.3089678420
 C   -0.2286974423    1.1803887967    0.0134291352
 C    1.0129777105    1.9247569475   -0.0604568508
 C    2.0512616251    2.5243327425   -0.1500320769
 N   -1.2767492459    1.9186897920    0.5784424681
 C   -1.7915698572    3.1824123767    0.1164037540
 C   -2.6401147984    1.9271047111    0.0923991101
 C   -2.9733722345    1.3415726706   -1.1864021117
 N   -3.2843748139    0.8988687755   -2.2074104893
 H    2.9768168108    3.0411052992   -0.2329904264
 H   -1.9854072729    3.9317887258    0.8781562876
 H   -1.4432338759    3.5583125880   -0.8418091050
 H   -3.4026232107    1.7920349273    0.8544758471