14

 O    0.2770333526    0.4723035085   -1.4270580069
 C    0.0655100125    1.3504852843   -0.6204292726
 C    1.0167399165    1.6905359728    0.4153174187
 C    1.8178715953    1.9951518372    1.2598265744
 C   -1.2241739734    2.1905700180   -0.6279247930
 C   -2.2319623064    1.7455833962   -1.7104778781
 O   -3.3861840577    1.3079307371   -0.9468652139
 C   -3.0633128296    1.5139422861    0.3442636036
 N   -1.9338752319    2.0040312036    0.6555778806
 H    2.5257265218    2.2543861056    2.0094777614
 H   -0.9254570104    3.2413588520   -0.7244578055
 H   -2.5487641653    2.5552769550   -2.3705733448
 H   -1.8571438787    0.9048120859   -2.2968036262
 H   -3.8351566554    1.2339212577    1.0525942521