18

 C    0.0275742828    1.2709032981    0.2549554667
 O    0.0086516185   -0.0609592439   -0.2075478967
 C   -1.2525529598   -0.6679979486   -0.0991481537
 C   -1.3694168771   -2.0873999096   -0.6104563007
 C   -0.9860808241   -3.0285307440    0.5382321408
 C   -0.5883625803   -2.1597308364    1.7304707148
 C   -1.7354611788   -1.2146944444    1.2825985366
 C   -2.3663034304   -2.4222400105    0.4824894828
 H    1.0363880347    1.6589739444    0.0950649937
 H   -0.6867760085    1.9024316042   -0.2969787645
 H   -0.2108204081    1.3415231868    1.3269521838
 H   -2.0290374429   -0.0272076580   -0.5456164701
 H   -1.3727370913   -2.4236582744   -1.6389071983
 H   -0.7047046551   -4.0527009845    0.3294684283
 H   -0.8251097862   -2.6529191642    2.6770121451
 H    0.4212317066   -1.7386926030    1.7597960242
 H   -2.2511508969   -0.5717620233    1.9924998871
 H   -3.3577043731   -2.8457554989    0.4328879600