20

 C   -0.1399188524    1.4328041516    0.1445825336
 O    0.0385130572    0.0483547788    0.4072035138
 C   -1.1533906605   -0.6688139346    0.3903346068
 C   -1.6956293763   -1.1712403642   -0.9253423247
 C   -1.0512225978   -2.1222808923    0.0659362839
 C    1.1874783606    2.1276471495    0.2640909920
 C    2.1391268551    2.1385897708   -0.9033598939
 C    1.4276935388    3.4054594448   -0.5000319354
 H   -0.5586303030    1.5792753694   -0.8645945685
 H   -0.8643599217    1.8576301470    0.8598672150
 H   -1.8754859364   -0.3579205269    1.1477376507
 H   -2.7697118416   -1.2121203423   -1.0701770401
 H   -1.1236020775   -0.9299982533   -1.8144072875
 H   -0.0612394059   -2.4909135065   -0.1768637381
 H   -1.6781973912   -2.8207002275    0.6085097806
 H    1.6337330222    2.0591800172    1.2518387176
 H    3.2008714828    2.0551167932   -0.7009416327
 H    1.8208661661    1.6454462880   -1.8158454876
 H    0.6343457349    3.7698391887   -1.1447300126
 H    1.9987667368    4.1903253783   -0.0170849028