19

 C    0.7055899270    1.5502096347   -0.1127080991
 N    1.5410836865    0.3556622901    0.1402040565
 C    0.1008782200    0.2091647406   -0.0110257585
 C   -0.8036021223   -0.4303825150    1.0420661885
 N   -1.3418484638   -1.3640308359    0.0105767681
 C   -2.7902411506   -1.2886294296   -0.2397390154
 C   -2.9330133123   -0.3102701180   -1.3857382194
 C   -1.7420200807    0.0619382020   -1.8517209773
 C   -0.6387653556   -0.6120678487   -1.0809747421
 H    0.6420959961    2.2458248202    0.7202678696
 H    0.7439461121    2.0228108558   -1.0917546410
 H    2.0188041751    0.0712081624   -0.7124153993
 H   -0.2827108960   -0.9323655447    1.8633785178
 H   -1.5587881292    0.2522265897    1.4564352159
 H   -3.2041726118   -2.2736726781   -0.5019505824
 H   -3.3178919209   -0.9631441194    0.6675837847
 H   -3.8940746704    0.0049298407   -1.7761907417
 H   -1.5626340043    0.7302434809   -2.6856384376
 H    0.0124136115   -1.2267896679   -1.7205651974