18

 C   -0.1419696935    1.5431907127   -0.0931042904
 C   -0.0162250145    0.0339259605   -0.0855910624
 O   -1.1817883671   -0.6173452582   -0.5807220802
 C    1.2484207621   -0.6231545132   -0.6480369666
 N    2.0585147686   -0.2639030135    0.6203104914
 C    2.5132993863   -1.7216370120    0.7425419468
 C    1.0884998386   -1.8958019103    0.2555129253
 O    0.4336090942   -3.0758195095    0.0049524552
 C    0.6495871085   -0.6605675580    1.1200766984
 H    0.7896663878    1.9988220973    0.2507483833
 H   -0.3673652010    1.9051578090   -1.1010875711
 H   -0.9486422599    1.8715540208    0.5746930710
 H   -1.9481272626   -0.2491251276   -0.1278062539
 H    1.6997278139   -0.5417036616   -1.6384075607
 H    3.3295816801   -1.9801228275    0.0609010340
 H    2.7508319192   -2.0171415127    1.7691330900
 H   -0.4427145636   -2.8311127958   -0.3229301294
 H    0.4108116627   -0.6242774304    2.1852853494