21

 O    0.0621441886    1.4173022947   -0.6496361982
 C   -0.0039561949    0.2434885871    0.1357741061
 C   -1.3652579440   -0.4155437160   -0.0240970239
 O   -1.6109658714   -0.6757571712   -1.4336322044
 C   -1.6899484689   -2.0987598706   -1.1972676453
 C   -1.5099241147   -1.9091890523    0.3244816494
 C   -0.4588265859   -2.7554612390    1.0904151668
 C   -1.6215205329   -3.5890704494    1.6959131471
 C   -2.5963847200   -2.4527500018    1.2844567428
 H   -0.2392341291    1.1557630329   -1.5292180977
 H    0.7871646067   -0.4722381589   -0.1423555390
 H    0.1631445018    0.5394413032    1.1775596983
 H   -2.1487896603    0.2356247128    0.3867568955
 H   -2.6553173567   -2.5092138121   -1.5196546513
 H   -0.8824984552   -2.6436300982   -1.7042844868
 H    0.2892952232   -3.2817403529    0.4913436299
 H    0.0608654182   -2.1683374495    1.8538344071
 H   -1.8023915398   -4.5082015573    1.1319080875
 H   -1.5606024272   -3.8414730178    2.7564749910
 H   -2.7833837418   -1.7562148511    2.1082901928
 H   -3.5571159058   -2.7326449728    0.8433918424