16

 C   -0.0415110913    1.4490720075    0.1623044970
 N    0.4048333612    0.0818575480   -0.1057517236
 C    0.7145217192   -0.7288665086    0.9679607984
 C    0.5198219505   -2.0386995185    1.2758912382
 N    1.1795948070   -2.3212472548    2.4714180259
 C    1.7134469133   -1.2050894388    2.8354872473
 C    2.5105050084   -0.8940030783    4.0486271846
 O    1.4756300643   -0.1745106053    1.9560719396
 H    0.7326703166    1.9761699346    0.7228534062
 H   -0.1818821793    1.9636589405   -0.7909205838
 H   -0.9793353400    1.5002191367    0.7356698383
 H   -0.1863228621   -0.4037662996   -0.7657853188
 H   -0.0332859444   -2.7882075730    0.7339641314
 H    3.5058052652   -0.5172618145    3.7889462376
 H    2.0210479517   -0.1312374527    4.6645403784
 H    2.6192642496   -1.8057291633    4.6368497432