21

 C   -0.2102711077    1.5188284929   -0.0883226870
 C    0.1026274593    0.0196740437   -0.0665545377
 C    0.8244363601   -0.4655231263    1.2027677741
 O    0.0558729038   -0.1164753270    2.3712095776
 C    1.0023106579   -1.9986677984    1.2482148282
 C    2.3759449673   -2.2616056619    1.9129664959
 O    3.0879957177   -3.3684599636    1.3754392265
 C    3.0814630655   -0.9332459759    1.7536998079
 C    2.2564244622    0.0283601520    1.3467573930
 H    0.6969332587    2.1309183077   -0.0336775143
 H   -0.7309027277    1.7932096146   -1.0103914175
 H   -0.8603425892    1.7953462434    0.7477340571
 H   -0.8339718737   -0.5444109374   -0.1542111373
 H    0.7153523272   -0.2460480777   -0.9370462865
 H    0.1924336820    0.8193013746    2.5502856134
 H    0.1671591734   -2.4692931155    1.7703391580
 H    1.0337517919   -2.4011918708    0.2296033852
 H    2.2622424580   -2.5080195784    2.9752310319
 H    3.2705516347   -3.1713206227    0.4497613491
 H    4.1370387900   -0.8207538104    1.9782386990
 H    2.5305769088    1.0665676871    1.1864520532