13

 O   -0.0048955616    1.4524895940    0.0895614577
 C    0.0757918234    0.0611163604   -0.1237532930
 C   -1.3194295974   -0.5709982733   -0.0968153915
 C   -1.4758681514   -2.0925362814    0.0829703549
 O   -2.1009632974   -1.8803294128    1.3964459037
 C   -1.9564202046   -0.5241982871    1.2896635586
 O   -2.2075447367    0.3121977212    2.1014642640
 H   -0.4728048799    1.5943131009    0.9226199483
 H    0.5414907691   -0.0820740251   -1.1039803519
 H    0.7178317289   -0.4354879849    0.6225706880
 H   -1.9489117423   -0.1296843422   -0.8726026555
 H   -2.1638540214   -2.5979216619   -0.5961286922
 H   -0.5510081788   -2.6633072780    0.1928478789