19

 C   -0.0035684282    1.4832954169    0.2415409467
 C    0.4936931882    0.0492713846    0.1996791170
 O    0.1162976463   -0.5843201648    1.4110131949
 C    0.5130744849   -1.9055104491    1.4909194150
 C    1.9160673894   -2.4657715780    1.6209461827
 C    2.8426043991   -1.7168035810    2.6224977699
 O    2.1877542874   -0.5457611330    3.1178648125
 C    1.8530435251   -1.8172585317    3.6854051776
 C    0.8673232234   -2.5994622426    2.7603937759
 H    0.4341380298    2.0089937132    1.0944023850
 H    0.2742068054    2.0105700363   -0.6761993445
 H   -1.0923919247    1.5116394405    0.3425417417
 H    0.0626602755   -0.4890767853   -0.6618189538
 H    1.5879791681    0.0184082866    0.0898039832
 H   -0.0720514578   -2.5609896213    0.8344218428
 H    2.2815221381   -3.2429715202    0.9609399643
 H    3.9255875886   -1.7422363919    2.6359617064
 H    1.9503917782   -1.9365254598    4.7573145700
 H    0.3583387833   -3.4938168295    3.0985553925