18

 C   -0.2495544595    1.4850259506    0.0005715529
 N    0.0296057263    0.0555156116    0.0853178253
 C    1.3557834297   -0.4494898622   -0.3034095097
 C    2.4095918676    0.4589567967   -0.6796736367
 N    3.2470353761    1.1916129524   -0.9986888739
 C    0.8795119732   -0.4970454355    1.1343870331
 C    1.5337171175    0.3915746886    2.1758194648
 C    0.4086364805   -1.8383276300    1.6639933442
 H    0.6098576467    2.1411905307    0.1868139362
 H   -0.6289934746    1.7020516545   -1.0020818366
 H   -1.0372192278    1.7242589707    0.7207713181
 H    1.3403349976   -1.3599521881   -0.8980670506
 H    1.9813843911    1.2913143972    1.7526975091
 H    0.7975404633    0.6902448783    2.9300844427
 H    2.3262298982   -0.1613000347    2.6893691521
 H    1.2486344741   -2.4198368015    2.0581916854
 H   -0.3107132701   -1.6919486346    2.4774060377
 H   -0.0845659301   -2.4137502747    0.8775260657