20

 C   -0.2289831432    1.4619579998    0.1030576685
 C    0.0334441579   -0.0413388139   -0.0982740006
 C    0.8333478749   -0.2525083571   -1.3710544869
 O    0.4675992073   -0.8797418025   -2.3311965887
 C    0.8091533936   -0.6259767073    1.0750095603
 C    0.0921042310   -1.1234661528    2.3097133208
 C    0.8137951222   -2.1016739383    1.4141377222
 C    0.0543257484   -3.1378569711    0.6124589655
 H    0.7118068665    2.0225736401    0.1497064870
 H   -0.8286571427    1.8754076013   -0.7134158058
 H   -0.7621515792    1.6288005151    1.0432664501
 H   -0.9170774252   -0.5663367285   -0.2284452108
 H    1.8390136230    0.2351993345   -1.3546575769
 H    1.7490356953   -0.1086331802    1.2591823296
 H    0.5052083238   -0.8878224276    3.2845229611
 H   -0.9937784381   -1.1361556246    2.2809638497
 H    1.7633707019   -2.4648958110    1.7996838379
 H   -0.9290994049   -2.7765795293    0.2995882273
 H    0.6004837395   -3.4268755785   -0.2914729639
 H   -0.1060565719   -4.0408326780    1.2115370435