19

 C    0.4362686554   -0.2641759382   -1.7633626491
 C    0.1712686409   -0.5487668346   -0.2803102246
 C   -1.2899250441   -0.8501465208   -0.0191377856
 C   -1.8666387767   -2.2647724988   -0.0160712295
 C   -0.9943969242   -3.4379002741   -0.2617036058
 O    0.1300457053   -3.6112980806    0.1585538651
 N   -1.8047365272   -1.4248230279    1.1938107176
 C   -0.9241210138   -1.7727478633    2.3074293409
 H    1.4813777370    0.0138571261   -1.9262325485
 H    0.2255892132   -1.1456731795   -2.3777031806
 H   -0.1889450111    0.5564417335   -2.1325442524
 H    0.7988404124   -1.3759195035    0.0559921018
 H    0.4460803398    0.3306779372    0.3170586473
 H   -1.9655484153   -0.1099753612   -0.4530648119
 H   -2.8758158137   -2.4000265873   -0.4014975696
 H   -1.4769926940   -4.2091952291   -0.9036134735
 H    0.0100071563   -2.2653986332    2.0242987517
 H   -0.7005482384   -0.8518086918    2.8548163921
 H   -1.4746834117   -2.4377479328    2.9794821645