16

 O   -0.2173152158    1.3405327365    0.0325631606
 C    0.0366994689   -0.0395921709   -0.0261102196
 C    0.7690010364   -0.4136357246   -1.2626033654
 N    1.3317001987   -0.7143349857   -2.2257081618
 C    0.7792918793   -0.5657709504    1.2018931389
 C   -0.0288899377   -1.0789885788    2.3923115633
 C    0.7075016032   -2.0483453662    1.5359335752
 C    2.0319811552    0.1473090430    1.5393104710
 O    2.4201559407    1.1453744131    0.9738668836
 H    0.6485208434    1.7669213513    0.1265572409
 H   -0.9417377496   -0.5312416998   -0.0797767297
 H    0.3534270680   -0.8662524566    3.3847951244
 H   -1.1065035627   -1.0038719295    2.3017342740
 H    0.1489554610   -2.6664334617    0.8416035627
 H    1.6041251623   -2.5169090476    1.9271827610
 H    2.6090601588   -0.2916117622    2.3825877110