17

 C    0.0209825970    1.5592528672    0.0342683681
 C    0.0313346029    0.0296456074    0.0131416713
 C    0.7860214971   -0.5773767219   -1.2007662851
 C    1.3281262795   -1.9486355476   -0.7307433207
 C    1.5038505153   -1.7702409051    0.7644979906
 O    2.1640764712   -0.5459294474    1.1239702506
 C    0.7305054533   -0.6049836658    1.2046834747
 H    1.0435350598    1.9440779658    0.1031915975
 H   -0.4342916682    1.9643402908   -0.8753830497
 H   -0.5440643483    1.9447768321    0.8896451473
 H   -1.0054110930   -0.3372167074    0.0190113261
 H    0.1477082829   -0.6583993874   -2.0841735719
 H    1.6229307863    0.0756396788   -1.4616541329
 H    0.6003119944   -2.7511685151   -0.9050081612
 H    2.2551693266   -2.2324438059   -1.2386751329
 H    1.7158952572   -2.6178541565    1.4118270586
 H    0.3187184960   -0.5110149821    2.2074989195