18

 O    0.0497676606    1.3874622682    0.2665789456
 C    0.0479344104    0.0072329693   -0.0389317344
 C   -1.3522092363   -0.5123048949   -0.0300742625
 C   -2.4538340537    0.1797976298    0.2532071899
 C   -3.7052321952   -0.6682013569    0.0934803406
 C   -3.1360033732   -2.1190151247    0.0162194730
 C   -1.6618936690   -1.9423132347   -0.4162477532
 C   -4.6844206709   -0.4928999081    1.1678407973
 N   -5.4570033123   -0.3580816362    2.0171317665
 H    0.9625217748    1.6840637603    0.3193449245
 H    0.4975654015   -0.1905322753   -1.0288934958
 H    0.6461916281   -0.5705595199    0.6880120237
 H   -2.4870947055    1.2270665715    0.5192430253
 H   -4.2167224162   -0.4044865613   -0.8439993582
 H   -3.1791448393   -2.5675965032    1.0116440505
 H   -3.7149018010   -2.7530577109   -0.6580319085
 H   -1.5342385789   -2.0833132668   -1.4988664918
 H   -0.9996653837   -2.6692175162    0.0681607475