17

 N   -0.1641418572    1.5103088303    0.0338914726
 C    0.0463361900    0.0683246762   -0.0278852509
 C   -1.2137665334   -0.6484485859    0.2322191174
 N   -2.1867304432   -1.2489282114    0.3979795200
 C    0.6753940807   -0.4408725462   -1.3240508169
 N    1.2367101165    0.3504350738   -2.1530202166
 C    1.8120558408   -0.5059402090   -3.2078807500
 C    1.2166858968   -1.9227084955   -2.9724495981
 N    0.7524280182   -1.7994571119   -1.5806895711
 H    0.7073174894    1.9445335453   -0.2631315728
 H   -0.8364926162    1.7696872102   -0.6841419944
 H    0.7322696073   -0.2101205632    0.7854225918
 H    1.5816693954   -0.1059368660   -4.1987851070
 H    2.9042613470   -0.5108137909   -3.1039623535
 H    0.3800184808   -2.1313829548   -3.6521408760
 H    1.9534180722   -2.7227752803   -3.0781292769
 H   -0.0136608050   -2.3835691308   -1.2748774474