18

 C   -0.0071029714    1.4019160641   -0.1110178027
 O    0.1510049709    0.0045545745   -0.0507033351
 C   -1.0639846148   -0.6714792017   -0.0152828684
 C   -0.8451652322   -2.1756241525    0.0269462019
 N    0.3026806743   -2.6948185551   -0.0440391111
 N   -2.0874135790   -2.8459045390    0.1330230072
 C   -2.2680888960   -4.2201277844    0.2007930626
 N   -3.5973521009   -4.5922835957    0.3198238016
 O   -1.3603610614   -5.0284556034    0.1992076838
 H    0.9938318587    1.8376144530   -0.1362025006
 H   -0.5551815256    1.7143303014   -1.0146153698
 H   -0.5443345115    1.7930264115    0.7682113702
 H   -1.6620310141   -0.3749793877    0.8695331374
 H   -1.6846775062   -0.4311382862   -0.9005424098
 H    0.2325619306   -3.7122908012    0.0050521517
 H   -2.9013259211   -2.2683525119    0.2786457244
 H   -4.3055290321   -4.0149807316   -0.1073931726
 H   -3.7356989682   -5.5835143741    0.1930298192