18

 C   -0.1190159407    1.5171950977    0.0572168397
 C    1.2906233644    2.2168598266   -0.0089726215
 N    2.1518376541    1.6766161421   -1.0925226515
 C    3.1624950503    0.6016660093   -0.8606510968
 C    2.8031877216   -0.1311407840   -2.1111635327
 C    2.4579392895   -0.8250717593   -0.8144553905
 C    1.0427276928   -0.3294132165   -0.8334555233
 C    0.1956685970    0.0416752730    0.1276560752
 C    1.4591776113    0.6480489224   -1.9422643639
 H   -0.6843007446    1.8764744536    0.9209089306
 H   -0.6899285859    1.7928114542   -0.8367797248
 H    1.1589943638    3.2920582468   -0.1815064445
 H    1.7955496925    2.0996529068    0.9564913196
 H    4.1318110027    0.7906415434   -0.4145792119
 H    3.3828057430   -0.4123004003   -2.9777199849
 H    2.9309755494   -1.6642446585   -0.3222606162
 H    0.1136054776   -0.4898095393    1.0718255971
 H    0.7892412712    0.9956273720   -2.7269964498