16

 O   -0.1212168244    1.4699168862   -0.1003435984
 C   -0.0217047278    0.0735168170   -0.0861221065
 C   -1.3231562893   -0.7022263777   -0.0874066187
 C   -0.7439937756   -1.7641966004   -0.9482114198
 N   -1.8130384469   -0.8946491299   -1.4934658973
 C   -0.8065053837   -0.1887140688   -2.3504991157
 C    0.3226357848   -0.6892490973   -1.4216415535
 C    1.6786005810   -0.8754894845   -1.8369489818
 C    2.8225457507   -1.0216180992   -2.1823339608
 H    0.7656016938    1.8407179228   -0.0404464474
 H    0.6318742516   -0.2891793853    0.7174135469
 H   -2.0610097103   -0.7782790417    0.6993451985
 H   -0.7601067144   -2.8443180537   -0.9104002895
 H   -0.7878040872   -0.6657333388   -3.3319570159
 H   -0.9368329282    0.8931987018   -2.4367222061
 H    3.8290744857   -1.1556190006   -2.4931048742