16

 C   -0.4747727856    1.4955872744    0.0822543708
 C    0.1453950872    0.1058514455   -0.0273047818
 C    1.0570009348   -0.1548720342   -1.2402484268
 C    2.0714739313   -1.2138567687   -0.7935725060
 O    2.7583281040   -1.8760640353   -1.5254631867
 C    2.0669652754   -1.2827943895    0.7346005672
 C    1.0188560138   -0.2680926429    1.1829213769
 O    0.8992293131    0.1849469206    2.2913514444
 H    0.2990684030    2.2696307254    0.0461812745
 H   -1.1782455662    1.6799871142   -0.7344807473
 H   -1.0042727113    1.6000101784    1.0321133333
 H   -0.6587115616   -0.6473302477   -0.0349227606
 H    0.5402924874   -0.4705363236   -2.1491198554
 H    1.6253761042    0.7515881208   -1.4933812579
 H    1.7848556426   -2.2913795279    1.0612501079
 H    3.0522977080   -1.0803179693    1.1640445173