18

 O   -0.7071085108    1.0045581800   -1.3978393980
 C   -0.0832784187    1.6685228500   -0.6050791863
 C    1.3406245613    2.1407604319   -0.8929270742
 N    2.1717234071    2.0878885757    0.3015338223
 C    2.9338781079    0.8570982668    0.5065035940
 C    3.6147709229    2.1136804340    0.0891345029
 C   -0.6761603985    2.0926642706    0.7164217288
 O   -2.0990790110    2.2195858707    0.7345121667
 C   -1.5356667930    1.1317390870    1.4406895078
 H    1.7276717738    1.5519138659   -1.7391659540
 H    1.2762352842    3.1890602516   -1.2192367636
 H    2.9999850838    0.5088362986    1.5328401467
 H    2.8387804143    0.0703213780   -0.2397131950
 H    3.9773275775    2.1659284225   -0.9359307721
 H    4.1853148130    2.6974637365    0.8054522115
 H   -0.1280713436    2.8396349093    1.2834572127
 H   -1.7030837281    0.1534345969    0.9939380507
 H   -1.5854236121    1.1872406739    2.5272574191