16

 O   -0.0954929058   -0.2166191427   -0.0648400734
 C   -0.0760021960    0.9882374438    0.0573989427
 N    1.0401972640    1.7694834943   -0.0319509740
 C    2.3561229873    1.2273033507   -0.1829321654
 C    3.2379425144    1.6791617738   -1.3679199228
 O    4.3353025519    1.9863019825   -0.4800456860
 C    3.5109507291    1.8198620080    0.6965864771
 C    3.2018293940    3.0745649236    1.3666984262
 C    2.9063290220    4.1122295798    1.8988699703
 H   -0.9832846392    1.5936155895    0.2476309951
 H    0.9560036577    2.7558227196    0.1674729786
 H    2.2748904962    0.1451966287   -0.0934082841
 H    3.5062023794    0.9158721927   -2.1048257478
 H    2.8628171619    2.5724540894   -1.8842580930
 H    3.9654459812    1.1145191511    1.4013868729
 H    2.6805993720    5.0279032054    2.3885892736