23

 C   -1.4163001264   -0.0115350110   -0.1191647741
 C    0.1009839842   -0.1570474952    0.0504800488
 C    0.8152997167   -0.7130744839   -1.1726412244
 C    0.7506299626    0.1499552918   -2.4357157199
 C    1.3378534173    1.4783247150   -2.2694914573
 C    1.8215530609    2.5706245040   -2.1156571991
 C    2.4080414940    3.8924689593   -1.9427062074
 C    2.0798902839   -1.5032544168   -0.9527967940
 C    0.8113452354   -2.2094423185   -1.3754238027
 H   -1.6689954717    0.7174563780   -0.8956978554
 H   -1.8778811974   -0.9663252245   -0.3934830627
 H   -1.8804240198    0.3306862022    0.8110557938
 H    0.5370009377    0.8172471731    0.3028826148
 H    0.3060814384   -0.8182266201    0.9011071022
 H    1.2644652710   -0.3766752754   -3.2501437871
 H   -0.2935981346    0.2507796590   -2.7606807419
 H    3.0056979660    4.1805941599   -2.8148613523
 H    1.6365134759    4.6582241406   -1.8042735734
 H    3.0663752541    3.9255139634   -1.0673731099
 H    2.8779675527   -1.4069930554   -1.6816420641
 H    2.4271837707   -1.6414717808    0.0657894398
 H    0.2978654370   -2.8206041503   -0.6402121348
 H    0.7543244614   -2.5968453545   -2.3876745189