19

 O   -0.1024174162    0.5408227328   -0.3649062649
 C    0.1061135805    1.6864400369   -0.0450174171
 N    1.2961789005    2.1460456343    0.4966847621
 C    2.6089630495    1.7423732703    0.0566157006
 C    2.1575997052    3.1734941735   -0.0564398024
 C    1.8559332708    3.7688969907   -1.4125120342
 N    0.7590455998    4.7277421114   -1.3231885840
 C    1.1270932778    6.1097977573   -1.0223315922
 C    0.6807541262    5.7213971212   -2.3880880551
 H   -0.6533744956    2.4864768533   -0.0887072867
 H    3.3114814684    1.4575909554    0.8346846966
 H    2.6610553735    1.1499850794   -0.8539962020
 H    2.5302617516    3.8846951368    0.6797825194
 H    2.7799067583    4.2254368241   -1.8141298984
 H    1.5564365762    2.9737527175   -2.1058894767
 H    0.4594909486    6.6419268830   -0.3515386887
 H    2.1837580354    6.3405661924   -0.8935722430
 H    1.4391838766    5.6926907329   -3.1689191787
 H   -0.3197941570    5.9636593270   -2.7332928145