23

 C   -0.2306117318    1.5343003903   -0.0203897338
 C   -0.0196528450    0.0183668409   -0.0105159625
 C    0.7278644033   -0.4904839790   -1.2474844514
 C    0.9137653054   -2.0127856765   -1.2504508891
 O   -0.3617072532   -2.6612556859   -1.1999377547
 C   -0.4918067051   -3.5902621971   -2.2722479337
 C    0.7778339652   -3.4560399772   -3.0593938710
 C    1.5875854016   -2.5690744767   -2.4874149081
 C    2.9593671946   -2.1510950879   -2.9100807034
 H    0.7247415258    2.0705844077   -0.0561242193
 H   -0.8157872721    1.8471843389   -0.8924815695
 H   -0.7653273036    1.8679717734    0.8745696671
 H    0.5384693134   -0.2696497457    0.8906463198
 H   -0.9846939032   -0.4954193272    0.0493265174
 H    0.1852034656   -0.2045899823   -2.1581231613
 H    1.7168944686   -0.0152282752   -1.3019676539
 H    1.4869166481   -2.2904081042   -0.3459830894
 H   -0.6311042036   -4.6089186531   -1.8736859199
 H   -1.3910463935   -3.3525043441   -2.8622282850
 H    0.9827779726   -4.0280898422   -3.9563998730
 H    3.2894508866   -2.7028375997   -3.7939018247
 H    3.0004088907   -1.0806170509   -3.1441423893
 H    3.6888776995   -2.3238270164   -2.1085665312