15

 C   -0.0056762917    1.3735660956    0.0822141092
 N    0.0049387685   -0.0726905998    0.0558343977
 N   -0.0669274061   -0.7666073035   -1.0719232682
 N   -0.0299015053   -2.0261936419   -0.7264228985
 C    0.0650915932   -2.0521949198    0.6366439085
 N    0.1312160653   -3.1704870674    1.4334905331
 C    0.0744093507   -4.3155662739    0.8537108996
 N    0.1698900286   -5.4662225043    1.5555455001
 N    0.0893224613   -0.8198863892    1.1515470044
 H    0.9162540767    1.7441975249    0.5361591114
 H   -0.0819689283    1.7163595577   -0.9490634516
 H   -0.8603392968    1.7287458633    0.6625334404
 H   -0.0321006711   -4.4437784918   -0.2269269526
 H   -0.0169351584   -6.3500571145    1.1185928746
 H    0.1871036734   -5.4188710654    2.5618411820