18

 O   -0.0293142941    1.2552484536   -0.1445658407
 C   -0.0522246481   -0.1384692203   -0.0247838864
 C   -0.4937119351   -0.6923056449    1.3061110679
 C   -1.4382270952   -0.6994338665    0.0838557543
 C   -1.3721038210   -2.2063818560    0.0541222832
 C   -2.4543034461   -3.1449556802   -0.3005781705
 N   -1.2200408278   -3.0711372644   -1.1086685634
 C   -0.4455143309   -2.2281340308    1.2924585479
 O    0.7920773277   -2.8613097976    1.0689784103
 H    0.7709088870    1.5757877976    0.2843580678
 H    0.7045942890   -0.6696912606   -0.6019603785
 H   -0.5514609465   -0.0565959999    2.1813319628
 H   -2.3055112203   -0.0776359748   -0.1009762366
 H   -2.5783570173   -4.0708117598    0.2560282828
 H   -3.3763037539   -2.7315514026   -0.7035219477
 H   -1.3835688233   -2.5376637529   -1.9599017921
 H   -0.9633951140   -2.6533628721    2.1640645217
 H    1.3161093300   -2.7833100475    1.8727743374