17

 C    0.0506960392    1.3326471123    0.0060178129
 O    0.0247029770   -0.0830093690    0.0033043677
 C   -1.2110933733   -0.6268821877    0.0112704750
 C   -2.4462427109   -0.0505361850    0.0216863465
 O   -3.4128277028   -1.0138975136    0.0267379686
 C   -2.7837680925   -2.2249310263    0.0193473228
 C   -1.4320190060   -2.0501223747    0.0097487605
 O   -0.4192432629   -2.9430089250    0.0002467683
 C   -0.8236217561   -4.2999324724    0.0000175004
 H    1.1005276225    1.6276909654   -0.0012328465
 H   -0.4509683175    1.7389923549   -0.8829809890
 H   -0.4376104975    1.7353241151    0.9040745223
 H   -2.7898143599    0.9686219595    0.0265385698
 H   -3.4201336382   -3.0919837391    0.0222123072
 H   -1.4112976459   -4.5374979875    0.8974004503
 H   -1.4245761676   -4.5332380473   -0.8896591298
 H    0.0873704125   -4.8993299598   -0.0081922769