17

 N    0.0351854125   -1.1747984523    0.0484503010
 C    0.0156643447   -0.0194690653    0.0281807511
 C   -0.0100358641    1.4476491650    0.0286063792
 C   -0.7540327939    2.0469382389    1.2370783557
 C   -0.2895128161    1.7105876846    2.6276706787
 C    0.2368713938    2.9484525134    1.9444454847
 C    1.5263594596    2.8908054276    1.1567541242
 C    2.2887524626    1.6232990199    1.0365234632
 N    1.3624715852    2.0245188544   -0.0372666231
 H   -0.5245550037    1.7660309931   -0.8849514096
 H   -1.7871665981    2.3343257797    1.0802956241
 H   -1.0086832164    1.8595815180    3.4260668305
 H    0.3579626804    0.8562476192    2.7839174700
 H   -0.0639967717    3.9185809703    2.3211668933
 H    2.0284776175    3.8387047804    0.9856051280
 H    3.3340211006    1.6436613597    0.7407525327
 H    2.0292750170    0.7834389531    1.6721788464