17

 C   -0.0281785249   -1.1806478806    0.1132900926
 C    0.0073976446    0.0199848125    0.0603599330
 C    0.0181726944    1.4521221622   -0.0483507630
 C   -0.9792212506    2.1184878657   -1.0139565491
 N   -0.3251502835    3.2766775029   -1.6613446484
 C   -0.0274459442    4.4354220090   -0.8149432411
 C    1.0242655266    3.4163936596   -1.0703967751
 C    1.2593655331    2.3087543733   -0.0696102525
 N    0.4512682804    2.2124856686    1.1428047825
 H   -0.0495898097   -2.2405903440    0.1733575868
 H   -1.2480906057    1.4018176996   -1.7949590632
 H   -1.9052382058    2.4206053055   -0.5108649267
 H    0.0012352220    5.3839501610   -1.3455495679
 H   -0.4740635817    4.5085817883    0.1745342631
 H    1.8407953146    3.6315074618   -1.7541276460
 H    2.2559404272    1.8866085180    0.0037441712
 H   -0.1287410868    3.0337905666    1.2870610736