16

 O    0.0862843215    0.2548337568   -1.1279107204
 C    0.0192976184    1.2177172380   -0.4270521772
 C   -1.1007019849    1.9377671785    0.3402617911
 N   -0.1320184984    3.0106266791    0.6854755615
 C    0.1182030385    3.2839138248    2.0922070880
 C    1.4097782782    2.5435384904    2.4862394831
 O    1.9189874643    2.5520267429    3.5729536238
 C    1.9403044313    1.7977083813    1.2487907073
 C    1.0330025707    2.2500429619    0.0972241166
 H   -1.9575611590    2.2715334557   -0.2543366529
 H   -1.4753604135    1.3513613877    1.1935885033
 H    0.2614137233    4.3554209699    2.2842447518
 H   -0.7055650485    2.9544062201    2.7358948502
 H    2.9971754085    2.0285406560    1.0987550929
 H    1.8745056187    0.7212237239    1.4427002513
 H    1.5736920007    2.8011761331   -0.6783155203