18

 C   -0.2099637054    1.5659131374    0.0323155238
 C    0.0368311652    0.0617200491   -0.0297607326
 C    0.9019832852   -0.5211137536   -1.1974714981
 N    1.2679785248   -1.8741506967   -0.6950800741
 C    1.9315310852   -1.3908881782    0.5404735491
 C    2.8904417281   -0.3687664873   -0.0568529070
 C    2.2718209100    0.1485132087   -1.1197764849
 C    0.8370309643   -0.4886883626    1.1763374823
 O    0.6431319030   -0.2629661086    2.3413671871
 H    0.7297229011    2.1226894238   -0.0314587985
 H   -0.8625807369    1.8968501399   -0.7818999027
 H   -0.6871014620    1.8255481818    0.9818579279
 H   -0.9318015039   -0.4577900337   -0.0298927141
 H    0.4166695852   -0.5370413590   -2.1737158260
 H    0.4225436054   -2.3944535916   -0.4564094464
 H    2.3422586950   -2.1596911346    1.1916687239
 H    3.8362598534   -0.0874874240    0.3835590869
 H    2.6102628123    0.9443022991   -1.7684899765