14

 C   -0.0007645387    1.5460084916    0.0133395628
 C    0.0426536635    0.0432490798   -0.1328287547
 C    0.6874488588   -0.7128651956   -1.2185104706
 C    1.9573035835   -0.0523161009   -1.7499031125
 C    2.4104727488   -0.0472670991   -0.2805888200
 O    3.3826890710    0.3027848937    0.3110176226
 N    1.2547376363   -0.7760282603    0.2163617583
 H    0.8541821534    2.0483521196   -0.4440655938
 H   -0.9121393450    1.9341173084   -0.4531210811
 H   -0.0215798306    1.8197514358    1.0726654615
 H   -0.8334694562   -0.4492653093    0.2842537028
 H    0.2412795373   -1.6021262653   -1.6480278004
 H    2.5768824745   -0.7272035436   -2.3461177776
 H    1.8766866834    0.9075974851   -2.2652038873