21

 O   -0.1467046186    0.3752729351    2.0287487891
 C   -0.2305918582    0.4642920253    0.6120883416
 C   -1.3141574144   -0.4260578112    0.0282970578
 C   -1.4603710451   -0.4840155073   -1.5182327134
 C   -1.5992827242   -2.0332085253   -1.4532617361
 C   -0.5686000021   -2.8570658535   -2.2485304179
 C    0.5928703462   -2.9605389654   -1.2850973246
 C    0.3002937326   -2.4968112787   -0.0685030209
 C   -1.1128365638   -1.9830418394    0.0357835651
 H    0.0657553923   -0.5370123312    2.2494918525
 H   -0.4534206234    1.5150847915    0.3937785734
 H    0.7374197078    0.2327174629    0.1396553774
 H   -2.2669641695   -0.1766068068    0.5062579406
 H   -2.2987072545    0.0688175658   -1.9482566540
 H   -0.5455777760   -0.1760897829   -2.0357887059
 H   -2.6267115428   -2.3725756411   -1.5933726145
 H   -0.9427625337   -3.8534542091   -2.5218537806
 H   -0.2902382385   -2.3657042041   -3.1902627632
 H    1.5472172318   -3.3911973244   -1.5705018928
 H    0.9921104093   -2.5046299289    0.7689282743
 H   -1.6930454752   -2.5204020013    0.7939835521