18

 N    0.0231481604   -1.1879212126   -0.2342311091
 C   -0.0263553088   -0.0563993590   -0.0050113924
 C   -0.0605098303    1.3790170487    0.2726078871
 C    1.3120285883    2.0302031171    0.0734627712
 C    1.9508618505    2.2604066537   -1.3204228485
 C    0.8950513101    3.0505644172   -2.1211526158
 C    0.5446220610    4.0959319307   -1.0137166027
 C    1.5114309656    3.5678919506    0.0675688571
 O    2.7272514236    3.3388702751   -0.7081923297
 H   -0.8217691362    1.8344488149   -0.3679256215
 H   -0.3927051482    1.5245304648    1.3074742618
 H    2.0529953974    1.5745160263    0.7321307220
 H    2.5513203797    1.5069338825   -1.8280764152
 H    1.3420033348    3.5079497349   -3.0051908481
 H    0.0465242599    2.4406970276   -2.4432067846
 H    0.8058487626    5.1162045821   -1.2993352972
 H   -0.5050568084    4.0849333168   -0.7066355392
 H    1.6628667680    4.1501714685    0.9764312148