20

 C   -0.0410678113    1.5666675516   -0.0203820629
 C   -0.0347118446    0.0347820291    0.0284073786
 C    0.7379894498   -0.4907371035    1.2398485445
 O    2.0832114147   -0.0576659906    1.1201160649
 C   -1.4488157391   -0.5393531899    0.0274653415
 O   -2.0912168528   -0.1556503864   -1.1796323660
 C   -3.4156065560   -0.6123862221   -1.2512122833
 C   -4.0109008970   -0.1778522286   -2.5189594023
 N   -4.5085671554    0.1489685351   -3.5079164612
 H    0.9815167037    1.9483969436   -0.0251738087
 H   -0.5595555180    1.9232906053   -0.9127665931
 H   -0.5532716143    1.9802736047    0.8576074108
 H    0.4725629300   -0.3464393442   -0.8670602368
 H    0.2777800705   -0.1085493942    2.1668855927
 H    0.6793979261   -1.5912276579    1.2727748790
 H    2.5592308072   -0.3254444367    1.9111953949
 H   -1.4251752625   -1.6394943468    0.1025465195
 H   -2.0216449782   -0.1617376705    0.8924592302
 H   -3.4715118026   -1.7126146591   -1.1977104547
 H   -4.0286340601   -0.2181294088   -0.4235180476