19

 C    0.3838930910    1.5775419591   -0.4073894535
 C    0.2506636467    0.1486326634   -0.1648640303
 C    0.1371087704   -1.0342537338    0.0331820592
 C   -0.0101376530   -2.4499660090    0.2835416387
 C   -0.2975824913   -2.9562033080    1.7310864402
 C   -1.2263635107   -4.0431103131    1.1386571559
 C   -1.3175239559   -3.2172137563   -0.1896200962
 C   -2.5084992240   -2.3997373449   -0.2950724008
 C   -3.5056263692   -1.7319113041   -0.3725017003
 H    1.3005769102    1.8066191867   -0.9623330676
 H   -0.4609174392    1.9596402579   -0.9912362176
 H    0.4165550299    2.1402121178    0.5323836587
 H    0.8480489569   -2.9954823045   -0.1249027787
 H    0.5629281005   -3.2781435143    2.3206744025
 H   -0.8590820950   -2.2084171351    2.2948572826
 H   -0.7062619048   -4.9901774235    0.9729336220
 H   -2.1689670512   -4.2372895443    1.6507019245
 H   -1.1814149893   -3.7923583784   -1.1098506066
 H   -4.3823025719   -1.1378948858   -0.4468541028