16

 O    0.0449852747   -0.0236776471   -0.2466533172
 C    0.0384925270    1.1642652783   -0.0535930787
 O   -1.1939052443    1.7922245637    0.0635706589
 C   -1.2923325085    3.1060261001    0.6338213752
 C   -0.2886505063    4.0024364889   -0.0658374510
 C    0.4467996318    5.2194153488    0.5864292317
 N    1.7193702416    4.5128799679    0.2700939246
 C    1.0512504382    3.3282857495    0.0337941547
 C    1.2373001960    2.0026900274    0.0816340842
 H   -2.3319709501    3.4101120091    0.4907932386
 H   -1.0848122458    3.0601117515    1.7119573906
 H   -0.5923098341    4.2082668956   -1.0955048902
 H    0.3380355616    6.1923444451    0.1023695798
 H    0.2578888843    5.3120932790    1.6621040353
 H    2.5636962923    4.5820520855    0.8228371370
 H    2.1832571218    1.5022247568    0.2384572864