18

 C   -0.1446746148    1.5757346210    0.0146145540
 C    0.0201000795    0.0627834521    0.0250640813
 C    1.2256129713   -0.6091873565   -0.6860795246
 C    2.1481394304   -0.2174480995    0.5028956348
 O    3.1320522083   -1.2418089706    0.7078879565
 C    2.3969810136   -2.3940034813    0.5205873392
 N    2.8151781839   -3.5802248157    0.5943388327
 C    1.0232218329   -1.8830495176    0.2180026774
 C    0.8059685641   -0.6421302010    1.1635027822
 H    0.7859406506    2.1064374669    0.2353984441
 H   -0.4967207762    1.9179787309   -0.9644920143
 H   -0.8875728272    1.8872989690    0.7567366748
 H   -0.9332768357   -0.4268179588   -0.1999647907
 H    1.4812690160   -0.6067955464   -1.7465931944
 H    2.6000555970    0.7626676174    0.6228832253
 H    3.8117717439   -3.5955764078    0.8201758195
 H    0.2253668140   -2.5947045152    0.0243060881
 H    0.5790494182   -0.6776265268    2.2299465141