19

 C   -0.0212165338    1.4803764168    0.0151764321
 C    0.0074176401   -0.0153099533    0.0018827236
 C    0.0664230421   -0.8154341192   -1.0706507517
 C    0.0210511164   -2.2915525830   -0.7099749889
 C    1.1634105148   -3.0760289524   -1.3357497173
 O    1.0322238426   -3.9023947357   -2.2016943681
 C    0.0748634009   -2.2681678915    0.8229638708
 C    1.2535143730   -1.6220417263    1.5126009380
 C   -0.0053833395   -0.8165407945    1.2645788816
 H    0.8356595815    1.8866856975    0.5668480353
 H   -0.0073552858    1.8941652736   -0.9962571780
 H   -0.9212417193    1.8502008018    0.5222022744
 H    0.1409952140   -0.4783915167   -2.0985701729
 H   -0.9039486178   -2.7579957651   -1.0708533432
 H    2.1689291206   -2.8212671541   -0.9319459716
 H   -0.4519267989   -3.0456954033    1.3622722075
 H    1.4514152487   -1.9496791499    2.5279206045
 H    2.1377273058   -1.3556098526    0.9444209417
 H   -0.6044075153   -0.4936673321    2.1094748220