15

 O    0.0998757048    1.3167522498    0.1678910193
 C    0.0697945491   -0.0317672627    0.0454516916
 N    0.0569764252   -0.6547876971   -1.1185000986
 N    0.0268938217   -1.9667806437   -0.7783933190
 C    0.0210338473   -2.1773831740    0.5630071288
 C    0.0486370654   -0.9226870675    1.1433577508
 N    0.0558326120   -0.5283879964    2.4805849430
 C    0.0362376088   -1.3576504624    3.5643128299
 N    0.0077187570   -2.6324614343    3.4651336160
 H    0.1101095914    1.6865483786   -0.7232950495
 H    0.0132998801   -2.6567736141   -1.5070748307
 H   -0.0011835978   -3.1505042447    1.0178722652
 H    0.0787173811    0.4640969373    2.6432482066
 H    0.0479703227   -0.7929193918    4.5037121649
 H   -0.0027221190   -3.0528391170    4.3907954318