19

 C    0.0304494425    1.5211757755    0.2977702690
 C   -0.0253583967    0.0512493686   -0.1395288184
 C   -1.4217632364   -0.5277782469   -0.1063274759
 C   -2.0064873863   -1.0965354149    1.1507956263
 C   -1.7176753886   -2.0091945039   -0.0325379159
 C   -2.8960574820   -2.2596217793   -0.9154380499
 O   -3.3968665265   -3.2997215421   -1.2291538868
 O   -3.3812078899   -1.0553668037   -1.3579401328
 C   -2.4651630423    0.0140229544   -1.0800272642
 H    1.0578521307    1.8957880770    0.2750620459
 H   -0.5672104263    2.1595794581   -0.3616827773
 H   -0.3519872351    1.6440020282    1.3161947914
 H    0.3822147785   -0.0472221928   -1.1541996844
 H    0.6217128116   -0.5488883008    0.5109708124
 H   -1.3438182076   -1.2082299085    2.0022426511
 H   -3.0421032078   -0.8935318647    1.4056040395
 H   -0.9661758112   -2.7828982956    0.0474446583
 H   -3.0407777494    0.8543324329   -0.6800143293
 H   -1.9986837172    0.3257421183   -2.0230033491