19

 O    0.1288890821   -0.1628289970    0.1785654697
 C    0.0759148301    1.0395437396    0.1129112478
 C    1.2832466114    1.9447799154    0.0591313125
 C    1.2552159582    2.9406396215   -1.1557666319
 C    1.3695953218    4.3283419083   -0.4791330465
 C    0.0604380356    4.5821907626    0.2818021690
 O    0.0981025498    3.6229620406    1.3600455266
 C    1.3557266814    2.9413082535    1.2511993122
 C    2.3005935001    4.0221491213    0.7126861023
 H   -0.8998703881    1.5713961738    0.0827372992
 H    2.1705936074    1.3063067845    0.0436590993
 H    2.0947397398    2.7475622517   -1.8279885534
 H    0.3370467188    2.8512932392   -1.7464080876
 H    1.6623558035    5.1395591091   -1.1463765257
 H    0.0039985904    5.5959974525    0.6987728727
 H   -0.8316457346    4.4090556720   -0.3322990866
 H    1.5843516373    2.4882551847    2.2158499905
 H    3.2816219467    3.6414397226    0.4182843717
 H    2.4191179184    4.8565092542    1.4087098681