16

 C   -0.0168369923    1.5683787964    0.0101429724
 C   -0.0128627498    0.0692998405    0.0487366889
 C   -1.2479916940   -0.8313715601    0.0982654200
 O   -0.5501904575   -1.7996839804    0.9307846142
 C    0.5837936944   -0.9350820302    0.9882974250
 C    1.2125994545   -0.7647967013   -0.3816196665
 C    1.2028324671   -1.8349974338   -1.4065531235
 O    2.0471966577   -1.9433302936   -2.2652701871
 H    0.9651810760    1.9719694225    0.2736153955
 H   -0.2689487946    1.9398386688   -0.9895384854
 H   -0.7489473203    1.9760380426    0.7161077631
 H   -2.0721881779   -0.3753293289    0.6589694509
 H   -1.6293310956   -1.2652771480   -0.8315623806
 H    1.1300864574   -0.8626215639    1.9220452535
 H    2.1224977178   -0.1706020983   -0.3855318230
 H    0.3676447271   -2.5597809324   -1.3289580473