17

 C   -0.0669179013    1.4559500459    0.2791990695
 C    1.2375729998    0.7781897047    0.0817845343
 C    1.9834454239    0.3198794049    1.3356580282
 N    2.2172192499    1.3963416478    2.3163221980
 C    1.4243265929    1.1596499550    3.2766490271
 O    0.6313735736    0.0589586672    3.2511268577
 C    0.9982935728   -0.6581511134    2.0432786704
 C   -0.1701836393   -0.8827043877    1.0662086908
 N   -0.0298544272    0.0333658442   -0.0808162049
 H   -0.3530308250    1.7337953832    1.2902824383
 H   -0.4586231375    2.1102567992   -0.4942436426
 H    1.8154647213    0.9558326277   -0.8196410341
 H    2.9349716999   -0.1428979095    1.0642525724
 H    1.2983145417    1.7799998448    4.1574578934
 H    1.4483441248   -1.6001738211    2.3653908016
 H   -0.1291360949   -1.9061603731    0.6794665841
 H   -1.1370344054   -0.7507035698    1.5605156057