19

 C    0.0116524276    1.5533270099    0.0026926408
 C    0.0804519125    0.0534938129   -0.0043007165
 C    0.5943242469   -0.9307622244   -1.0396277382
 C    1.2574737361   -1.7839471014    0.0479861402
 C    0.7146796977   -0.7821667892    1.1238289049
 O    1.7223929617   -0.0141902797    1.7481505869
 C   -0.9054967295   -0.7910676872   -0.8091332904
 C   -1.7822844498   -1.8516870463   -0.2613218412
 O   -2.9280068022   -2.0164625591   -0.6105235660
 H    0.9663207743    1.9752979664    0.3270332400
 H   -0.2190040881    1.9384184375   -0.9953780109
 H   -0.7654229755    1.9111815597    0.6876010337
 H    0.9961290532   -0.7399993017   -2.0281175349
 H    0.9717036916   -2.8374294707    0.1179214554
 H    2.3463829437   -1.7080380574    0.0112067318
 H    0.0236762170   -1.1923487528    1.8730616622
 H    2.1717189919   -0.5736676017    2.3896292525
 H   -1.4097052608   -0.2145427562   -1.5801723166
 H   -1.3320409282   -2.5142223386    0.5085388263