16

 N   -0.0613773269    1.3181006868    0.4318035612
 C   -0.0254527946    0.1263539995    0.0130386369
 C   -1.3017946579   -0.6833799956   -0.1178824654
 C   -1.1579573269   -1.7890985410   -1.1437422758
 O   -0.5897792762   -1.2777139256   -2.3927819226
 C    0.5751959310   -2.0700842033   -2.2022752479
 C    1.2216523679   -1.7498661475   -0.8847784549
 O    1.1676102415   -0.4726863987   -0.2974177374
 C    0.0566441555   -2.6891881852   -0.9081376611
 H    0.8833599167    1.7055761734    0.4765550930
 H   -1.5556369821   -1.1246960254    0.8545838778
 H   -2.1022716284    0.0132030542   -0.3748502818
 H   -2.0926895193   -2.3177921332   -1.3452507526
 H    1.0717633163   -2.4716614922   -3.0779577746
 H    2.1964308647   -2.1921844627   -0.7111113613
 H    0.0547919987   -3.6948469234   -0.5097630034