15

 O    0.1775328710    1.3490734838   -0.1399861996
 C    0.0991002181   -0.0490790896   -0.0708152169
 C   -1.3873688390   -0.5323486083    0.0397507175
 C   -2.1476641673   -0.0526392775   -1.1171385551
 C   -2.7164161412    0.3889917801   -2.0790266657
 C   -1.4416901205   -1.9838979305    0.1867885732
 C   -1.4380493784   -3.1851339195    0.3056161086
 C   -1.4351742121   -4.6156559339    0.4879555362
 O   -1.7145967712   -5.4152216091   -0.3746725379
 H   -0.2851086090    1.6278768813   -0.9398098544
 H    0.5612876499   -0.5441528469   -0.9356364887
 H    0.6316174521   -0.3579096145    0.8320472342
 H   -1.7955999258   -0.0665407186    0.9472613841
 H   -3.2478964290    0.7544936592   -2.9234301310
 H   -1.1484585776   -4.9406636360    1.5085857456