12

 N   -0.0568930038    1.2147301790   -0.2719961947
 C   -0.0451376525   -0.0044907689    0.0057766875
 O    0.9769064633   -0.8465975473    0.4164440202
 C    0.0993360892   -2.0186605017    0.4401397852
 C   -1.0653819738   -1.1093647034    0.0502258501
 C   -2.4808196795   -1.0851197665    0.4176190928
 O   -2.0454905230   -1.3753059909   -0.9181306105
 H    0.8681188259    1.6369615562   -0.1807343852
 H    0.3900242346   -2.7492822036   -0.3184845246
 H    0.0716523159   -2.4720579762    1.4335439408
 H   -2.9057210526   -1.9255117993    0.9640325313
 H   -2.9753069636   -0.1248845175    0.5471692871