16

 C   -0.0881944662    1.3274273730    0.6594713829
 N    0.0812351822   -0.0914292729    0.9102947043
 C    1.1868051836   -0.7668347547    0.5119609539
 O    2.1034258569   -0.2859929934   -0.1262393474
 C    1.2034781675   -2.2696014963    0.8650997674
 C    0.6673637459   -2.6682698642    2.2151706258
 O   -0.3336271497   -2.2220614796    2.7383612419
 C    1.4422826810   -3.7439883153    2.9942734374
 O    2.4545230709   -4.2555343473    2.5992703839
 H    0.6896332062    1.6375551380   -0.0387351214
 H   -1.0705305074    1.5267108729    0.2197363251
 H    0.0078666535    1.9148252941    1.5801289583
 H   -0.5649692999   -0.5733854604    1.5193808668
 H    0.5843258615   -2.7833007682    0.1157359240
 H    2.2223923842   -2.6357068686    0.7412010101
 H    0.9586365299   -3.9951133272    3.9609413369