13

 N    0.0915345861    1.3652411408    0.1851199042
 C   -0.0623525662    0.0054845907    0.0659525610
 C   -1.2062709989   -0.7042202209    0.0310496995
 C   -1.1646219680   -2.1536936723   -0.0076928532
 N   -2.2233045114   -2.8702273589   -0.0324785292
 N    0.1381761833   -2.7375442629   -0.0248702681
 C    1.1463615268   -1.9777072371   -0.0032629879
 O    1.1606691998   -0.6116704599    0.0432333530
 H    0.9466259096    1.7304136212   -0.2088936300
 H   -0.7258326153    1.9097293358   -0.0443193257
 H   -2.1666246418   -0.2062348092    0.0392897343
 H   -1.9511535637   -3.8544911586   -0.0620813993
 H    2.1652135397   -2.3535971087   -0.0191765686