20

 C   -0.1366112177    1.5343622493    0.0208437423
 C   -0.0142221284    0.0159462657   -0.0160353167
 C    1.1060024932   -0.5516057700   -0.9825959701
 O    1.9459173315    0.4099062213   -1.5879636653
 C    1.8347736234   -1.1573976203    0.2419418928
 C    0.7476987188   -0.6139271191    1.1905574038
 C    0.4690364970   -2.0806410418    1.5644123452
 C    0.1777402168   -2.9458965649    0.4089107255
 N    1.5901350962   -2.5982215228    0.6624613307
 H    0.8367889579    2.0077218486    0.1750624834
 H   -0.5528665467    1.9269876358   -0.9143135559
 H   -0.8032556438    1.8448546619    0.8321594397
 H   -0.9977824267   -0.4319668301   -0.1930017615
 H    0.7484644432   -1.2781375743   -1.7250185845
 H    1.4443359644    0.8615850395   -2.2744232951
 H    2.8911861087   -0.9042967517    0.3209319408
 H    0.9837583622    0.0413980211    2.0287689674
 H    0.3683532464   -2.4374897742    2.5850679008
 H   -0.0195460890   -3.9936572134    0.6173223165
 H   -0.3430984773   -2.5737916405   -0.4675468999