18

 O   -0.1142265818    0.0375147375    0.2056385197
 C    0.0213916484    1.2134821838   -0.0345231539
 C    1.3031406058    1.9435106813    0.0041032313
 C    1.2687832281    3.4491826293    0.2314816915
 C    1.6519721455    2.9436078110   -1.1184602835
 N    3.0262507111    2.7392862630   -1.5503842672
 C    4.0958611421    3.0954883986   -0.6051691483
 C    3.6233703891    1.6915261171   -0.6858988949
 C    2.5867283991    1.1782921300    0.3153124099
 H   -0.8511269887    1.8459755391   -0.3228784900
 H    0.2845657953    3.9020943375    0.3136854361
 H    2.0016607420    3.8747952028    0.9055545272
 H    0.9613964701    3.1031504242   -1.9391866848
 H    5.0288897506    3.3809524082   -1.0833053574
 H    3.8603333646    3.6784330629    0.2797121896
 H    4.2413702206    0.9548963657   -1.1922725766
 H    2.9104937909    1.3021947869    1.3539181000
 H    2.3918928772    0.1136991613    0.1634019814