17

 C    0.0660008111    1.4745715680    0.0085453380
 N    0.1095054674    0.0260168422   -0.0892116502
 C    0.5799164140   -0.6467752086    0.8705353291
 O    1.0610820826    0.0024991429    2.0322477587
 C    1.5581900987   -0.7318739518    3.0429429990
 N    1.6614853030   -1.9997021170    3.1027901802
 C    1.2049786970   -2.7176798408    1.9871282431
 C    1.3444282420   -4.2036292462    2.0984914147
 C    0.6855162001   -2.0866081263    0.9124748586
 H    1.0659521131    1.9100847568    0.1393168589
 H   -0.3675625155    1.8800004283   -0.9083914963
 H   -0.5436248043    1.8130766337    0.8573393098
 H    1.8861892878   -0.0957785756    3.8607536644
 H    2.3949067608   -4.4724643854    2.2552152823
 H    0.7938902242   -4.5689373339    2.9724480619
 H    0.9751792589   -4.7123018106    1.2058338001
 H    0.3277098890   -2.6205632058    0.0418209178