17

 C   -0.0282167608    1.4013216954   -0.0833290336
 O    0.0171724444   -0.0094960306    0.0020189178
 C    0.6363365904   -0.5689718421    1.0765206086
 C    1.2359655155    0.1589702625    2.1099494975
 C    1.8390988925   -0.5354484072    3.1573987567
 C    1.8558864810   -1.9231642286    3.1941938634
 C    1.2518547862   -2.6369516228    2.1530591431
 O    1.2290823722   -3.9999302548    2.1212703274
 C    0.6449265394   -1.9653927817    1.0991917186
 H    0.9778197053    1.8377776231   -0.1296935503
 H   -0.5616702692    1.6321634895   -1.0070224879
 H   -0.5684126908    1.8421078883    0.7643982877
 H    1.2386372919    1.2401928870    2.1084795695
 H    2.3059058380    0.0235549206    3.9619561478
 H    2.3296056404   -2.4510570693    4.0167883979
 H    1.6795376911   -4.3365442359    2.9026306401
 H    0.1780189724   -2.5194222733    0.2944543857