25

 C   -0.0086419285    1.6008343349   -0.0090625616
 C    0.0230362679    0.0685837641   -0.0491724252
 C   -1.3686698391   -0.5710886168   -0.0674738587
 C   -2.2325302480   -0.2411117730   -1.3126257053
 C   -3.2937747724   -1.3412402362   -1.3596345029
 C   -2.9138525573   -2.6285824795   -2.0411934171
 C   -2.7771899466   -2.5081555041   -0.5416806532
 C   -1.4191747147   -2.1294413399    0.0721188466
 C   -0.2249197117   -2.8853003879   -0.5297108137
 H    1.0026608666    2.0159832805    0.0462154811
 H   -0.4880753993    2.0177777174   -0.9006378159
 H   -0.5643133563    1.9618572668    0.8640200960
 H    0.5924494344   -0.2581620280   -0.9285556387
 H    0.5759015240   -0.2992807978    0.8252608697
 H   -1.9217656650   -0.1794130299    0.7982602259
 H   -2.6850299610    0.7515392814   -1.2377461825
 H   -1.6199147922   -0.2374025861   -2.2244712214
 H   -4.3400212809   -1.0575066243   -1.3327350192
 H   -3.7130622635   -3.2620285339   -2.4127627712
 H   -2.0236259762   -2.6396236270   -2.6621764771
 H   -3.4560550670   -3.0998480167    0.0631697927
 H   -1.4453860643   -2.3794325844    1.1392986608
 H   -0.0647905522   -2.6460241968   -1.5856873902
 H    0.7026827596   -2.6525776730    0.0022913497
 H   -0.3866122663   -3.9658075196   -0.4602872185