17

 C   -0.3418515624    1.1296894882   -0.2214829757
 C    1.0801082979    1.1265629867    0.2812893696
 C    0.3610459839   -0.1730847301    0.0415504987
 N   -0.0244105833   -0.9282537388    1.1985497552
 C   -1.0860861706   -1.7865376787    1.1173341931
 N   -2.0053674397   -1.8568433358    0.2021856782
 C   -2.8474018924   -2.8678501183    0.6662942919
 C   -2.3820412648   -3.3557382842    1.8329600444
 O   -1.2270872063   -2.6583083284    2.1446114470
 H   -1.1209710565    1.4128323681    0.4752323939
 H   -0.5319098277    1.3974329348   -1.2539768686
 H    1.8790276147    1.3953336128   -0.4001258243
 H    1.2463210597    1.4181569298    1.3123659567
 H    0.6497406480   -0.7584867321   -0.8296979980
 H    0.7238642964   -1.2561291582    1.7920024710
 H   -3.7248701134   -3.1654822608    0.1140604152
 H   -2.6821720835   -4.1160668851    2.5313547316