20

 C    0.3836843134    1.3751088898   -0.0399188766
 C   -0.0005050500   -0.0486396196    0.1986069954
 C   -1.3581913396   -0.7295276542   -0.0495348480
 C   -0.9999399200   -1.7607963365    1.0757315422
 C    0.3455937012   -1.0353268735    1.2496838291
 O    0.9956563768   -1.0723646161   -0.0329686415
 C    1.2137703032   -0.9671996547    2.4505474474
 C    2.3690695105   -1.8956637141    2.5748735857
 N    2.5884050517   -0.4608215283    2.3250653586
 H    1.3380258648    1.6092996143    0.4381109132
 H    0.4761547031    1.5771854665   -1.1132744439
 H   -0.3791155160    2.0489925415    0.3631346331
 H   -2.2119571279   -0.0988094657    0.2105948093
 H   -1.4937517150   -1.1297301799   -1.0570681684
 H   -1.6516125177   -1.6736485983    1.9487080623
 H   -0.9221305000   -2.8102235418    0.7820016172
 H    0.7017401264   -0.6538264954    3.3581852211
 H    2.6764507136   -2.2462638493    3.5557275139
 H    2.5423573918   -2.5908144865    1.7582215455
 H    2.7793620696   -0.3438626681    1.3310059743