18

 C    0.0790403552    1.6483128791    0.0520934019
 C    0.0869305100    0.1217230021    0.0931220003
 N    0.6409156047   -0.4272591831   -1.1452147374
 C   -0.2932879233   -0.5425917946   -2.3058057676
 C    0.5353372508   -1.7279957082   -2.9167429666
 C    0.4535718773   -1.8906680920   -1.3573046214
 C   -1.0788223110   -1.8179710773   -1.7733082502
 C   -0.7405849091   -2.5409509930   -3.0686506720
 O   -1.2258301965   -3.3343075475   -3.8173210781
 H    1.0860240860    2.0315421565   -0.1341455411
 H   -0.5761977857    2.0201272039   -0.7429684875
 H   -0.2830509159    2.0590755358    0.9991985456
 H    0.7304253341   -0.2230352549    0.9120009582
 H   -0.9297241308   -0.2527461295    0.3075830822
 H   -0.7108114580    0.3039188613   -2.8498995566
 H    1.4434031599   -1.6388257312   -3.5059865667
 H    0.9330910481   -2.6624458479   -0.7550102483
 H   -1.9589552157   -1.8589315498   -1.1383854746