17

 C   -0.0001324172    1.5509457887    0.1067483547
 C    0.0588413749    0.0245987396    0.0529589729
 C    0.6675040539   -0.5200243966   -1.2718053743
 C    2.0510606631   -0.0416292397   -1.4455051026
 N    3.1293447823    0.3546323316   -1.5681793282
 C    0.6106367149   -1.9807256194   -1.3450115346
 C    0.5447007750   -3.1810922831   -1.3824053692
 C    0.4753186716   -4.6336947345   -1.4372246527
 H    0.9982715977    1.9916040410    0.0299110617
 H   -0.6108061995    1.9549408150   -0.7082348949
 H   -0.4427060003    1.8823925203    1.0501828958
 H    0.6458691301   -0.3707984611    0.8875173509
 H   -0.9442634266   -0.4045877498    0.1372105944
 H    0.0862885245   -0.0976030700   -2.1044464341
 H    1.4724077849   -5.0687845953   -1.5634078453
 H    0.0456852536   -5.0453260763   -0.5177085124
 H   -0.1441383631   -4.9698646505   -2.2755334520