17

 C    0.0377671845    1.3994918308    0.0875742279
 O   -0.0861682630   -0.0131667214   -0.0751537932
 C    0.5591703389   -0.5649135721   -1.1170623587
 N    1.2715492397    0.1792166192   -1.9439013856
 C    1.8770415372   -0.4655570048   -2.9518405647
 C    1.7778770039   -1.8381050388   -3.1399188041
 C    2.4604703261   -2.5524841113   -4.2732428748
 N    1.0454370417   -2.5807183684   -2.2844385439
 C    0.4442401268   -1.9586975865   -1.2879893226
 H    1.0827927898    1.6887616338    0.2320195077
 H   -0.3516637110    1.9317788733   -0.7851423311
 H   -0.5492334244    1.6435265925    0.9736977946
 H    2.4633412904    0.1473529845   -3.6322333262
 H    3.0235259805   -1.8573457872   -4.9013178653
 H    3.1507446556   -3.3120554656   -3.8920587205
 H    1.7282862217   -3.0711712470   -4.9006215017
 H   -0.1488393785   -2.5454075011   -0.5917875877