21

 C   -0.0961655601    1.5219975684    0.1918170671
 C    0.0508227801    0.0202343239   -0.0311475673
 C    0.7188481446   -0.3411366243   -1.3552611495
 O    1.0848590783    0.5183112052   -2.1323065886
 C    0.8773366887   -1.8064115788   -1.6022828796
 C    0.7156777287   -2.5065222487   -2.9451444495
 C    1.2532407588   -1.6744576018   -4.1185078003
 C    2.6522527495   -1.6405402954   -3.4222222531
 C    2.0726438539   -2.4736231627   -2.2697645204
 H    0.8794760849    2.0145944336    0.1821909911
 H   -0.6943130166    1.9769448543   -0.6018169247
 H   -0.5791527616    1.7264749115    1.1515588122
 H    0.6341560112   -0.4480577386    0.7746415182
 H   -0.9251093184   -0.4853339060   -0.0019735456
 H    0.4885043963   -2.4177319778   -0.7912608398
 H    0.0080318074   -3.3241036080   -3.0231839513
 H    1.2677255539   -2.2523970085   -5.0454988223
 H    0.7733729419   -0.7122288636   -4.2968054799
 H    3.4051332255   -2.2006427617   -3.9816805237
 H    3.0460647386   -0.6571416938   -3.1657496058
 H    2.5928419243   -3.2614370273   -1.7368140271