18

 C   -0.1580756067    1.6343557444    0.1916744896
 C   -0.0042087083    0.1343218670    0.0247827116
 C   -1.2231697205   -0.5693329432   -0.5567752352
 C   -1.5022210931   -0.1465649016   -1.9888833739
 O   -2.5810988995    0.1800339726   -2.4073917715
 C    1.3551917610   -0.4202268806   -0.3029956378
 C    0.7741079954   -0.6458328609    1.0866781101
 C    1.3455216389    0.0289962797    2.2170250591
 N    1.8004838923    0.5764501885    3.1294368775
 H    0.7271625648    2.0822199178    0.6487459475
 H   -0.3197460646    2.1160101409   -0.7787185017
 H   -1.0184269791    1.8683153378    0.8272751534
 H   -1.0512805355   -1.6549761426   -0.5746071881
 H   -2.1206364701   -0.3817403733    0.0406393855
 H   -0.6088102342   -0.1697279808   -2.6552811768
 H    1.4352487616   -1.2942950529   -0.9399381373
 H    2.1835105513    0.2740746916   -0.3825481264
 H    0.4193025061   -1.6463461145    1.3117270346