19

 C   -0.3638221209    1.5269394766   -0.1046172320
 C   -0.0039377465    0.0456512138   -0.0638793152
 C    1.2851963096   -0.5350283692   -0.7656629982
 C    2.1303595333   -0.0663322024    0.4802554971
 O    2.4132592136    1.2912386069    0.6991612253
 C    0.8147881505   -0.6028512324    1.1388618715
 C    0.4625795134   -0.6473477287    2.5962617902
 C    0.9944935075   -1.7474226862    0.1268045116
 O    0.9073149243   -2.9362571993    0.0686071795
 H   -0.7653617372    1.7772807539   -1.0930931389
 H   -1.1561780063    1.7311008481    0.6246479337
 H    0.4802612817    2.1766630493    0.1087912583
 H   -0.9036387111   -0.5327219447   -0.3042300357
 H    1.5536475446   -0.5010819325   -1.8194381862
 H    3.0234011827   -0.6748329078    0.6778377365
 H    3.1748050078    1.5272849536    0.1600302623
 H    0.4348518418    0.3592009363    3.0258437535
 H   -0.5181740788   -1.1100638585    2.7462483241
 H    1.1977410299   -1.2338139267    3.1571980225