19

 C    0.2490028304    1.4740589134   -0.1561407192
 C    0.1935414946   -0.0361696785   -0.0107081926
 O    0.5493888205   -0.6104428439   -1.2680297696
 C    0.5120671184   -2.0250173687   -1.3013238970
 C    0.7538891388   -2.4850563737   -2.7328611327
 C    2.2874965663   -2.5298552197   -2.8034314768
 O    2.7245674340   -2.8441595636   -1.4672426291
 C    1.7478411751   -2.5820712021   -0.5623155985
 O    1.8989252322   -2.7306231065    0.6171013943
 H    1.2595946202    1.7985152961   -0.4199695554
 H   -0.4363483632    1.8139875210   -0.9378832887
 H   -0.0326121288    1.9531523163    0.7861237910
 H    0.8760923062   -0.3833852464    0.7747524693
 H   -0.8206530015   -0.3671113024    0.2654610869
 H   -0.4113419522   -2.4073869695   -0.8488629994
 H    0.3365583117   -3.4856708673   -2.8780912295
 H    0.3098986125   -1.8048074315   -3.4609967362
 H    2.6778461523   -3.3013883748   -3.4696008212
 H    2.7119908725   -1.5617604982   -3.0869650955