14

 O   -0.0664365636    0.0142749170    0.1949887666
 C   -0.0352653878    1.2006088712    0.0558299806
 C   -1.2617185285    2.1760274651    0.0414165786
 C   -0.6658438139    3.4219827331    0.6741177552
 C    0.6568904721    3.4010982867    0.5161914837
 C    1.9734628250    3.5679051169    1.2326474811
 O    2.2913099113    2.1788259533    0.8819277924
 C    1.1905699263    2.1441776056   -0.0738217021
 H   -1.6068000718    2.3070336338   -0.9929650295
 H   -2.0972190656    1.7532483494    0.6069530952
 H   -1.2374856837    4.0968162758    1.2999364465
 H    2.6957797545    4.2536155509    0.7729310858
 H    1.9375703250    3.7351204662    2.3138305819
 H    1.5663089407    2.1350787949   -1.1067890660