19

 C   -0.3767965237    1.4021128449   -0.1095407980
 N    0.0070324941    0.0032424358   -0.0018913107
 C    1.3916946631   -0.3453860407   -0.2925382268
 C    0.8649458070   -0.4462682068    1.0991066253
 C    1.3839739594    0.4590107597    2.1846832827
 C    0.5916172123    0.4983645835    3.5311259164
 N    1.7833335371   -0.0601414857    4.1737641749
 C    2.5490832603   -0.1348417352    3.0367561134
 O    3.6663991766   -0.5179129096    2.8222017649
 H    0.4266285808    2.1223272215    0.1129789569
 H   -0.7126359866    1.5904781219   -1.1341955600
 H   -1.2171094405    1.6040093599    0.5631078824
 H    1.5520336745   -1.2374976924   -0.8916693133
 H    2.0906882937    0.4666061048   -0.4929036077
 H    0.5896773871   -1.4363833037    1.4628190167
 H    1.6376154504    1.4516257939    1.8084565557
 H    0.3153013215    1.4973452796    3.8828778557
 H   -0.2840886933   -0.1580886864    3.5635862841
 H    1.9880831563   -0.2971610549    5.1330128474