21

 C   -0.1812893635    1.5708636322   -0.1731477573
 C   -0.0064537240    0.0539446291   -0.0615496408
 C   -1.2114976852   -0.6190230099    0.7112242383
 C   -0.3556022361   -0.5872934250    2.0323002830
 C    0.8294883065   -0.4349658767    1.1036855147
 C    1.9486717924   -1.0639988106    0.7381903549
 C    2.0477596055   -1.0854957749   -0.7579086981
 C    1.0068622365   -1.9869795555   -1.3980228175
 C    0.7131575039   -0.5166756616   -1.2762782438
 H    0.7624879397    2.0508136345   -0.4516529907
 H   -0.9270881832    1.8173035602   -0.9384096015
 H   -0.5154228379    2.0109171269    0.7717965953
 H   -2.1501306617   -0.0584710202    0.7217802368
 H   -1.3981214428   -1.6421930406    0.3794616213
 H   -0.5752072567    0.3010086444    2.6326308225
 H   -0.3814160429   -1.4660253490    2.6802073537
 H    2.5970376322   -1.6567849813    1.3745208566
 H    2.9874925561   -0.9244425151   -1.2760790423
 H    1.2094736984   -2.3514500019   -2.4002565336
 H    0.4897022128   -2.6964453117   -0.7598201077
 H    0.7023192601    0.0590266267   -2.1955487938