18

 C    0.0619134288    1.4027733696    0.1639438180
 C   -0.0067397130   -0.0824880203    0.0408211119
 C    0.5582851464   -1.0511258823   -0.9525242842
 C    1.3194463398   -1.0444618236    0.3399388318
 C    0.5144625325   -2.1364889261    0.9750568484
 C   -0.1835564808   -2.0185935042    2.1222035121
 C   -1.5210736729   -1.3952883491    1.6957164219
 N   -1.2393990277   -0.8818937601    0.2957061419
 C   -0.4396269947   -2.0109539004   -0.2572923435
 H    1.0241410961    1.7740923188   -0.2025150873
 H   -0.7333260009    1.8788168702   -0.4209407202
 H   -0.0464743243    1.7270899952    1.2057732467
 H    0.8542412497   -0.9406915982   -1.9870973895
 H    2.2535882705   -0.5634445317    0.6020797449
 H    0.2678556942   -1.7634498542    3.0762816541
 H   -2.3881608035   -2.0607161222    1.6023090579
 H   -1.7947073093   -0.5962079477    2.3933201107
 H   -0.9527982009   -2.8658893337   -0.6962016756