19

 C   -0.0594517540    1.5657329007    0.0713665306
 C    0.0377108342    0.0365463856    0.0614449344
 C    0.7023401618   -0.5087129762    1.3296774831
 C   -1.3440911325   -0.5906534346   -0.1360285233
 O    0.7675064970   -0.4157597766   -1.1261077283
 C    2.0604007101   -0.0712179931   -1.3152876113
 N    2.5255714676   -0.6749351344   -2.4544046574
 O    2.7360785632    0.6312093220   -0.5961251169
 H    0.9241684576    2.0195226217    0.1890692093
 H   -0.5067629246    1.9239302102   -0.8612085894
 H   -0.6997119815    1.8870584058    0.8990355021
 H    0.0874585888   -0.2615568664    2.2008936962
 H    0.7891827198   -1.5982769084    1.2740334791
 H    1.6955240609   -0.0815147740    1.4660638170
 H   -1.7999859691   -0.2344558635   -1.0640853988
 H   -1.2692038231   -1.6805316471   -0.1844876237
 H   -2.0005866224   -0.3244350562    0.6971056652
 H    1.8591059473   -1.0464187270   -3.1096390691
 H    3.3943527490   -0.3198433386   -2.8152144388