21

 C   -0.8113907412    1.3140459685    0.1283880593
 C    0.0467796680    0.0639170225    0.0035908429
 C    0.7446277005   -0.0662063525   -1.3606519740
 C    1.6622817055   -1.2865472755   -1.3651271375
 C    3.1015017872   -1.2508786942   -0.9103118842
 C    3.3107080031   -0.1357242707    0.1111121515
 C    2.1199692408   -0.7244416827    0.9511633285
 O    0.9743954918    0.0941018970    1.0900427467
 C    2.0282097275   -1.8991018239   -0.0361747772
 H   -0.2037790834    2.2126260425   -0.0184826955
 H   -1.6126992620    1.3079252716   -0.6172563491
 H   -1.2621347672    1.3673802907    1.1231241266
 H   -0.5942510730   -0.8260958234    0.1217177138
 H   -0.0256847061   -0.1721713663   -2.1314261411
 H    1.2922053723    0.8561793119   -1.5896879508
 H    1.4807078520   -2.0141354421   -2.1502492688
 H    3.8799299624   -1.7417729067   -1.4815367707
 H    4.2578306272   -0.2271354183    0.6487330299
 H    3.1959778569    0.8976825258   -0.2296302403
 H    2.4226683240   -1.0021300991    1.9628195979
 H    1.8579807136   -2.9394635049    0.2111695022