19

 C   -0.4485840204    1.2928373769    0.0268589787
 C    1.0243303694    0.9840764669   -0.0768245684
 C    0.0264477670   -0.1312144550    0.0340204990
 C   -0.1195799748   -1.1756687485    1.1533010863
 C   -0.5185168743   -2.2312815210    0.0767269885
 O   -1.8952371270   -2.5511316132   -0.0114986545
 C   -2.5045890386   -1.5165086305   -0.7567482568
 O   -1.5535515496   -1.0630451544   -1.6954958793
 C   -0.2974455276   -1.1738429961   -1.0506511904
 H   -0.8200648744    1.7080038232    0.9585454360
 H   -0.9673596540    1.6392425478   -0.8608302779
 H    1.5157915737    1.1349991999   -1.0332959860
 H    1.6517750348    1.1900653774    0.7847952030
 H    0.8103430288   -1.4184415994    1.6759427304
 H   -0.9012641637   -0.9846141707    1.8938376057
 H    0.0501661761   -3.1617225076    0.0640691117
 H   -3.3697931158   -1.9205922112   -1.2891365683
 H   -2.8159049537   -0.6923774960   -0.0926093435
 H    0.4631480842   -1.3462002382   -1.8145251644