20

 C    0.0732308020    1.8007706234    0.1711381150
 C   -0.1603641484    0.3051106032    0.0601126364
 C   -1.6098135388   -0.0965623867   -0.2073010106
 C   -2.0110848589   -0.0089284097   -1.6798049192
 O   -1.3825256750   -1.0918060529   -2.3612549895
 N    0.9028560244   -0.4591170175   -0.5833240957
 C    0.6698453649   -0.6755593283    0.8586126172
 C    1.7655065318   -0.2481538974    1.7696633872
 O    1.8974494606   -0.6609618326    2.8959593612
 H    1.1381532275    2.0331007298    0.2160715657
 H   -0.3388601807    2.3189341644   -0.7022421856
 H   -0.4153216074    2.2093475110    1.0622119696
 H   -1.7874737977   -1.1281645515    0.1151404841
 H   -2.2774171584    0.5417614868    0.3824044794
 H   -3.1057673406   -0.0798602556   -1.7667449651
 H   -1.7075445782    0.9569980316   -2.1090245426
 H   -1.4574944005   -0.9470009974   -3.3087218036
 H    0.5046975807   -1.2150770803   -1.1347730785
 H    0.1586198856   -1.5759254041    1.1920429417
 H    2.4741662471    0.4851555937    1.3271272928