17

 C    0.0758884447    1.1442532187    0.5834659555
 N    0.0086400968   -0.0043362147   -0.3329629020
 C   -1.1995001821   -0.7290251566   -0.2852106462
 C   -1.3027727670   -2.0450544429    0.1098492945
 O   -0.3774986087   -2.9308093634    0.5102243782
 N   -2.6090571465   -2.3490803735    0.0184599977
 C   -3.2824334577   -3.5953682015    0.3057161061
 N   -3.3061125415   -1.2535386288   -0.4223687761
 N   -2.4510809986   -0.2910028751   -0.5992531554
 H    1.0471551937    1.6347277880    0.4699225515
 H   -0.7187389621    1.8827921234    0.4134606626
 H   -0.0073474728    0.7860438007    1.6137907748
 H    0.1970757740    0.3083950302   -1.2800174552
 H    0.4694779309   -2.4628762802    0.4565814043
 H   -3.1619898747   -3.8686778135    1.3577670152
 H   -4.3389683794   -3.4435832150    0.0843862786
 H   -2.8868140190   -4.4014855557   -0.3183642842