17

 C   -0.1284936716    1.6960446515    0.2294875196
 C    0.0002475401    0.1914749904    0.0477944926
 C    1.2360655731   -0.3447503828   -0.7105959200
 O    1.6050500989   -1.2031847907    0.3904595607
 C    0.5546737615   -0.6962529102    1.2140398068
 C    1.0650971687    0.0409840383    2.4363132369
 O    2.2168861809    0.3439450553    2.6324764176
 C    0.0110463646    0.4383131186    3.4776149431
 O   -1.1706010459    0.2704548276    3.3182178215
 H    0.7957052391    2.1352658364    0.6201709796
 H   -0.3411958267    2.1746485555   -0.7321321926
 H   -0.9462865818    1.9453879680    0.9123113280
 H   -0.9350039537   -0.2234136892   -0.3333813245
 H    1.0393012513   -0.9154001535   -1.6248129586
 H    2.0093834590    0.4073037357   -0.9122289389
 H   -0.1362903605   -1.4816894276    1.5460023659
 H    0.4482243531    0.9146245768    4.3806802323