17

 O   -0.0223525866    1.3888647929   -0.0323954550
 C    0.0104461626    0.0038968882   -0.0042586675
 C   -0.3806538963   -0.7433093013    1.2388723027
 C   -1.3010831902   -0.7931163180    0.0254954840
 O   -2.5649407575   -0.2576252766    0.1171137274
 C   -1.1190069509   -1.9152117082   -0.9324525976
 O   -2.0508816844   -2.4644471715   -1.4779578850
 C    0.3683511968   -2.1041903971   -1.2092545866
 C    0.9843501168   -0.7091705795   -0.9437383800
 H    0.5704923356    1.7256966639    0.6477335649
 H    0.1697416568   -1.6191541739    1.5705774310
 H   -0.8019185563   -0.1315676258    2.0304062774
 H   -3.1063683065   -0.7946053225   -0.4823246408
 H    0.7680158110   -2.8630339207   -0.5257910293
 H    0.5223047812   -2.4712114298   -2.2252709659
 H    1.0367684984   -0.1342536219   -1.8735221282
 H    1.9968523196   -0.7646237183   -0.5282056615