18

 C   -0.0927659422    1.5283512644    0.0995800911
 N    1.1964481281    0.8212083733   -0.0178590109
 C    1.8362066564    0.5342166739    1.2983148942
 C    0.9350392181   -0.4683131148    2.0081730135
 C   -0.1126458102   -0.7425627994    1.2364892449
 C   -1.2050661143   -1.7515603232    1.0740161373
 O   -1.5923592220   -1.6606415116   -0.3096564541
 C   -0.6543795140   -0.8730699161   -1.0591083046
 C   -0.0570537411    0.0514105682   -0.0198442152
 H   -0.3682336686    1.9542707490    1.0628017544
 H   -0.3407115358    2.1394920964   -0.7650824135
 H    2.8324402831    0.1055289444    1.1269147727
 H    1.9887939875    1.4704489431    1.8507669993
 H    1.1800614995   -0.9034078937    2.9698240435
 H   -0.8681217662   -2.7706493205    1.3101808282
 H   -2.0925379936   -1.5412234241    1.6843017142
 H    0.1214704671   -1.5077688541   -1.5140375011
 H   -1.2096290719   -0.3690148553   -1.8542358540