17

 C    0.1972474846    1.3729842828   -0.2182942277
 N    0.3232385024   -0.0776983262   -0.1655142709
 C    0.5847281538   -0.6346353736    0.9205771698
 O    0.7951462749   -0.0991987976    2.1877840023
 C    0.8420178850   -1.4328318689    2.8005114895
 C   -0.2682186043   -1.6717677646    3.6982041122
 C   -1.1957618265   -1.8825342207    4.4325399237
 C    0.7508838551   -2.0814911285    1.3750838968
 N   -0.2602935422   -3.0809717446    1.1530584588
 H    1.0242324641    1.7852206136   -0.8075738125
 H   -0.7285171711    1.6306405980   -0.7430072732
 H    0.1952907449    1.8558061436    0.7657218576
 H    1.7992902546   -1.5737526724    3.3094540084
 H   -2.0083910760   -2.0656301399    5.0919074894
 H    1.7208028890   -2.4836223076    1.0683753656
 H   -1.1834978305   -2.7001104782    1.3373124408
 H   -0.2458652878   -3.3742075852    0.1816442495