17

 C   -0.0326486121    1.6021349591    0.1925381392
 N    0.0245930856    0.1607476372    0.1281726234
 C   -1.2264188389   -0.6018684628    0.3185135769
 C   -0.4643198012   -1.6088491766    1.2137602988
 C    0.7160920704   -0.5814730132    1.2086820452
 C    1.6957004820   -1.6393717181    0.6429714069
 C    0.4760605312   -2.5710296764    0.4539753012
 O    0.3146357581   -3.6367463340   -0.0627353444
 H    0.9785602053    2.0174350302    0.1270383353
 H   -0.6061729586    1.9872104449   -0.6573173811
 H   -0.5020105148    1.9849106624    1.1194069873
 H   -1.9843738434   -0.0528960434    0.8995776551
 H   -1.6879683579   -0.9790161957   -0.6003139495
 H   -0.9628883776   -2.0047011539    2.0973253641
 H    1.0093888542    0.0011710171    2.0856595752
 H    2.2647249435   -1.3720531375   -0.2496394024
 H    2.3727972945   -2.0535558893    1.4007439988