12

 O    0.1105633272    1.3162827308    0.0712126668
 C    0.0709112949   -0.0181682552    0.0516041107
 N    0.0774568875   -0.6256643800   -1.1299949469
 C    0.0367448299   -1.9619812586   -1.1008306097
 N   -0.0093359185   -2.7483649372   -0.0299836385
 C   -0.0147086219   -2.1047660309    1.1472913410
 C    0.0243127855   -0.7277708818    1.2580313636
 C    0.0438750490   -2.6225989954   -2.3886573571
 N    0.0497245975   -3.1461722757   -3.4186553644
 H    0.1387970681    1.6126631684   -0.8508804551
 H   -0.0521122734   -2.7311556677    2.0342432365
 H    0.0197210842   -0.2153106766    2.2107399430