14

 C   -0.0845655824    1.5802509338   -0.0127450558
 C    0.0598112526    0.0614208118   -0.0122431491
 C    0.8743526339   -0.5016733855   -1.2077731899
 O    1.7128354283   -1.4838791134   -0.6111583524
 C    1.7497480568   -1.3125177584    0.7345080190
 O    2.4571243259   -1.8982162657    1.4823142612
 O    0.8507990701   -0.3511583211    1.1105914043
 C   -1.2654975308   -0.5864241504    0.0794500988
 N   -2.3106404312   -1.0758468772    0.1211020224
 H    0.9080390237    2.0364305351   -0.0315660966
 H   -0.6480853123    1.9045359544   -0.8920277445
 H   -0.6135466582    1.9123181128    0.8824544143
 H    0.2528049651   -0.9727192357   -1.9693841426
 H    1.4906064285    0.2817320495   -1.6608008793