18

 C   -0.2055497033    1.4453229026   -0.0638172192
 C    0.0467499838   -0.0690598887    0.0348072757
 C    0.7733899530   -0.5623003415   -1.1502025098
 N    1.3623677432   -0.9324404689   -2.0731089707
 N    0.7413817896   -0.4621734279    1.2562068929
 C    2.1565767649   -0.1649687343    1.4089991228
 C    0.0147264675   -1.1906557151    2.1820302707
 N    0.7333772795   -1.6318085675    3.2804743077
 O   -1.1853125780   -1.3832958028    2.0727459703
 H    0.7291306835    2.0124189537   -0.0662928983
 H   -0.7452745460    1.6794206023   -0.9851876527
 H   -0.8094082614    1.7582599847    0.7908328840
 H   -0.9185727413   -0.5814376228    0.0805513001
 H    2.3716925659    0.1348133181    2.4378807053
 H    2.7997224180   -1.0129513508    1.1354682055
 H    2.4253458289    0.6693391537    0.7584456670
 H    1.7024648283   -1.8827450558    3.1648382320
 H    0.1996586838   -2.2774972690    3.8421667868