16

 O   -0.1569429289    0.0647470602   -0.7810007070
 C   -0.0299103693    1.0951745429   -0.1539012484
 C   -1.1596309747    1.7609594445    0.6127633083
 C   -1.4949444278    3.1586574249    0.1247076001
 O   -1.6130893527    4.1603007176    1.1340610368
 C   -0.5010400329    4.2360336004    0.2165867219
 C    0.8704031349    4.0058658132    0.7262323117
 C    1.5997314660    2.8979029208    0.5472792728
 N    1.2158026830    1.6978596900   -0.0509572546
 H   -2.0234609564    1.0983979812    0.5445116135
 H   -0.8652499895    1.8461588554    1.6641304914
 H   -2.2471144820    3.2176265947   -0.6612475077
 H   -0.5935323348    5.0766839652   -0.4736126077
 H    1.3548513009    4.8402398494    1.2236352656
 H    2.6347114343    2.8858760572    0.8779949698
 H    1.9471919999    1.1318608224   -0.4586841065