17

 C   -0.2195987205    1.2884966579   -0.2534769615
 C   -0.0390665868   -0.0653231229    0.3565726808
 C   -1.0527465483   -0.9505680796    0.5492527715
 C   -1.7055791312   -1.3984227828   -0.7698920517
 N   -0.6925708024   -2.5476540867   -0.7661176263
 C    0.6865949632   -2.2378056962   -0.1082927826
 C    1.2615522449   -0.8384665939    0.1718995052
 C   -0.5228519252   -2.3800921754    0.7030780956
 H    0.2507943318    1.3587730397   -1.2441857212
 H   -1.2788486374    1.5448428919   -0.3462346455
 H    0.2510556022    2.0643912421    0.3648113262
 H   -2.6909799380   -1.8713608695   -0.7153063060
 H   -1.6634352768   -0.7081453552   -1.6181808710
 H    1.3477667462   -3.0751954985   -0.3117947858
 H    1.8231844250   -0.3905984211   -0.6564471264
 H    1.9567247043   -0.9071234940    1.0214154240
 H   -0.7993864411   -3.1421203359    1.4234585547