15

 C    0.0024802346    1.4291058745    0.0680478954
 N   -0.0228652915   -0.0216961214    0.0956795675
 C   -1.1122085639   -0.6382610885    0.0110926420
 O   -2.3840584666   -0.1110548408   -0.1136800076
 C   -3.2781682265   -1.1664877699   -0.1731299658
 C   -2.6409327205   -2.3328884250   -0.0919355755
 N   -1.2721304553   -2.0377477136    0.0255409549
 C   -0.2492887761   -2.9667117950    0.1365527294
 O   -0.4445904629   -4.1577734990    0.1432320418
 H    0.6478043467    1.7627217452   -0.7522699214
 H   -0.9827955786    1.8933537733   -0.0526345533
 H    0.4507655286    1.8007524182    0.9965277611
 H   -4.3171576469   -0.9056626173   -0.2720793769
 H   -2.9854509328   -3.3510462985   -0.1022809676
 H    0.7318823316   -2.4763595623    0.2149313359