22

 C    1.7139047314    1.8236863190    0.6554341736
 C    1.8200351601    0.3051011659    0.5054895346
 C    0.7026792958   -0.4473667616    1.2429276593
 O   -0.5917140528   -0.0445061816    0.7889798211
 C    0.8885117833   -1.9472729611    1.1057305045
 C    1.3720362672   -2.8732986384    2.1533508486
 C    0.9120535562   -2.4802677319    3.5560627377
 C   -0.5262355123   -2.4688555501    2.9796001160
 N   -0.0569193494   -2.9574658518    1.6288440873
 H    1.8303709510    2.1258893937    1.7022855697
 H    2.4861510982    2.3346589511    0.0728531241
 H    0.7352454718    2.1716067604    0.3153621163
 H    1.7816656906    0.0301356047   -0.5579434005
 H    2.7878260778   -0.0512141634    0.8818007138
 H    0.7269325091   -0.1486481545    2.2962317928
 H   -0.7915353792   -0.5424264554   -0.0112521379
 H    1.1916787416   -2.2361709414    0.0978538529
 H    2.1050852822   -3.6446958469    1.9353383510
 H    1.0631377630   -3.2815563639    4.2815970927
 H    1.3178945036   -1.5543896172    3.9749366943
 H   -1.1791999351   -3.2212192887    3.4251453087
 H   -1.0566791839   -1.5151888268    2.9368764593