14

 C   -0.0004654314    1.5130566850    0.1519179191
 C    0.0244147075    0.0350089802   -0.0139224591
 C    0.0184522655   -0.7508795326   -1.1295614648
 O    0.0514527177   -2.0365898038   -0.7518813479
 N    0.0775848688   -2.0344252336    0.6758989635
 N    0.0608662725   -0.8381966694    1.0575676459
 C   -0.0169286250   -0.4091059088   -2.5774265618
 N   -0.0118340333   -1.4819909525   -3.4090111448
 O   -0.0468469025    0.7487857921   -2.9532119205
 H    0.8923854556    1.8556851691    0.6846940199
 H   -0.0409436391    1.9904201550   -0.8266739603
 H   -0.8701531486    1.8191537885    0.7418822931
 H    0.0113935272   -2.4243003421   -3.0587171005
 H   -0.0363722147   -1.3159974571   -4.4013368920