17

 C    0.0566124712    1.4908531689    0.0234010161
 C   -0.0652867323    0.0052919081   -0.0778935287
 C    0.5042378971   -0.9095902433   -1.0901705289
 N    0.9886392744   -0.9844914993    0.3406187410
 C   -0.0491612230   -1.7283052872    1.1291708345
 C   -1.1824257123   -0.9495579764    0.4350311207
 O   -1.6396236368   -1.7031876069   -0.6959500728
 C   -0.5769578454   -1.8181510418   -1.5635371034
 N   -0.5538411256   -2.5248641396   -2.6090292938
 H    1.0524059912    1.8086125915   -0.2982737029
 H   -0.6856091265    1.9879107711   -0.6105107216
 H   -0.0910067564    1.8339898446    1.0529449479
 H    1.2764176147   -0.6122004460   -1.7862701872
 H   -0.0579408445   -2.8154385508    1.0036942302
 H    0.0765881050   -1.4694786136    2.1831182067
 H   -2.0447929462   -0.5853413072    0.9896762435
 H   -1.4414644747   -3.0156827521   -2.7310695614