15

 C    0.3358508097    1.6167713550   -0.3275578554
 C   -0.0378234338    0.1891238022   -0.0125386557
 N    1.0212967305   -0.8216553664   -0.0398452914
 C    0.4306692356   -0.5005848953    1.2644966254
 C    1.2342246458    0.1894347279    2.2320084829
 C    1.8788070572    0.7711267357    3.0637636156
 C   -1.3879801773   -0.2775636127   -0.4584303123
 O   -1.6780079189   -1.4450240242   -0.5793290613
 H    1.2629740364    1.8893326421    0.1782973318
 H    0.4794508030    1.7493484647   -1.4047625644
 H   -0.4506153513    2.3046791850    0.0013595120
 H    0.6029435631   -1.6953300405   -0.3653295468
 H   -0.2711922632   -1.2234989370    1.6743419316
 H    2.4578788735    1.2758920720    3.7972425381
 H   -2.1219771502    0.5264674815   -0.6768502702