20

 C   -0.0184762990    1.5560378235    0.0033034277
 C   -0.0034745874    0.0257413905   -0.0066034492
 O   -1.3477924988   -0.4728720232    0.0561176638
 C    0.7072780126   -0.5245496622   -1.2606074518
 C    0.8429558366   -2.0477491344   -1.1913054501
 O    1.5293635748   -2.4536634563   -0.0198543438
 C    0.8383487612   -2.0595090139    1.1561594057
 C    0.6942517564   -0.5381609226    1.2421432206
 H    0.9965976739    1.9656162519    0.0080394822
 H   -0.5291534588    1.9442413004   -0.8867847307
 H   -0.5476898315    1.9237139109    0.8875087283
 H   -1.8180231876   -0.1505828810   -0.7203317891
 H    0.1498562538   -0.2361752875   -2.1623670753
 H    1.7044992182   -0.0760179477   -1.3398219250
 H   -0.1569665973   -2.5083061130   -1.2252347549
 H    1.4244261653   -2.4279133509   -2.0364080519
 H   -0.1572723154   -2.5271606131    1.1865105118
 H    1.4237426310   -2.4432201158    1.9968251258
 H    1.6878504118   -0.0851295567    1.3295873422
 H    0.1177435703   -0.2652104289    2.1328516636