15

 C    0.0601376170   -1.1923571531   -0.0053276553
 C    0.0526839081    0.0080256168    0.0013462464
 C    0.0071920698    1.4628784866    0.0098653868
 O    1.3254621912    1.9860819997    0.0003905700
 C    1.3481879174    3.3935560633    0.0079412886
 C    2.8250105849    3.8054125064   -0.0038491362
 C    2.9878786747    5.2555452437    0.0026882971
 N    3.0961055485    6.4057204470    0.0079409090
 H    0.0729297700   -2.2544460004   -0.0115294690
 H   -0.5540857813    1.8246384011   -0.8679563954
 H   -0.5374618816    1.8147858044    0.9020467205
 H    0.8320799305    3.8064761994   -0.8730740871
 H    0.8490081182    3.7966691062    0.9031377199
 H    3.3269048823    3.3775631379    0.8699820753
 H    3.3101033204    3.3873649911   -0.8918026007