17

 C   -0.7988952458    1.2111700648   -0.1049139415
 C    0.0514265193   -0.0471241587   -0.0046739846
 N    1.3270549766   -0.0317719470   -0.7782749315
 C    2.1609752910   -0.4654767048    0.3754206015
 C    2.6167460605   -1.9323257751    0.3802518205
 C    3.2842017701    0.4341195848    0.6454318039
 N    4.1673073287    1.1421871572    0.8793565808
 C    0.8896935419   -0.2379969270    1.2671022241
 O    0.6882726371   -0.2266198456    2.4381012989
 H   -0.1920499528    2.1005504060    0.0818662322
 H   -1.2367154346    1.2971652147   -1.1037063455
 H   -1.6112860428    1.1748234325    0.6271091256
 H   -0.5681851689   -0.9392984115   -0.1829068020
 H    1.3632532881   -0.6685515232   -1.5661561385
 H    3.3381594464   -2.1063275230   -0.4236537626
 H    3.0937788228   -2.1813784272    1.3315361311
 H    1.7590092725   -2.5958141269    0.2353887177