19

 C    0.0263677791    1.4410407446   -0.0851999003
 C   -0.0108110838   -0.0515465550   -0.0179355714
 O    1.0103859024   -0.7144662204   -0.7694931305
 C    0.6867496746   -2.0833009306   -0.4591981767
 C    0.6278444205   -2.0991984501    1.0777383676
 C   -0.3145828534   -0.9048585426    1.1923713121
 C   -1.2343459820   -0.9417040518   -0.0330092744
 C   -0.8058471826   -2.1433255264   -0.8736155541
 O   -1.0138971050   -1.9859400016   -2.2576689762
 H    0.9792082255    1.8253880214    0.2928444914
 H   -0.0976567032    1.7916723773   -1.1151579361
 H   -0.7794140483    1.8673217375    0.5184306818
 H    1.3728006562   -2.7543081211   -0.9713637693
 H    0.2121144005   -3.0316582216    1.4703055078
 H    1.6047358814   -1.9180914019    1.5349976186
 H   -0.6219989382   -0.4763642188    2.1372991093
 H   -2.2464824084   -0.5602519187   -0.0329868384
 H   -1.2866285882   -3.0807704189   -0.5821582662
 H   -0.4503185771   -1.2484912412   -2.5255908550