18

 C   -0.0501807800    1.4834871986    0.0348607159
 N    0.0400794980    0.0282116367   -0.0198868964
 C    0.6688213693   -0.5175736857   -1.2311245945
 C    1.3969048418   -0.5161601190    0.0662061304
 C    1.4771343504   -2.0347383228    0.3755948867
 O    0.2152817017   -2.5285321990    0.7824991575
 C   -0.5577913594   -2.5766538544   -0.4339988927
 C    0.4494853427   -2.0268920336   -1.4634374326
 O    1.6736470585   -2.5848547793   -0.9208974562
 H    0.7981638586    2.0002488070   -0.4445897398
 H   -0.9717656622    1.8033221244   -0.4607612992
 H   -0.0967566965    1.7970094362    1.0819481003
 H    0.9228567664    0.1447690680   -2.0525656541
 H    2.2330255659    0.1432901822    0.2783037583
 H    2.2547277174   -2.3598174526    1.0651763427
 H   -0.8249678901   -3.6155245534   -0.6547697144
 H   -1.4509481108   -1.9586393377   -0.3300141258
 H    0.3166088183   -2.3442869456   -2.4954978661