20

 C   -0.0934740657    1.5113765437   -0.0720068784
 C   -0.0161725627   -0.0205421871    0.0077857793
 C   -1.3990526490   -0.6732143531   -0.0103694800
 N    0.7883558128   -0.5778018428   -1.0729803395
 C    2.1424164084   -0.5368873141   -1.0902450380
 N    2.8440519987   -0.1325841492   -0.0915566250
 C    2.6774333953   -1.0449894386   -2.4335670387
 N    3.9654606054   -1.4817913731   -2.4155329800
 O    1.9848380249   -1.0380889361   -3.4352633084
 H    0.9104793923    1.9411301061   -0.0517998973
 H   -0.5939633478    1.8286354511   -0.9938276587
 H   -0.6570903084    1.9120096040    0.7770332851
 H    0.5002223307   -0.2867538094    0.9359993537
 H   -1.9285517414   -0.4448256427   -0.9436004420
 H   -1.3231878063   -1.7604730559    0.0811160959
 H   -2.0097838136   -0.2976324354    0.8153553047
 H    0.3641979601   -0.7398331086   -1.9759973390
 H    3.8369174133   -0.1477666500   -0.3091932832
 H    4.4125691620   -1.7127014434   -1.5448217922
 H    4.3197233811   -1.9055665655   -3.2581203084