21

 C   -0.0529390502    1.3307715063   -0.3374200875
 O    1.3290461372    1.5181727847    0.0279716311
 C    1.4622359773    0.1390285460    0.4256044580
 C   -0.0156035558   -0.1584197141    0.0787575383
 C   -0.9273791234   -0.5863302434    1.2254800027
 C   -2.4264476649   -0.6011454327    0.8104861889
 C   -2.7614579033   -2.1090808104    0.6777369336
 O   -1.5207519168   -2.8020346842    0.7267094680
 C   -0.6949267722   -2.0605582773    1.6088855633
 H   -0.7242096171    1.9675205250    0.2548302683
 H   -0.2251989378    1.5309439533   -1.4024023275
 H    2.2144566839   -0.3893217314   -0.1732414524
 H    1.7253110422    0.0415245662    1.4881471205
 H   -0.1371503714   -0.8519629404   -0.7575254333
 H   -0.7588707732    0.0748067383    2.0824457168
 H   -3.0596940901   -0.1205846130    1.5599746989
 H   -2.5801260652   -0.0690762068   -0.1326211969
 H   -3.4111986295   -2.4345913999    1.5052548610
 H   -3.2520418395   -2.3707339494   -0.2631975060
 H    0.3358302929   -2.3995970639    1.4700736377
 H   -0.9809783432   -2.2414000629    2.6587664962