23

 C    0.0815019857    1.5667421036    0.0580116568
 C    0.0076050661    0.0389678926    0.0417412908
 O    0.7248457119   -0.5050551859    1.1508158902
 C   -1.4283548959   -0.5163943023   -0.0098951231
 C   -2.2261989317   -0.0403661643   -1.2368383076
 C   -3.6035767181   -0.7106623632   -1.2813826075
 O   -3.5157031125   -2.1225463469   -1.2597883262
 C   -2.8634014985   -2.5939639876   -0.0917733796
 C   -1.4383426005   -2.0546670239    0.0230031533
 H    1.1211248851    1.8816950161    0.1812666082
 H   -0.3023734361    2.0079050915   -0.8659130444
 H   -0.5014758567    1.9777457581    0.8926214025
 H    0.5514372684   -0.3340740525   -0.8362938930
 H    0.3323010126   -0.1448367220    1.9541746646
 H   -1.9503560455   -0.1522665478    0.8921502151
 H   -2.3604827026    1.0467002229   -1.2297356180
 H   -1.6776012254   -0.2965786416   -2.1529417285
 H   -4.2126829150   -0.3572256485   -0.4296660163
 H   -4.1356222972   -0.4506166816   -2.2014124979
 H   -3.4462130031   -2.3103640925    0.8032607268
 H   -2.8686744761   -3.6858032740   -0.1601579662
 H   -0.8475072333   -2.4378869546   -0.8193630408
 H   -0.9647412818   -2.4187890454    0.9388617909