29

 C   -1.6533266166   -0.6472656533   -0.0016360249
 C   -0.1647538424   -0.2752287597    0.0032587603
 C    0.6321404538   -0.5726597831    1.3058244154
 C    0.6635666497   -2.1014108328    1.5314616923
 C    2.0821632512   -0.0409952320    1.1339145542
 C    2.9240255560   -0.6712996923    0.0149146069
 C   -0.0578855350    0.1099124255    2.5402463671
 C    0.6163202269   -0.1920581198    3.8910348796
 C   -0.2448618724    1.6310263181    2.4018040388
 H   -2.2339609616   -0.0558197948    0.7124853836
 H   -2.0822276987   -0.4697078806   -0.9931940307
 H   -1.8111599299   -1.7038163764    0.2365227029
 H    0.3197395871   -0.8169344960   -0.8169360631
 H   -0.0636625328    0.7876164584   -0.2470416553
 H    0.9108835525   -2.6333187010    0.6077833940
 H    1.4087308267   -2.3869152350    2.2799075156
 H   -0.3059245113   -2.4768286345    1.8746772927
 H    2.0444173089    1.0417823636    0.9654201360
 H    2.6209624011   -0.1820998017    2.0778425040
 H    3.9266613541   -0.2315035948    0.0094087334
 H    3.0434824506   -1.7505730818    0.1492712345
 H    2.4929031483   -0.5039345728   -0.9764799250
 H   -1.0621390278   -0.3300559706    2.5964002502
 H    0.0141646542    0.2228418203    4.7064298166
 H    0.7207880138   -1.2637628513    4.0762549692
 H    1.6101355241    0.2615457938    3.9650081686
 H   -0.7948495747    1.9066804364    1.4983763949
 H   -0.8087599332    2.0165575771    3.2578618326
 H    0.7138326571    2.1598853810    2.3846653753