23

 C    0.0120343882    1.3843300600    0.0893376013
 O   -0.0354810310   -0.0164393724   -0.0374207195
 C    0.6635469518   -0.5444898034   -1.1615763449
 C    2.1636030571   -0.6315300221   -0.8600540296
 C    0.0017735441   -1.9013876782   -1.4746775902
 C   -1.4917588000   -1.7261347444   -1.7733576537
 C    0.7236948278   -2.6274665292   -2.6378780455
 C    0.1709763401   -3.9443294203   -2.9337870765
 C   -0.2803969775   -5.0348929644   -3.1625642349
 H    1.0287781878    1.7629772321    0.2719469836
 H   -0.3851401312    1.8876404881   -0.8062007502
 H   -0.6112003614    1.6503489368    0.9470387780
 H    0.5074893946    0.1258391656   -2.0260408509
 H    2.5405534832    0.3307013941   -0.5022749043
 H    2.3563418605   -1.3796282147   -0.0843245275
 H    2.7439505410   -0.8911436080   -1.7496243871
 H    0.1091882997   -2.5213433491   -0.5750649134
 H   -1.9890478648   -1.2241247089   -0.9425089805
 H   -1.6387895143   -1.1201369575   -2.6763890775
 H   -1.9689281234   -2.6945884099   -1.9413886506
 H    0.6723642924   -2.0022275020   -3.5408508582
 H    1.7877135294   -2.7447910739   -2.4065751810
 H   -0.6755649141   -5.9974559984   -3.3732455169