20

 O    0.0765524354    1.4341026507    0.1335130185
 C    0.0782193551    0.0180845364    0.0794198377
 C    0.1505791334   -0.7466330333    1.4389352353
 N   -1.1917655667   -1.3900501555    1.2127988379
 C   -2.1476280469   -0.2716160740    1.1371518464
 C   -1.3308396376   -0.5552605646   -0.0558448316
 C    1.0288040306   -0.5224382629   -0.9718490737
 C    1.1920903180    0.1862726660   -2.2900677668
 C    2.3300221989    0.1674475003   -1.2978859502
 H    0.9311469386    1.7192942339    0.4748124826
 H    0.9365060858   -1.5035001400    1.4833322769
 H    0.1915906623   -0.1183060687    2.3352241906
 H   -3.1820068521   -0.6008925448    1.1188351470
 H   -1.9590360503    0.6308029977    1.7129547548
 H   -1.7400764439   -0.9693476591   -0.9716684092
 H    1.0494849860   -1.6082673784   -1.0040328249
 H    1.2786157639   -0.4091599841   -3.1917624330
 H    0.6645320238    1.1257694104   -2.4075785542
 H    2.5700422960    1.1028098934   -0.8020994649
 H    3.1956558395   -0.4514691333   -1.5051691292