15

 O   -0.0787733655    0.0114234506    0.0228368407
 C    0.0181487109    1.2175301368   -0.0180062752
 C    1.2799306477    1.9451202012    0.0750801095
 C    1.3748869019    3.4289417576    0.3768330146
 C    1.8408358873    2.9621874590   -0.9511601199
 N    3.1522058102    2.2291438358   -1.0631926986
 C    3.8101865926    2.1400420409    0.2590581736
 C    2.6537085160    1.2660455977   -0.0077465321
 H   -0.8770860057    1.8687290499   -0.1475276661
 H    0.4144654646    3.9359057636    0.3398356328
 H    2.0276590445    3.7972075680    1.1592647667
 H    1.3853722130    3.2812101629   -1.8796796503
 H    4.7910135102    1.6811774140    0.1771646123
 H    3.7707416203    2.9640558470    0.9619635090
 H    2.7287979221    0.1960689250   -0.1591590768