21

 C   -0.0569593622    1.5057947918   -0.0029703946
 C    0.0098372372   -0.0146883455   -0.0029244853
 C    1.3645068294   -0.6719454800   -0.2245443508
 C    0.7411359907   -0.6992499844    1.1428519576
 C   -1.1505410400   -0.6758954610   -0.5451272243
 C   -2.1382932062   -1.1919218481   -1.0057132980
 C   -3.3162425808   -1.8511425493   -1.5558892647
 C   -3.1968641215   -3.3789147808   -1.5340580147
 O   -4.3937824230   -3.8966992825   -2.0902315471
 H    0.8572578197    1.9317961522    0.4221571033
 H   -0.1722628549    1.8916555372   -1.0207226390
 H   -0.9062688174    1.8594549523    0.5899914286
 H    1.3876428632   -1.5926714924   -0.7950287441
 H    2.2100558769   -0.0134387541   -0.3933102525
 H    1.1585238271   -0.0594907975    1.9132811240
 H    0.3396767994   -1.6385678234    1.5037338929
 H   -4.2155395081   -1.5692027603   -0.9941478300
 H   -3.4880265209   -1.5352074093   -2.5924515578
 H   -2.3126847367   -3.6842970458   -2.1134690278
 H   -3.0483688454   -3.7187141342   -0.4980963367
 H   -4.3388433665   -4.8564557051   -2.0840732389