15

 C    0.0193716178   -1.1473678270    0.2338013177
 C    0.0073301036    0.0445858997    0.0758268292
 C   -0.0287208989    1.4722485647   -0.0516547639
 C   -1.2828152391    2.2354069478    0.4348642201
 N   -0.9539209425    3.6154232354    0.0166401263
 C   -0.0201903971    3.4729181276   -0.8363394420
 C    1.4158422302    3.7466866929   -0.4417539036
 C    1.3394272772    2.1810702621   -0.3171004342
 N    0.2797567545    2.0936191496   -1.3566648558
 H    0.0304269776   -2.2020994901    0.3588085244
 H   -2.1781730214    1.7983085531   -0.0280421136
 H   -1.4231020159    2.2364988474    1.5193406478
 H    2.1286385346    3.9801353894   -1.2370915930
 H    1.5472582173    4.3807984045    0.4330268646
 H    2.2234299420    1.5509392129   -0.3983750239