17

 O    0.0009184820   -0.0753699721   -0.1487363406
 C   -0.0135139726    1.1338225703   -0.0004363918
 N   -1.1855603442    1.8479534666    0.1407256814
 C   -1.2923262540    3.2924630392    0.0599303133
 C   -0.0421199892    3.9278383037    0.6980220136
 C    1.2074574321    3.3263722253    0.0267200218
 N    1.1420781887    1.8795245434    0.1098031035
 C   -0.0633027382    5.3794127389    0.5849683477
 C   -0.0811051850    6.5754142687    0.4698638972
 H   -2.0060164658    1.2900912521   -0.0329604746
 H   -1.3835265668    3.6515957889   -0.9764766682
 H   -2.1882087464    3.6178476335    0.5968205982
 H   -0.0241662479    3.6409559236    1.7569202132
 H    1.2613313858    3.6874768850   -1.0116123400
 H    2.1081320842    3.6761201049    0.5397456966
 H    1.9724391420    1.3440623135   -0.0859219295
 H   -0.0967751647    7.6336954146    0.3811807882