19

 O   -0.1276013340    1.4018821385   -0.1247298053
 C   -0.0331315493   -0.0034460925   -0.0066642953
 C    0.6277380077   -0.4929560702    1.3508474790
 C   -0.2477066413   -1.6538769057    1.9762802788
 C   -1.2232473672   -1.9828119742    0.8376156701
 C   -2.7440773057   -1.6797533495    0.6161063976
 C   -2.5380966388   -0.2291009333    1.0781507683
 C   -1.3788205360   -0.6481405174    0.1301495085
 O   -2.3916001429   -1.2442808495   -0.7792319542
 H    0.7616015580    1.7589064824   -0.2114198430
 H    0.4992911124   -0.4388690099   -0.8649555527
 H    1.6536421298   -0.8262380696    1.1720273777
 H    0.6768333124    0.3678047952    2.0237123912
 H    0.3653900395   -2.5132476918    2.2571558355
 H   -0.7431065344   -1.3080104974    2.8860918455
 H   -0.8702232882   -2.7763902658    0.1742685043
 H   -3.6145693425   -2.3313363525    0.6996739378
 H   -3.2309432583    0.4945744300    0.6507801373
 H   -2.3180486812   -0.0348786366    2.1288963089