18

 C   -0.0466973799    1.4915011151    0.1628165825
 O    1.3009061760    1.5942431945   -0.3612180527
 C    1.4881099064    0.1806253643   -0.4748948910
 C    1.0117789969   -0.3438796194   -1.9030348672
 C   -0.2871782147   -0.8004826117   -1.1812533443
 C   -1.7865010308   -0.7610828142   -0.7318483635
 N   -1.0292554120   -1.0563629387    0.6160136858
 C   -0.2042327351   -2.0272303699   -0.2423341044
 C   -0.0078124722   -0.0231259700    0.0667256457
 H   -0.0906548440    1.8753282218    1.1899467566
 H   -0.7809399122    2.0302663123   -0.4514458995
 H    2.4491391442   -0.1519469844   -0.0757799848
 H    0.9236669268    0.4999193801   -2.5898512712
 H    1.5916555195   -1.1435805404   -2.3705928113
 H   -2.2968161378    0.2038361959   -0.7435543297
 H   -2.4603385307   -1.5753901164   -1.0143898377
 H   -0.7521646043   -2.9273492734   -0.5337372274
 H    0.7645925040   -2.2758242355    0.2000678842