20

 C   -0.0104941723    1.3141328572    0.5239281660
 C    0.1520647903   -0.1793362838    0.3190973478
 C    0.4501322374   -0.8310905792   -0.9890280630
 N    1.3824910275   -0.9788252037    0.2182945794
 C    2.4736813686   -0.2254139578   -0.5279512224
 C    3.1676252556    0.9248752079    0.1885713671
 C    3.5124397632   -1.2686328703   -0.9708313901
 C    1.5007785536   -0.0347494783   -1.7185206737
 O    1.6135611423    0.3897139641   -2.8327399438
 H    0.5267018657    1.9185269840   -0.2078543261
 H   -1.0736033164    1.5587060138    0.4265664040
 H    0.3051117339    1.6111408156    1.5293069761
 H   -0.5702585743   -0.7467818673    0.9054558173
 H   -0.1402980111   -1.6438643479   -1.3980175387
 H    3.6711544122    0.5453210355    1.0844122061
 H    3.9305938116    1.3570173370   -0.4662678984
 H    2.4950926847    1.7246625143    0.4929332737
 H    3.0333816125   -2.1331062924   -1.4380544371
 H    4.2057590381   -0.8243231883   -1.6902407246
 H    4.0748785269   -1.6213975405   -0.1014429997