20

 C    0.0147061261    1.4662466187   -0.2134710999
 C    0.0467211748   -0.0412197904    0.0631332238
 C    0.7951079958   -0.3793138460    1.3792261385
 C    2.1750057122    0.1004414740    1.3939617274
 N    3.2653048127    0.4845570536    1.3868056328
 C   -1.3550475759   -0.6215449408    0.1254334979
 C   -2.0303074526   -1.1188785076   -1.1385828418
 C   -1.5844061172   -2.0919103568   -0.0758231853
 O   -0.4413876684   -2.8725533796   -0.2832543587
 H    1.0253031291    1.8791727689   -0.2780323902
 H   -0.5008970163    1.6728530544   -1.1558105245
 H   -0.5172154501    2.0014547267    0.5820863470
 H    0.5888891558   -0.5407350122   -0.7457018016
 H    0.2675949514    0.0578633593    2.2363041570
 H    0.8008988591   -1.4647902381    1.5179041504
 H   -2.0014099412   -0.1406388885    0.8570074080
 H   -3.0912827697   -0.9433438903   -1.2781774711
 H   -1.4396923614   -1.0904025636   -2.0489887812
 H   -2.3561751714   -2.5696105264    0.5274251872
 H   -0.6537427730   -3.5594828953   -0.9233945557