14

 O    0.0915534423    1.3657906696    0.0680590334
 C    0.0733015079    0.0234997297    0.0677585414
 N    0.0765126899   -0.6536570519   -1.0685381120
 O    0.0538849593   -2.0224120680   -0.7028985520
 C    0.0388002523   -2.0650751677    0.6282542536
 C    0.0494440270   -0.8258291911    1.1949892185
 C    0.0309482379   -0.9822109056    2.6839227124
 C    0.0086500581   -2.4996215906    2.8265382074
 C    0.0135455531   -3.1192218601    1.6259366092
 H    0.1055751024    1.6553987892   -0.8545713236
 H    0.9095602712   -0.5515852598    3.1811942880
 H   -0.8463104074   -0.5276172329    3.1618705160
 H   -0.0086934463   -2.9923029181    3.7901014922
 H    0.0011902223   -4.1826068726    1.4355107555