16

 N   -0.0294657173    1.2369584763    0.3161388466
 C   -0.0105990549    0.0119093367    0.0237319034
 O    1.1220148854   -0.7110261941   -0.2561070165
 C    0.8001345609   -1.9632225115   -0.8848432322
 C   -0.6644079932   -2.2157497448   -0.5935132546
 C   -1.0729827374   -2.1322634804    0.8385933448
 C   -1.2044753161   -0.8920669098   -0.0531884892
 C   -2.4940066225   -0.3658630384   -0.3721453496
 C   -3.5883993545    0.0504525708   -0.6421286973
 H    0.9120126696    1.6296425886    0.2689230079
 H    0.9843070358   -1.8819588693   -1.9627674155
 H    1.4682524869   -2.7236950620   -0.4685276200
 H   -1.2482902702   -2.7991588976   -1.2933055687
 H   -2.0086087659   -2.5977306827    1.1223016547
 H   -0.3079860184   -2.1163988119    1.6081772451
 H   -4.5489393883    0.4372427500   -0.8765148489