16

 C   -0.5305852878    1.3293232413   -0.1770436830
 C   -0.0062424176   -0.0589498586   -0.0516242042
 C    0.5133363875   -0.8665081333   -1.0099890838
 N    0.7473367515   -0.7109114641   -2.3683181602
 C   -0.0761540269   -1.2462432809   -3.3455286978
 N   -1.1745661020   -1.8206840235   -3.0747776810
 O    0.8539395606   -2.0680520312   -0.4153636028
 C    0.5104505843   -1.8991415834    0.8729808770
 N    0.0038517066   -0.7445018937    1.1613241431
 H    0.0109203375    2.0128542324    0.4852532466
 H   -0.4352368132    1.6863048007   -1.2050539167
 H   -1.5869363502    1.3698685049    0.1075287875
 H    1.6680992281   -0.4246661956   -2.6631941151
 H    0.3407632308   -1.0858649803   -4.3476415406
 H   -1.6409522715   -2.1144309721   -3.9296153996
 H    0.6890580022   -2.7308494626    1.5374023906