11

 O    0.0531056815   -0.0609943687    0.0032823427
 C   -0.0432757659    1.1444661446    0.0075131073
 C    1.1551536401    2.0017087624    0.0013080991
 N    2.1192537351    2.6388377635   -0.0038404439
 C   -1.3341515771    1.8389844944    0.0189807241
 C   -2.6105616164    1.3546316462    0.0268558462
 C   -3.3978404550    2.5298992471    0.0360975525
 N   -2.6582956989    3.6183645780    0.0338779720
 O   -1.3507510237    3.1866267318    0.0230647663
 H   -2.9192639048    0.3233139133    0.0260611779
 H   -4.4736673351    2.6280715672    0.0442503958