16

 O   -0.1399594810    1.3217720224    0.0088502487
 N    0.0022363079   -0.0778139060    0.0046358946
 C   -1.1195552282   -0.6569418534    0.0112905030
 C   -1.4319638919   -2.1330582972    0.0101407229
 C   -2.3494943625   -2.1633445354    1.2541735148
 O   -3.0561333508   -0.8971016223    1.1870871447
 C   -2.5764382044   -0.2471871884    0.0226039243
 O   -3.0726991276   -0.8917909596   -1.1378834096
 C   -2.3671265318   -2.1576892561   -1.2208185804
 H    0.7763813737    1.6193728079    0.0030073270
 H   -0.6023852482   -2.8355519037    0.0026248005
 H   -3.0742817003   -2.9845146316    1.2280401388
 H   -1.7801801300   -2.2130948643    2.1887516533
 H   -2.8651299673    0.7985909649    0.0270492493
 H   -1.8111851261   -2.2031470231   -2.1636299552
 H   -3.0914934816   -2.9789946641   -1.1881173467