13

 O    0.0796788854    1.3243898717    0.1721253077
 C    0.0681502828   -0.0136602201    0.0004042009
 C    0.0821746099   -0.7973050233   -1.1429658156
 C    0.0573855036   -2.1222289848   -0.6346120039
 C    0.0301407856   -2.1046794511    0.7437278010
 N    0.0367187297   -0.7778061021    1.1402754555
 C    0.0078112711   -3.4615021896    1.1135239309
 N    0.0201978030   -4.2392071138    0.0459964087
 O    0.0522664564   -3.3838085515   -1.0834625755
 H    0.1020228723    1.7488960705   -0.6913161206
 H    0.1062840829   -0.4495237487   -2.1620673303
 H    0.0226166907   -0.3995668481    2.0706097497
 H   -0.0167628971   -3.9292322991    2.0869702215