11

 O   -0.1024775058    0.0606097838   -0.2546338221
 C   -0.0239025727    1.2160639960   -0.0082924696
 O   -1.0215175069    2.0801344436    0.3519246147
 C   -0.0951619216    3.2002342886    0.5061121422
 C    1.0809775138    2.3082641640    0.0362548090
 C    2.1998039013    2.0974981771    0.9246308526
 C    3.1202476932    1.9214952571    1.6760709560
 H   -0.3682572846    4.0254297541   -0.1531002520
 H   -0.0445428478    3.5236026824    1.5462903946
 H    1.4171220124    2.5491149625   -0.9775491970
 H    3.9360529488    1.7587559608    2.3363941014