19

 N   -0.0087351166    1.3507090965    0.1582635294
 C   -0.0336979942   -0.0209995591    0.0036501337
 N   -1.1380701450   -0.6529889870    0.0273759287
 C   -1.2792901477   -2.0935424579   -0.1062381130
 C   -0.5814116683   -2.7954258687   -1.2801127950
 C    0.9381649355   -2.9138888169   -1.1461767839
 C    1.6900617906   -1.5777956131   -1.2490300671
 C    1.3940685054   -0.5602506530   -0.1687442057
 O    2.2684814610   -0.0996402050    0.5345610228
 H    0.8419003995    1.7078207790    0.5688868208
 H   -0.8655354948    1.7392833465    0.5257396290
 H   -0.9705935454   -2.5793055667    0.8335929569
 H   -2.3543594052   -2.2867071405   -0.1931790047
 H   -1.0051648289   -3.8039311061   -1.3602528121
 H   -0.8364781079   -2.2754733563   -2.2128731443
 H    1.1874367709   -3.4010245176   -0.1945908901
 H    1.3237637431   -3.5682581031   -1.9356717110
 H    2.7712190486   -1.7392906469   -1.2336245155
 H    1.4338186593   -1.1010396540   -2.2065124186