18

 O    0.0078090444    0.0412040032   -0.0148738212
 C   -0.0112341495    1.2405812143    0.0202416226
 C   -1.2156908947    2.1785038723    0.0528992795
 C   -0.7229947252    3.3074262173    0.9868045696
 N    0.7512002381    3.1178796062    1.0960485011
 C    1.1579622463    2.2264034231   -0.0039089743
 C    1.1137014456    2.8819944641   -1.3825851513
 C   -0.0531005406    3.1054387321   -1.9932832101
 C   -1.3799326180    2.6794524083   -1.4089456738
 H   -2.1224923529    1.6827412124    0.4005378805
 H   -0.9909331102    4.2918509110    0.5819238273
 H   -1.1751467781    3.2255801816    1.9812131869
 H    1.2358617104    4.0068210856    1.0515859705
 H    2.1178985361    1.7513078246    0.2021189394
 H    2.0518762582    3.1826779238   -1.8410577346
 H   -0.0785149086    3.5986742101   -2.9619559796
 H   -1.8146869670    1.8784264267   -2.0233983046
 H   -2.0983301940    3.5093176635   -1.4413548579