14

 O   -0.1209941278   -0.0525672660   -0.1000738879
 C   -0.0643743455    1.1577076273   -0.0215793439
 C    1.1743092238    1.9165221976   -0.0014531351
 C    1.1830651199    3.2590302201    0.0806416564
 N    2.3706070184    3.9454537808    0.0662180416
 C    3.5768513593    3.3767246381   -0.3662380598
 O    4.5525381778    4.0453968294   -0.5674259687
 O    3.5474458830    2.0549716542   -0.5919870885
 C    2.4996832129    1.2157659187   -0.0481139515
 H   -0.9867651930    1.7778919005    0.0458485586
 H    0.2788342559    3.8546496106    0.1516668531
 H    2.3906617980    4.9519044379    0.1138137836
 H    2.8157729134    0.8836473139    0.9496094110
 H    2.4562341639    0.3369040470   -0.6930920089