17

 N   -0.2467110895    1.1936591480   -0.4034152453
 C   -0.3518783753   -0.0556436223   -0.5208174220
 O   -1.0228554194   -0.7588230474    0.4258957080
 C   -1.0855618182   -2.1596215517    0.2632396646
 C   -1.6507575388   -2.8460533043    1.5237727196
 N   -2.9360166449   -3.0832661115    0.8225577837
 C   -2.3564500573   -2.7072764505   -0.4797481998
 C   -3.1602418641   -1.6917240484   -1.2697224035
 O   -2.7848991490   -1.2320089514   -2.3178224166
 H    0.2823067539    1.5727924985   -1.1859465567
 H    0.0500329484   -0.6800246807   -1.3280421414
 H   -0.1347108825   -2.5445364678   -0.1146742887
 H   -1.0937686774   -3.7499164380    1.7986462933
 H   -1.7333611307   -2.1925894597    2.3970551796
 H   -3.2994445728   -4.0263625384    0.8855157558
 H   -2.0905070718   -3.5362950283   -1.1504726150
 H   -4.1155180206   -1.3911008564   -0.7874034155