20

 C   -0.1304202296    1.5579166078   -0.0041686022
 C    0.0483887820    0.0432595390    0.0114555938
 C    1.0629117044   -0.5653544211   -0.9890998858
 C    2.4220748280   -0.0082761812   -0.4905793979
 C    2.2325981643   -0.0349501826    1.0591077213
 C    0.7769891843   -0.5802164060    1.2284248616
 C    0.8812067777   -2.0477517749    0.7917286944
 O    0.9525472147   -3.0467238953    1.4699280484
 N    0.9623361776   -1.9746685983   -0.5885939529
 H    0.8044070346    2.1040915121    0.1461654166
 H   -0.5552634262    1.8853396351   -0.9593679464
 H   -0.8226040339    1.8666669023    0.7859151320
 H   -0.9261064188   -0.4336052717   -0.1350156610
 H    0.8502241213   -0.4249898150   -2.0498401130
 H    3.2511257908   -0.6359464522   -0.8266096784
 H    2.6032364800    1.0028017888   -0.8663088214
 H    2.9583573206   -0.6745372379    1.5659498309
 H    2.3198716685    0.9637633336    1.4934349905
 H    0.3440971604   -0.4499754926    2.2185924015
 H    1.4009215193   -2.7238418001   -1.1037353419