13

 N   -0.1147230952    1.2102702394   -0.5164631029
 C   -0.0603786072    0.0425322451   -0.0723990154
 O    1.0017146554   -0.6696060171    0.4788153707
 C    0.2067763128   -1.8883855106    0.5732558870
 C   -0.5237942765   -2.0503371087    1.9181824964
 N   -1.6128613731   -1.1444469667    1.4453482590
 C   -1.0353710716   -1.1132133809    0.0709348868
 H    0.7806595695    1.6924598648   -0.4182198763
 H    0.7056771592   -2.7312686287    0.0983898342
 H   -0.8422688646   -3.0857470793    2.0890652476
 H    0.0123615016   -1.6869685965    2.7999395491
 H   -2.5313875813   -1.5687360131    1.4750813604
 H   -1.6827573891   -1.3706342877   -0.7659042266