20

 C   -0.3481814436    1.6516707652   -0.1828339090
 C   -0.0084604421    0.1612045301   -0.0590727546
 C   -1.2722676770   -0.6649466025    0.2222145829
 O   -1.8343745093   -0.2255078859    1.4519221854
 C    0.7107767663   -0.3909383869   -1.2633501259
 C    0.7790870446    0.1590273571   -2.5262793807
 N    1.5120287491   -0.6845568059   -3.3237899718
 C    1.9213338053   -1.7715871415   -2.5958015701
 C    1.4399642053   -1.6195746747   -1.3180741737
 H    0.5555861995    2.2504544845   -0.3291025264
 H   -1.0158592084    1.8327101676   -1.0337340184
 H   -0.8587281194    1.9974798326    0.7181159352
 H    0.6390299950    0.0326439333    0.8192759296
 H   -1.9796461539   -0.5342710618   -0.6132044662
 H   -1.0093410730   -1.7325213715    0.2659936160
 H   -2.6507503893   -0.7109421696    1.5993172704
 H    0.3786736840    1.0791795685   -2.9189204258
 H    1.7317703303   -0.5183264647   -4.2896087571
 H    2.5179447155   -2.5498218328   -3.0440114432
 H    1.5959308912   -2.3057126710   -0.4986860567