21

 O   -0.1318432446    1.4636835109   -0.1310482210
 C   -0.0242774623    0.0499555479   -0.2120005472
 C   -1.3631046904   -0.5442827831    0.2171460523
 C   -1.3846440850   -2.0555536453    0.1682215053
 C   -1.6736355804   -2.7464556986   -1.1434445938
 C   -2.6798624588   -2.8391282511   -0.0097311412
 C   -2.5440010890   -4.0451777823    0.8554364921
 C   -1.3647361151   -4.0728633220    1.4805272615
 C   -0.5363476071   -2.8407615774    1.1811856654
 H    0.7103811526    1.8451086845   -0.3947513909
 H    0.2118635839   -0.2768609953   -1.2374625866
 H    0.7793360688   -0.3251227261    0.4421906550
 H   -1.5875478883   -0.1943958675    1.2328142262
 H   -2.1429801408   -0.1344025603   -0.4352329329
 H   -1.9265456311   -2.1075985953   -1.9845510807
 H   -1.1274285504   -3.6472470522   -1.4056717719
 H   -3.6388697607   -2.3436490950   -0.1206377221
 H   -3.3098531044   -4.8098203453    0.9214260950
 H   -1.0077117520   -4.8738669024    2.1179471987
 H    0.4566290490   -3.0965730120    0.7889503692
 H   -0.3612996538   -2.2480185321    2.0910925076