15

 O    0.1856847542    1.3387380491   -0.0711469851
 C    0.0355629615   -0.0506959844   -0.0715244045
 C   -1.4121542899   -0.4610729687   -0.0296749857
 N   -2.3372066467    0.4230951918    0.0028329902
 C   -3.6441550691   -0.0489722118    0.0409972754
 C   -3.9465990333   -1.3603459234    0.0443848127
 C   -2.8892125005   -2.3477752630    0.0070176318
 N   -3.0506146475   -3.6011189388    0.0066635827
 O   -1.5883524960   -1.7935269331   -0.0304349582
 H   -0.7111733982    1.7051812105   -0.0401497041
 H    0.4902457175   -0.5006221344   -0.9684268551
 H    0.5424607408   -0.5075977118    0.7934285010
 H   -4.4129088749    0.7154964946    0.0682882497
 H   -4.9628560960   -1.7287347444    0.0743013411
 H   -2.1571299718   -4.0921513221   -0.0230736219