17

 C   -0.0533022965    1.5577187497    0.0267232001
 C    0.0358154445    0.0551973565    0.0274910356
 C    0.9619686328   -0.8168731911   -0.8832576940
 N    0.7356884455   -1.9383355932    0.1122118500
 C    0.6696062158   -0.8331614517    1.1485812680
 C   -0.7178045218   -2.1874398981   -0.0989263266
 C   -1.2542324785   -0.7388409503   -0.1645070724
 O   -2.3743774497   -0.3342749650   -0.3225200041
 H    0.9277360246    2.0205962879    0.1713019964
 H   -0.4687730811    1.9184109143   -0.9197418310
 H   -0.7190919932    1.9044541920    0.8235988876
 H    0.6542135016   -1.0335302197   -1.9105703086
 H    2.0064555084   -0.4957895079   -0.8607690988
 H    1.6773380308   -0.5141331727    1.4265212389
 H    0.0851970995   -1.0652291950    2.0439228229
 H   -0.8962729663   -2.7390991623   -1.0263237392
 H   -1.1492462166   -2.7531866233    0.7317567952