16

 C   -0.0110637097    1.5774240445    0.0547386365
 C    0.0449932074    0.0467948714   -0.0356113445
 C    0.8407396469   -0.5177548423   -1.2391188789
 O    1.2934014610    0.5329052549   -2.0858257758
 C    1.9860895745   -1.2810734781   -0.6010459348
 C    1.9254546371   -1.3073417199    0.7327636804
 C    0.7440927556   -0.5443160165    1.2039678648
 O    0.3858182547   -0.3928926669    2.3483345086
 H    0.9917815970    2.0111135525    0.0486960938
 H   -0.5616330180    2.0003928454   -0.7880849683
 H   -0.5078060816    1.8580414938    0.9869266452
 H   -0.9802934353   -0.3387144916   -0.0448044121
 H    0.2127361225   -1.2134236798   -1.8176277634
 H    1.7230563911    0.1380396506   -2.8512435859
 H    2.7568160406   -1.7477014657   -1.2078738736
 H    2.6144710360   -1.7903929523    1.4142753882