15

 C    0.0855785324    1.3536014655   -0.1233148587
 N   -0.1775404493   -0.0458530827    0.1425851769
 C    0.5559720398   -0.6589195093    1.1468587155
 C    1.2660592332   -0.0973710439    2.1766699957
 N    1.7429262474   -1.1955926753    2.9144124031
 C    1.3091216767   -2.3006286335    2.2783577637
 O    1.6241591189   -3.5198178473    2.7500991718
 N    0.5934657175   -2.0426648775    1.2138099452
 H    1.1468340941    1.5717547339   -0.3296853955
 H   -0.5129904917    1.6789267743   -0.9772454350
 H   -0.2157567119    1.9571642288    0.7409548967
 H   -0.2345726082   -0.6279726951   -0.6808289575
 H    1.4704196724    0.9160514038    2.4693177008
 H    2.3066251754   -1.1738187043    3.7454592256
 H    1.2040819834   -4.1530290475    2.1550471017