15

 O   -0.1209390359    0.2488767303    0.6873015132
 C    0.0153618009    1.2349472915   -0.0048112744
 N    1.1894381238    1.6568736822   -0.5483329101
 C    2.4578799106    0.9822576313   -0.3169678464
 C    3.5351855704    1.9472229410    0.1151530529
 C    4.9559469468    1.6719923412   -0.1983163396
 N    4.2466346078    2.7668384871   -0.8866691730
 H   -0.8236195718    1.9077462719   -0.2715370597
 H    1.1872813681    2.5077338389   -1.0888441304
 H    2.2652019299    0.2308567601    0.4536841804
 H    2.7837655857    0.4488548064   -1.2225497397
 H    3.3050652724    2.4950892439    1.0266232587
 H    5.7345816410    1.9888560222    0.4887593772
 H    5.1883754159    0.7701377654   -0.7594181112
 H    3.9943472244    2.4587404367   -1.8243170779