19

 C   -0.2634358608    1.4044604623   -0.0478273635
 C    0.0412608035   -0.0665806680    0.1164300821
 C    1.3944609723   -0.6181383135   -0.1822376417
 N    0.9030380293   -0.5701293223    1.1927362152
 C    1.5335562855    0.3323408921    2.1192120701
 C    0.7941740321    0.6118185957    3.4151105918
 C    1.9672695514   -0.3389811592    3.4022023160
 O    1.7548599430   -1.7066288581    3.5269409074
 H    0.6252149950    2.0260988750    0.0865088113
 H   -0.6568624359    1.5944484589   -1.0519661232
 H   -1.0184966856    1.7329873421    0.6738293579
 H   -0.8116180346   -0.7182888798   -0.0684834617
 H    1.5173075877   -1.6075480251   -0.6145182998
 H    2.1680107108    0.0964997766   -0.4603424338
 H    2.1579973953    1.1249992507    1.7083920116
 H    0.9061125322    1.5931384605    3.8637694681
 H   -0.1870468816    0.1625901910    3.5247074634
 H    2.8963446959   -0.0232896086    3.8669687377
 H    1.2723827046   -1.9569977303    2.7221833712