21

 C    0.1043820334    1.5018214351    0.2169660494
 C   -0.0418106658    0.0128269847   -0.1429917523
 C   -1.4582324472   -0.4792008767   -0.1112808446
 C   -2.1443275422   -1.0226186541   -1.1253275137
 C   -3.4849712878   -1.4853514171   -0.6697286481
 O   -3.4181482272   -2.5043096199    0.3631673372
 C   -3.6059951592   -1.1391998523    0.7590372704
 C   -4.8889651357   -0.8253031727    1.4783717608
 C   -2.2978930334   -0.4524719246    1.1595806843
 H    1.1530431787    1.8100503481    0.1683877312
 H   -0.4663415272    2.1294190043   -0.4748397770
 H   -0.2552130586    1.7076059482    1.2300168386
 H    0.3790123381   -0.1677063464   -1.1383913000
 H    0.5608912749   -0.5798058640    0.5599170854
 H   -1.7692362429   -1.1637869520   -2.1322703462
 H   -4.3338000736   -1.5742314629   -1.3419843537
 H   -5.7245712252   -1.3612872349    1.0214894787
 H   -4.8282818839   -1.1267173715    2.5303978308
 H   -5.1016876847    0.2486801598    1.4498973871
 H   -1.8053507023   -0.9829066080    1.9843490621
 H   -2.4798724781    0.5728782669    1.5071204795