17

 C   -0.1313644160    1.5140649960   -0.0997748027
 C    0.0085209389    0.0355626832   -0.0540058003
 C    0.5994423662   -1.0607949171   -0.8896809549
 C    1.3164536114   -1.5970979485    0.3374121637
 N    0.3191592412   -0.8233475887    1.1966050165
 C   -0.9418461198   -1.5499995728    0.8852706801
 N   -1.8101028930   -2.0949016185    1.6119507885
 C   -0.8983025566   -1.1206418041   -0.5263683636
 O   -1.8474154078   -1.1680636381   -1.5096885861
 H    0.8247040294    2.0188763216    0.0743435469
 H   -0.5064051224    1.8211926432   -1.0814245201
 H   -0.8402454110    1.8596473685    0.6602670975
 H    0.8941519005   -1.0304931877   -1.9323670323
 H    1.3209071503   -2.6759062015    0.5260217829
 H    2.3189271693   -1.1836731200    0.4737089814
 H   -1.5112272629   -2.0828876945    2.5896991369
 H   -2.7040313778   -1.0031160410   -1.0972842243