18

 C   -0.1018926817    1.5321427452    0.2783190526
 C    0.0800039613    0.0598245570   -0.0340955178
 C   -1.1852329246   -0.8546362729    0.0628193915
 C   -0.5157178309   -1.6464149222    1.2352778107
 O   -0.4449726417   -3.0423217757    1.1728280964
 C    0.8010775925   -0.8613256456    1.0064792641
 O    1.7462204119   -1.6064765642    0.2025280016
 C    1.6676496426   -1.0623596296   -1.0502088764
 N    0.8234341911   -0.1530013965   -1.2920593015
 H    0.8646443669    2.0430609240    0.3280600482
 H   -0.6997553067    2.0117488625   -0.5023940051
 H   -0.6152853703    1.6684582890    1.2358082643
 H   -2.1221074578   -0.3505796953    0.3118686686
 H   -1.3322379420   -1.4582264229   -0.8351766244
 H   -0.9636292045   -1.3889520678    2.2001323805
 H    0.2769531509   -3.2590470914    0.5696956290
 H    1.3312952019   -0.4529487000    1.8695251207
 H    2.3727306011   -1.4835609637   -1.7581689729