17

 C   -0.0696688070    1.5276888430    0.0052327544
 C   -0.0145517863    0.0264146863   -0.0204054563
 C   -0.0131632304   -0.6769546808   -1.1743520668
 C    0.0171991011   -2.1242784721   -1.2149139081
 N    0.0180708297   -2.7975923238   -2.2957062367
 O    0.0405044404   -2.7614501652    0.0190268581
 C    0.0697542197   -2.0523802304    1.1789215735
 C    0.0285893034   -0.7068729873    1.2372524209
 N   -0.0677210844    0.0063577765    2.4526646902
 H    0.8445415549    1.9553879691    0.4376088518
 H   -0.1814380871    1.9332946390   -1.0021068394
 H   -0.9042367974    1.8741551869    0.6238253400
 H   -0.0441213197   -0.1870574443   -2.1397999957
 H    0.0394101093   -3.7972333475   -2.0927323866
 H    0.1041534017   -2.7044596647    2.0434500526
 H    0.0324323547   -0.5955943920    3.2609717749
 H    0.6084730872    0.7583388673    2.5219407232