20

 C   -0.1462107044    1.5401641318    0.0101159100
 C   -0.0719816708    0.0349493519    0.0021170020
 C   -0.0313945617   -0.6843674663   -1.1914230456
 C    0.0648923902   -2.0762231495   -1.1598975962
 C    0.1105830498   -2.8903149226   -2.4280612157
 N    0.1186430226   -2.7645151186   -0.0130553385
 C    0.0774394593   -2.0878391300    1.1411991260
 C    0.1368044844   -2.9147224300    2.4004879001
 C   -0.0184034521   -0.6963797542    1.1878218304
 H    0.8586438332    1.9798845319    0.0061382868
 H   -0.6700768859    1.9190517192   -0.8719802547
 H   -0.6591912019    1.9101571041    0.9023230571
 H   -0.0765149428   -0.1662449717   -2.1443455763
 H    1.0304025329   -3.4827090752   -2.4668189533
 H   -0.7240454318   -3.5981947260   -2.4564831027
 H    0.0637723459   -2.2587584608   -3.3186721836
 H    1.0563962837   -3.5083032967    2.4227366236
 H    0.1007620466   -2.2921422225    3.2978930014
 H   -0.6981607189   -3.6221176004    2.4313398671
 H   -0.0530907084   -0.1879007242    2.1463578619