21

 C    0.1144426890    1.4789656598    0.4396451182
 C    0.0405640420   -0.0419383620    0.3561164780
 O    0.4332274672   -0.6596278815    1.5833357024
 C   -1.3674358725   -0.5257427839   -0.0638796623
 O   -1.7848917457    0.0643031295   -1.2836256001
 C   -1.4732561848   -2.0647568715   -0.1031069264
 C   -2.9367980605   -2.5432995949   -0.2093316420
 C   -0.6943283533   -2.6819116746   -1.2436803878
 O   -0.2331353084   -2.0833285519   -2.1902036959
 H    1.1273299901    1.7991602732    0.6977967530
 H   -0.1776220769    1.9300780719   -0.5107312728
 H   -0.5734206571    1.8551000339    1.2090732490
 H    0.7651672678   -0.4010519683   -0.3835830072
 H   -0.0303470905   -0.2074642163    2.2971453848
 H   -2.0755950277   -0.1639592741    0.6965496285
 H   -1.2269618916   -0.3321048808   -1.9688919635
 H   -1.0364483731   -2.4639650987    0.8207847678
 H   -3.4845614920   -2.2807192979    0.7000044784
 H   -3.4262452834   -2.0592633021   -1.0583559091
 H   -3.0016943224   -3.6287257694   -0.3380073631
 H   -0.5847186761   -3.7878733404   -1.1821527700