17

 C   -0.0180364684    0.7942301835   -0.6634449644
 O   -0.2748813596    0.6538008779    0.7346111604
 C    0.5145721755   -0.2450499805    1.3662661922
 C    0.9498508235   -1.5181544785    1.1077477044
 O    0.6970475793   -2.2639305205   -0.0014255472
 N    1.7191657406   -1.9857264074    2.1356548039
 C    1.7564173767   -1.0228357974    3.0394676982
 C    2.4565288478   -1.0851684585    4.3540784841
 N    1.0445256474    0.0594125725    2.6112747381
 H   -0.1692997417   -0.1534793218   -1.1894542183
 H   -0.7265680828    1.5386934208   -1.0311049104
 H    1.0080598021    1.1409957944   -0.8381616602
 H    1.1917185063   -3.0839746252    0.1135623251
 H    3.2002235702   -0.2869447639    4.4647285301
 H    1.7593126846   -1.0047368264    5.1969450737
 H    2.9704602843   -2.0446412170    4.4272264692
 H    0.8940079241    0.9287304880    3.0952317810