19

 O    0.0052786612    0.0313757075    0.2998853339
 C   -0.0436608571    1.2038907614    0.0268545147
 C   -1.3264954550    1.9707761115   -0.3429908929
 C   -0.9073218658    3.3665418980   -0.8645613379
 C    0.5989795939    3.5346104864   -0.5334357459
 C    1.0348805687    4.1921018822    0.7936967375
 C    0.4121393047    3.5290157301    1.9895519477
 C    1.5632809857    2.8477664173    1.3038271993
 C    1.1357541418    2.1688043938   -0.0204829812
 H   -1.8975973121    1.3852923350   -1.0694109812
 H   -1.9512447876    2.0240840648    0.5567117842
 H   -1.0561344681    3.4196556221   -1.9471832960
 H   -1.5070521249    4.1683915999   -0.4246142980
 H    1.1616376818    3.9367382622   -1.3773371044
 H    1.4932958836    5.1709371907    0.8682409887
 H    0.6704344601    3.9852050949    2.9402128566
 H   -0.5964565268    3.1278245928    1.9695459869
 H    2.4831147194    2.6207804385    1.8273764028
 H    1.9753604464    1.7362852510   -0.5668483748