16

 N   -0.0174664035    1.3296803834   -0.2700912095
 C   -0.0007832685    0.0930079783   -0.0228490410
 O    1.1331619639   -0.6755894986    0.1364313075
 C    0.7002952161   -1.9776231442    0.5824238559
 C    0.0604217056   -1.8099781368    1.9843529833
 C   -1.3709613628   -1.6013350503    1.4581331166
 O   -1.5507335431   -2.8417117993    0.7037237888
 C   -0.6238344422   -2.2417139683   -0.2207718967
 C   -1.1698690000   -0.8333306776    0.0941518475
 H    0.9349656376    1.6974153947   -0.3216364356
 H    1.5300563772   -2.6713246442    0.4751849032
 H    0.1033798763   -2.7121201596    2.5969107523
 H    0.4974153430   -0.9672727689    2.5235483912
 H   -2.1819478236   -1.3682427183    2.1450962221
 H   -0.5783270089   -2.6974217806   -1.2080749201
 H   -2.0889362972   -0.5177396395   -0.3891302954