16

 N   -0.0813435329   -1.0743548811    1.3105843661
 C   -0.1030916882   -0.0338565532    0.8046595090
 C   -0.1536595756    1.2622560558    0.1762394889
 C    0.7579095571    2.3455713763    0.7408321275
 C    1.0809770634    1.7238616800   -0.5819392592
 C   -1.5252296782    1.6474379642   -0.3231531843
 N   -1.5742915796    2.7384788165   -1.2997118796
 C   -1.9650690865    1.3790896501   -1.7145120905
 H    0.3475899356    3.3488136965    0.7364210725
 H    1.3659465782    2.0931373193    1.6009978117
 H    1.9130573382    1.0330868289   -0.6411054518
 H    0.8834723048    2.3118998990   -1.4700804243
 H   -2.2940835079    1.6212551139    0.4464226157
 H   -2.3949916900    3.3159830007   -1.1434862071
 H   -1.2789264287    0.9053240518   -2.4102680596
 H   -3.0154189397    1.1650671513   -1.8890842149