17

 O    0.4218933754    0.9100859246   -0.7000902115
 C    0.0263617721   -0.2473973755   -0.0370881558
 C    0.1474851268   -0.2982780982    1.5271393416
 C   -1.3710560310   -0.6535415204    1.6442211505
 C   -2.3051215509    0.5796640374    1.7857173514
 N   -2.1489506225    0.8687809303    0.3345835968
 C   -1.5092462878   -0.4459561070    0.0856101621
 C   -1.7329442647   -1.8625573507    2.3370039093
 N   -2.0266251111   -2.8366618309    2.8883804044
 H   -0.2665986171    1.5616296602   -0.4861390357
 H    0.5260164084   -1.0979195238   -0.5087157142
 H    0.8181457460   -1.0688116217    1.9097034834
 H    0.4055364908    0.6594033968    1.9850576280
 H   -3.3215528912    0.2916759668    2.0736680585
 H   -1.9544854040    1.3775984950    2.4482163293
 H   -3.0195690068    1.0174533562   -0.1591033966
 H   -2.0320510024   -1.1310854792   -0.5834172414