15

 O   -0.0021967579   -0.0267031604    0.2588185863
 C   -0.0116059008    1.1512728047    0.0230773892
 O   -1.1888723641    1.8003922863   -0.1722171454
 C   -1.1259912153    3.1806881595   -0.4443839183
 C   -0.1625317562    4.1222544156    0.2090713168
 C   -0.0783151458    3.8205563006   -1.3015556968
 C    1.2982252185    3.1597329054   -1.0711285239
 C    1.2163326441    3.4531237047    0.3978681605
 C    1.1949135110    2.0054582438   -0.0802744610
 H   -2.1345888957    3.5562606607   -0.5756251236
 H   -0.4766483082    5.0202303728    0.7242787517
 H   -0.3163060438    4.4458351149   -2.1517647231
 H    2.1368558482    3.2366659936   -1.7485931094
 H    1.9791891786    3.8015271000    1.0796622864
 H    2.1157449276    1.4574771978    0.0804985505