25

 C   -1.9323805799    1.4878305335    2.2321128292
 C   -1.7420105137   -0.0084527273    2.1109690513
 C   -0.8710620382   -0.6014576350    1.0296632785
 C   -0.4451995729   -0.7044491821    2.4789784315
 C    0.7541611604    0.0469483811    2.9716111146
 C    1.1357259294    0.1137890053    4.4409397748
 C    0.3206977297   -0.5593077346    5.5257046430
 C    2.0096591739   -0.6514039365    3.4661215481
 C    2.1631897717   -2.1576610857    3.4953922177
 H   -1.0345270820    2.0399581677    1.9405259699
 H   -2.7487160144    1.8286114994    1.5853754851
 H   -2.1789880647    1.7778822440    3.2598136948
 H   -2.6386048623   -0.5776473871    2.3455391839
 H   -1.2009266840   -1.4959886483    0.5120696104
 H   -0.3188293152    0.0923527175    0.4019609039
 H   -0.5798217693   -1.6862674393    2.9205706461
 H    0.9426202815    0.9598089002    2.4129450253
 H    1.5430017377    1.0712217014    4.7585812737
 H   -0.1076882653   -1.5119299782    5.2056474628
 H    0.9342428093   -0.7571168446    6.4120403537
 H   -0.5126306856    0.0804680465    5.8373246868
 H    2.9352698628   -0.1463429294    3.1986050434
 H    1.2539284135   -2.6737367334    3.8116952777
 H    2.4284927495   -2.5424839583    2.5043267290
 H    2.9595681382   -2.4517642467    4.1883576650