19

 C    0.1770172057    1.4966567458    0.1626699862
 C   -0.1429909606    0.0100776635    0.0085541198
 O   -1.5430111672   -0.2424517565   -0.0009083929
 C    0.5114294997   -0.5617605768   -1.2363587944
 N    1.8845039554   -1.0579223933   -1.1215456297
 C    0.7968493015   -2.0257147231   -1.4052677391
 C    0.5000926442   -3.0702387397   -0.3469820733
 C    0.7052834137   -2.5097071820   -2.7680715076
 N    0.6467183416   -2.9008187507   -3.8555019556
 H    1.2569240687    1.6538504298    0.2425533061
 H   -0.1843081565    2.0655337258   -0.7035754962
 H   -0.3046296945    1.8949062900    1.0593106169
 H    0.2377488230   -0.5259986243    0.8819367734
 H   -1.9406614000    0.2946176388   -0.6953872084
 H    0.2477608062   -0.0343204930   -2.1542549746
 H    2.4220021872   -0.8583855062   -1.9614346293
 H    0.6948340124   -2.6656961813    0.6464076389
 H   -0.5445977859   -3.3871013224   -0.4022045520
 H    1.1396129055   -3.9457485945   -0.4896738583