18

 O    0.1224730822    1.4334964253   -0.1650581925
 C    0.0839856220    0.0182289919   -0.0182115478
 C    0.7580492755   -0.4633732496    1.2657216924
 O   -0.1125667376   -0.3140594849    2.3838832692
 C   -1.4140796126   -0.7616224978    2.1273180934
 C   -1.7057212310   -1.7107069937    0.9196293965
 N   -3.1385471112   -1.2357247624    1.0349152433
 C   -2.2967264501    0.0200205856    1.1135117382
 C   -1.3560445366   -0.5058397201   -0.0159181877
 H   -0.2427645175    1.8154535997    0.6411961219
 H    0.6356831239   -0.3737668336   -0.8794885896
 H    1.0451800311   -1.5206119485    1.1566133632
 H    1.6550747067    0.1226291515    1.4798368667
 H   -1.8962932481   -1.0219061663    3.0694007123
 H   -1.4624591031   -2.7676847810    0.7990951226
 H   -3.5674217885   -1.2804900119    0.1053081771
 H   -2.7454494016    1.0092070813    1.2210630835
 H   -1.8134566835   -0.5339322754   -1.0100271227