14

 C    0.3201808647   -0.1053307195   -1.2086695788
 C    0.1232435311    0.5540817588   -0.2237837561
 C   -0.0807230115    1.3771392344    0.9716757289
 N    1.0393583034    2.2494895727    1.3205911530
 C    1.4051231327    3.2609815959    0.4600912943
 N    2.6176130861    3.7594121054    0.4297831784
 O    2.5652348617    4.7903839151   -0.4836169116
 N    1.3262944988    4.9131498635   -1.0235146964
 C    0.5953762102    3.9903520918   -0.4658695873
 H    0.4924594290   -0.6906737088   -2.0784050710
 H   -0.9779738467    1.9952632692    0.8514402030
 H   -0.2745605870    0.7369045359    1.8381823712
 H    1.8388885370    1.7615357590    1.7015702240
 H   -0.4424690196    3.8687474866   -0.7309044616