15

 N   -0.2848175063    1.1172733745    0.0143454823
 C   -0.5149061589   -0.0876672808   -0.2738394216
 O   -0.8514183779   -0.9551245450    0.7128729594
 C   -1.0034444516   -2.2982169266    0.3478955036
 C   -2.2713944231   -3.0204695698    0.7011650639
 C   -3.4499145142   -2.0886118945    0.4291665166
 O   -2.9934830761   -1.8332599344   -0.9312056017
 C   -1.9166342578   -2.7432783401   -0.7573923215
 H   -0.0621176607    1.6374924640   -0.8318105215
 H   -0.4803982063   -0.5525798218   -1.2653609611
 H   -0.0990348389   -2.8925265718    0.4647203852
 H   -2.2959920895   -3.9320961832    1.2820244782
 H   -4.4162005892   -2.6007943622    0.4106310522
 H   -3.5072754810   -1.1733983569    1.0251224238
 H   -1.6369005684   -3.3718042813   -1.5958478979