21

 C   -0.1355559621    1.5799345983   -0.0129408394
 C    0.0149265553    0.0681782030    0.0154659225
 O    0.7992760196   -0.3956818897   -1.1182556210
 C    1.8901838257   -1.1503395864   -0.5682772938
 C    2.8197686688   -0.1653549198    0.1466031979
 O    2.0465740033    0.2124241022    1.3093306482
 C    0.8111002046   -0.5087154391    1.2012602872
 C    1.2574970033   -1.8743884120    0.6378188210
 C    0.1887853861   -2.9123236182    0.3132446192
 H    0.8250059357    2.0708456457    0.1548132219
 H   -0.5356469905    1.8973036944   -0.9798249700
 H   -0.8314784001    1.9056018351    0.7679973791
 H   -0.9794110578   -0.3979568132   -0.0382359932
 H    2.3422886595   -1.7493466464   -1.3591767345
 H    3.7692714147   -0.6159465612    0.4635280197
 H    3.0240778899    0.7144348130   -0.4724871390
 H    0.3051643254   -0.4876836980    2.1668886899
 H    2.0209771258   -2.3005933989    1.2957490409
 H   -0.4814916307   -2.5695382829   -0.4782363169
 H    0.6532919026   -3.8431710198   -0.0276714215
 H   -0.4130775291   -3.1513436861    1.1966165519