21

 C    0.3089292532    1.4293344761    0.2206201599
 C   -0.1631620963    0.0114047171   -0.1263436056
 C    0.5768607052   -0.5496781520   -1.3249963344
 C    1.8616743536   -1.3149228142   -1.1679651595
 C    0.5912296009   -2.0383827349   -1.6421793549
 N   -0.1199734089   -2.9792425737   -0.8253430892
 C    0.6021094604   -4.2086732216   -0.5196178768
 C    0.5643732338   -2.3843597423   -3.0510021729
 N    0.5624008970   -2.6625525673   -4.1739280016
 H    1.3788992505    1.4420133850    0.4513399459
 H    0.1400883729    2.1154492724   -0.6157518030
 H   -0.2302352489    1.8201385624    1.0883510168
 H   -0.0133475940   -0.6347584708    0.7472407596
 H   -1.2410329377    0.0213558222   -0.3306810738
 H    0.5147673492    0.0829067972   -2.2064194168
 H    2.6673887227   -1.1590453281   -1.8757742724
 H    2.1787130328   -1.5540523942   -0.1575921321
 H   -0.4828982798   -2.5392050432    0.0080818396
 H   -0.0276965853   -4.8456532214    0.1068638993
 H    0.8049809642   -4.7503123099   -1.4490092075
 H    1.5644373346   -4.0498832088   -0.0051981308