16

 C    0.0601097139    1.3811630889    0.0443873874
 O    0.0243089555   -0.0496900651   -0.0302680999
 C    0.6422259638   -0.5718760378   -1.0847486132
 N    1.2585997465    0.0641106917   -2.0290685789
 N    1.7142388079   -0.9566406241   -2.8652091512
 C    2.4625902282   -0.6587629064   -4.0576853263
 C    1.3733543054   -2.2141631250   -2.4283978741
 O    1.6107010755   -3.2987214983   -2.9177717687
 N    0.6646416317   -1.9282247583   -1.2467463298
 H    1.0933729337    1.7352247831    0.0968394244
 H   -0.4227711219    1.8216196259   -0.8323044580
 H   -0.4818447213    1.6417272829    0.9529262199
 H    1.8735819492   -0.0436108315   -4.7455942720
 H    3.3903476147   -0.1303836232   -3.8154796474
 H    2.6985124778   -1.6131013187   -4.5313688148
 H    0.2534754692   -2.6216135743   -0.6469330174