21

 C    0.0441714403    1.4932702646    0.0852083971
 C   -0.0425443349   -0.0232499259    0.0976400996
 O    0.7122839150   -0.5084238095    1.1897719778
 C    0.7042418115   -1.9110229487    1.2924540816
 C    1.4998402361   -2.3244852537    2.5099206122
 O    0.7568188258   -1.9450325311    3.6792070608
 C    1.3470450471   -2.2193914301    4.8613632552
 C    0.4821265080   -1.7543821392    6.0083275899
 O    2.4189659335   -2.7609251023    4.9621877885
 H    1.0836095349    1.8172696690   -0.0180524939
 H   -0.5321345848    1.9011967048   -0.7504810081
 H   -0.3525370710    1.9069028984    1.0165914228
 H   -1.0922831792   -0.3509663531    0.1866696229
 H    0.3445964633   -0.4415027452   -0.8475541824
 H   -0.3260979433   -2.2956177868    1.3724346372
 H    1.1612524037   -2.3745790249    0.4007467445
 H    1.6631305125   -3.4069565811    2.5150358230
 H    2.4762852967   -1.8320096665    2.5204612288
 H   -0.5074577073   -2.2154584209    5.9460272979
 H    0.9587880511   -2.0170225249    6.9518580484
 H    0.3397107812   -0.6713743728    5.9513976963