14

 C    0.0656669842    1.5189007784    0.0848166797
 C    0.1667298196   -0.0031034248   -0.0203006476
 C    0.6738969827   -0.4860534723   -1.3931646961
 C    0.9699626021   -1.9982955352   -1.4258516946
 O    1.0602664579   -2.6701807057   -0.4371819550
 C   -0.2291132105   -0.1460565358   -2.4938116481
 N   -0.9533061277    0.0957728878   -3.3616131408
 H    1.0401299927    1.9951534526   -0.0698569749
 H   -0.6286242123    1.9271408105   -0.6561090127
 H   -0.2928238123    1.8094554274    1.0760980990
 H    0.8530160536   -0.4030994351    0.7308064969
 H   -0.8060388379   -0.4665300719    0.1729017525
 H    1.6398514003   -0.0027646126   -1.6154729111
 H    1.1192968577   -2.4175033933   -2.4425388374