17

 O   -0.1160326911    1.4593435931   -0.1512208196
 C   -0.0661258879    0.0593245283   -0.0673372807
 C   -1.4521814321   -0.5455033633   -0.0633918764
 C   -2.2229373348   -0.7504924809   -1.3264693307
 C   -1.6031967582   -1.9540647193   -0.6086780488
 C   -0.4206035405   -2.5865177999   -1.2211854621
 C    0.7094232884   -1.9193912486   -1.5123648576
 C    0.8462330338   -0.5007030609   -1.1723976708
 O    1.6651041190    0.2455779473   -1.6822402712
 H    0.6552448855    1.6987018474   -0.6910568326
 H    0.4279870932   -0.2520195829    0.8745956756
 H   -2.0322281096   -0.3086354238    0.8225370509
 H   -3.3016901054   -0.6505732602   -1.2888054579
 H   -1.7703346326   -0.4608338695   -2.2686788634
 H   -2.2940721722   -2.6242007423   -0.1095603660
 H   -0.5061931588   -3.6376077611   -1.4873520549
 H    1.5306500633   -2.3795019335   -2.0509973336