15

 C   -0.0303271315    1.5291594228    0.0114732647
 C    0.0038557437    0.0322071377    0.0074291807
 C   -0.0330303080   -0.7869537085   -1.0829998060
 N    0.0196072849   -2.1097548018   -0.6470545058
 C    0.0034494815   -3.2294780359   -1.4666154195
 O    0.0498511951   -4.3641234242   -1.0680354833
 C    0.0906933457   -2.1204845000    0.7399157376
 C    0.0827436403   -0.8266429658    1.1649943756
 H    0.8660837080    1.9496598054    0.4815993744
 H   -0.0913560501    1.9272807078   -1.0050433790
 H   -0.8925569136    1.9092623550    0.5713610520
 H   -0.0920113271   -0.5619504178   -2.1363119748
 H   -0.0574906557   -2.9507955856   -2.5342848676
 H    0.1389089310   -3.0611958328    1.2611599462
 H    0.1278426357   -0.5007146664    2.1939055549