21

 C   -1.6480367306   -0.1077202314    0.4411407547
 C   -0.5772481347   -1.1997025438    0.3478157838
 N   -0.0079412127   -1.2330179383   -0.9836484808
 C    1.2267164368   -1.0290426300   -1.2135153923
 C    2.3458281099   -0.7359048253   -0.2388385139
 C    3.1383805976   -1.9978717032    0.1469415752
 N    1.5630397104   -1.1094347417   -2.5855382957
 C    2.7578224649   -0.9722386793   -3.2401177114
 O    3.8454289591   -0.7618722333   -2.7500421873
 H   -1.2032391315    0.8845901157    0.3158313140
 H   -2.3986730434   -0.2417907614   -0.3427124082
 H   -2.1476826672   -0.1395329296    1.4143543275
 H    0.1602746668   -1.0647074802    1.1511787838
 H   -1.0512560798   -2.1748849550    0.5212545653
 H    3.0287307984   -0.0138789019   -0.6874712346
 H    1.9141973015   -0.2807700915    0.6552068459
 H    3.6515379230   -2.4109059646   -0.7239565381
 H    3.8964544484   -1.7485988243    0.8949054732
 H    2.4829184044   -2.7661131373    0.5684479959
 H    0.7501509110   -1.3043402247   -3.1556064534
 H    2.6101244075   -1.0847753990   -4.3321714135