18

 N   -0.0957440522   -1.1766389023   -0.1097242550
 C   -0.0705373795   -0.0223105707   -0.0432114504
 C    0.0001483159    1.4321012247    0.0379261489
 C   -0.2615282920    2.0900975233    1.4091166976
 C    0.8002795647    1.7159565424    2.4032618251
 C    1.1135036746    2.7624193850    1.3690389806
 C    1.4109891636    2.0920867762    0.0429784768
 C    2.7023996315    1.5060371553   -0.4399952308
 C    2.0825371578    2.6898314013   -1.1528862174
 H   -0.6305359644    1.8649109619   -0.7436402466
 H   -1.2193012477    2.4987882783    1.7025872800
 H    0.6281879365    2.0878939422    3.4080164417
 H    1.2779598936    0.7407821396    2.3603119305
 H    1.3737498360    3.7821705490    1.6247690748
 H    3.5907564316    1.6738498815    0.1598746530
 H    2.6667616935    0.5391538096   -0.9312193718
 H    1.6380301293    2.5244940339   -2.1292957694
 H    2.5516546671    3.6616558188   -1.0361130476