20

 C    0.0894131492    1.6875537756    0.0765085310
 C    0.0945709800    0.1787347335   -0.1463213129
 C    1.3884383587   -0.3576201823   -0.8368631986
 C    1.8659434598   -0.8212799352    0.5493713459
 O    2.9420282620   -1.0505256814    1.0273816419
 C    0.4386985834   -0.6707918517    1.1319910985
 N    0.1398642637   -0.1361487018    2.4384535242
 C    0.7637078439   -0.7703317236    3.5996106150
 C    1.1672561443    0.5990575840    3.1789292134
 H    1.0397319021    2.0378784065    0.4946975306
 H   -0.0697477588    2.2153790124   -0.8692781424
 H   -0.7044184115    1.9747459821    0.7713352535
 H   -0.8346634484   -0.1324587496   -0.6278707500
 H    1.2153846607   -1.2018322579   -1.5115757294
 H    2.0306040370    0.3692485269   -1.3408873626
 H   -0.0554686525   -1.6482944145    1.0461263222
 H    0.1121329361   -0.9171230342    4.4568917792
 H    1.4839208863   -1.5642965782    3.4195226766
 H    2.1552668016    0.7039515293    2.7406614884
 H    0.8047938823    1.4684505402    3.7199761655