17

 C   -0.7089890769    1.3353035945    0.2876677621
 C   -0.0294134334    0.0229225463   -0.0798988558
 C    0.9920856226   -0.0068211693   -1.2688733226
 C    1.9729541672   -0.8519570724   -0.4030490914
 O    3.3078187423   -0.4179082872   -0.3976842623
 C    1.1095499102   -0.4749968883    0.7902254924
 N    1.3118383869   -0.3588028680    2.0341228533
 O    2.5995377566   -0.8652759615    2.3659871908
 H    0.0297674867    2.1316329311    0.4203721452
 H   -1.4079446462    1.6426588705   -0.4970003744
 H   -1.2675879235    1.2372534461    1.2232076208
 H   -0.7804735145   -0.7670959788   -0.2039450706
 H    0.6545554445   -0.4445339010   -2.2091116016
 H    1.4231471537    0.9802101465   -1.4518638188
 H    1.8912194671   -1.9266765055   -0.6329554708
 H    3.6504324833   -0.6044395893    0.4853414358
 H    2.6695682035   -0.6522490138    3.3022049279