13

 O   -0.0367494572   -0.0056806353    0.0700505465
 C   -0.0360133112    1.1979121242    0.0415234373
 N   -1.1396658997    2.0229387356   -0.0575514091
 C   -0.7845397682    3.3793854660   -0.0281173901
 C    0.5377058266    3.5391808332    0.0510255816
 C    1.1899780042    2.1689583528    0.0782950565
 C    2.0664284981    1.9263660350    1.2138639974
 C    2.7878059532    1.7431379556    2.1564526964
 H   -2.0788859743    1.6616528974   -0.0722613111
 H   -1.5610598529    4.1292778537   -0.0763290283
 H    1.0765178879    4.4718174995    0.0961404806
 H    1.7476211217    1.9847067155   -0.8523088226
 H    3.4250676618    1.5688390969    2.9877135748