14

 N    0.1995654507    1.2898427420    0.0039328849
 C    0.0518790238    0.0218711620    0.0011871178
 N   -1.1745079105   -0.5853217174    0.0108077962
 C   -2.4139087130    0.0536263895    0.0253711845
 C   -2.6992404840    1.3893030427    0.0325776943
 O   -4.0551794750    1.5643142328    0.0466740007
 C   -4.6244091179    0.3383130801    0.0483454470
 C   -3.6764679559   -0.6329227905    0.0356553790
 H    1.1882996290    1.5269444863   -0.0047648384
 H    0.8642336286   -0.7143328678   -0.0089461728
 H   -1.1873824465   -1.5903689940    0.0087219429
 H   -2.0841669745    2.2674026991    0.0293158394
 H   -5.7014992019    0.3152978669    0.0590319644
 H   -3.8410853130   -1.6996595218    0.0337541103