20

 C    0.0412241153    1.4353630675   -0.0572349369
 N   -0.0060872179   -0.0163814071    0.0159347255
 C   -1.2104429768   -0.6647325392    0.6614076829
 C   -0.8753363702   -2.1331628022    0.2665823555
 C    0.4368941233   -2.2391816404    0.5258282794
 C    0.7152598814   -0.8511198420    1.0973141320
 C    1.6526003297   -0.0851778721    2.0304425718
 C    0.3665176295    0.4885308371    2.7444886140
 C   -0.4902790676   -0.6362818816    2.0501939304
 H    1.0836065859    1.7702488075   -0.0637261235
 H   -0.3953002622    1.7386686457   -1.0170417538
 H   -0.4933055504    1.9909306424    0.7285615175
 H   -2.2059605144   -0.2798202654    0.4275484430
 H   -1.5575190070   -2.8453210925   -0.1742872851
 H    1.1189258616   -3.0627243221    0.3733368720
 H    2.2185180268   -0.7518317824    2.6877934764
 H    2.3467687924    0.6264209959    1.5757241809
 H    0.3743912435    0.3819330475    3.8311100296
 H    0.1436781497    1.5270119327    2.5105050681
 H   -0.7672758527   -1.4310064892    2.7472757402