18

 C   -0.0858453660    1.4662900054    0.0103451710
 C    0.0439047084   -0.0398087265   -0.0004345120
 C    1.4155700321   -0.6910101307   -0.1492713371
 C    0.6899966576   -0.7416040555    1.1522476644
 O    1.1483432893   -0.0483026666    2.3173996184
 C    0.4604800747   -0.9892304242    3.1748788109
 C    0.1347414414   -1.9011566282    1.9643774110
 O   -1.2122803872   -2.1961763783    1.6902386218
 H    0.7194901453    1.9207852060    0.5941943693
 H   -0.0492248721    1.8757264484   -1.0048125641
 H   -1.0342315873    1.7740491351    0.4635580860
 H   -0.7849316106   -0.5803112513   -0.4499102994
 H    1.5104357509   -1.6027055730   -0.7312526444
 H    2.2755363343   -0.0296265249   -0.1963055659
 H    1.1212992485   -1.3888476395    3.9512998910
 H   -0.4397993611   -0.5557884975    3.6275739829
 H    0.7609977564   -2.8016247774    1.9240345183
 H   -1.4386792245   -3.0255560113    2.1213267079