15

 O   -0.1119818275    1.3575553133    0.0883409083
 C    0.0368427093    0.0027771915    0.0421893958
 C    0.9552170397   -1.0058915323    0.8255678016
 C    0.7925409417   -1.9954839528   -0.3177282531
 C   -0.1816659424   -2.0190537733    0.8499361862
 C   -1.1069660782   -1.0254466109    0.1164553342
 C   -2.5425319126   -0.8103465693    0.0701455396
 O   -3.3559934719   -1.4572581643    0.6931259600
 C   -0.1001840933   -0.9787129944   -1.0852362568
 H    0.5599900830    1.7631727461   -0.4727246487
 H    1.7752767822   -0.8708883259    1.5169159816
 H    1.4776543687   -2.7526824315   -0.6730683918
 H   -0.3990105827   -2.7961942396    1.5688435514
 H   -2.8514686981    0.0225060162   -0.6014663065
 H   -0.3572961878   -0.8436892228   -2.1276186718