24

 C   -0.0597378191    1.4747114686   -0.0702320513
 C   -0.0854412094   -0.0584787180   -0.0567215389
 C    0.8276640739   -0.6322881454    1.0334119419
 C   -1.5197226736   -0.5614306861    0.1017188430
 O   -1.5357077915   -1.9692514209   -0.0201118149
 C   -2.8165863809   -2.5340850422    0.1546355821
 C   -2.7083612545   -4.0312666280    0.0640397609
 C   -3.8413718138   -4.8123329171   -0.4912231922
 N   -2.5831318690   -4.6891813802   -1.2439134197
 H    0.9603549620    1.8451312355   -0.2107388656
 H   -0.6783429178    1.8833232446   -0.8765279624
 H   -0.4310019009    1.8844628428    0.8768234977
 H    0.2699481281   -0.4220134804   -1.0301771460
 H    0.7780620853   -1.7233014500    1.0453760449
 H    1.8682579245   -0.3336197567    0.8710236183
 H    0.5278457790   -0.2675632952    2.0238172746
 H   -1.9210847956   -0.2588047691    1.0861527152
 H   -2.1707852975   -0.1066667592   -0.6651671646
 H   -3.2346489502   -2.2422032795    1.1341091183
 H   -3.5134759569   -2.1605153732   -0.6181137283
 H   -2.0896007929   -4.4827050310    0.8364764877
 H   -4.0539400497   -5.8070145385   -0.1104885603
 H   -4.7164203539   -4.2661099576   -0.8360789906
 H   -2.6838428055   -3.9983252835   -1.9843679797