17

 C    0.0575142974    1.4013429220   -0.1290762767
 O    0.0082032497   -0.0022466999   -0.0126592167
 C    0.6182614456   -0.6549141220   -1.0797353468
 C    0.5303712585   -2.1663535911   -0.8930749055
 O    0.0007763478   -2.6945552878    0.0547310897
 C    1.1476121748   -2.9195889241   -1.9697457690
 C    1.6606614684   -3.5455669999   -2.8647439396
 C    2.2862783490   -4.2782136862   -3.9564295483
 O    2.1702590090   -5.6724026970   -3.7307288883
 H    1.0939343802    1.7731323501   -0.1578392446
 H   -0.4599500633    1.7549758366   -1.0348336074
 H   -0.4429691225    1.8145542939    0.7491431972
 H    0.1482317925   -0.4040952354   -2.0491514310
 H    1.6865105495   -0.3861539017   -1.1806914085
 H    1.8021323831   -3.9753647476   -4.8998149017
 H    3.3404073089   -3.9620861029   -4.0270398274
 H    2.5926627114   -6.1221097767   -4.4697827555