16

 N   -0.1142069123    1.2527313620   -0.6489628624
 C   -0.0986775625   -0.0693199715   -0.1997007906
 C   -1.1541225770   -0.9274909441    0.0610148876
 N   -0.5104703688   -2.0823881353    0.4119490689
 N    0.8168280680   -1.9627203625    0.3587219490
 N    1.0736957804   -0.7340569003   -0.0101024121
 C   -2.6205925509   -0.8041659893    0.0067463226
 C   -3.2506908164    0.1917507710   -0.9004781877
 N   -3.3673497279   -1.2401938067   -1.2045682456
 H    0.8224279715    1.6380644736   -0.6264816954
 H   -0.7440801802    1.8458921001   -0.1244090087
 H   -0.9178148290   -2.9644451987    0.6812290809
 H   -3.1494714066   -1.0583286798    0.9237005934
 H   -4.1767066708    0.6719927927   -0.5978615831
 H   -2.5929625994    0.8013485673   -1.5128669356
 H   -2.6963111583   -1.4785113984   -1.9321964614