16

 C   -0.0517514485    1.4865293008    0.0105563168
 C    1.4269219227    1.9091706138   -0.0319768225
 N    2.2053946749    1.5160732163    1.1589472157
 C    2.3173342892    0.7016365130   -0.0861015963
 C    1.4016553749   -0.4586854381   -0.0637000811
 C    1.3196763036   -1.8295700224   -0.0519116573
 N   -0.0133113239   -2.1101718871    0.0407450368
 N   -0.8060710152   -1.0099500119    0.0926578643
 C    0.0633319066   -0.0161366353    0.0240349411
 H   -0.5551345293    1.8831554664    0.8977555527
 H   -0.5906437344    1.8539098368   -0.8704277586
 H    1.6948215800    2.8279195892   -0.5431618752
 H    3.0209599321    2.1227509015    1.2268888153
 H    3.2551785304    0.6992387401   -0.6300824246
 H    2.0551955536   -2.6169773502   -0.0975147651
 H   -0.4460893069   -3.0177056227    0.0520383679