27

 C   -0.2019617896    1.5204640827    0.1045798916
 C    0.0088643020    0.0074646678   -0.0131153091
 C    0.8162864562   -0.4465804522   -1.2451603127
 C    2.2587939412    0.0798406507   -1.2078682054
 C    0.7665794208   -1.9814554641   -1.3702350930
 C    1.3392750876   -2.5548731315   -2.6725970601
 C    1.1505422773   -4.0712652108   -2.7836638021
 C    1.7186843191   -4.6504482090   -4.0721748718
 O    1.4836789383   -6.0513073149   -4.0674550687
 H    0.7394799946    2.0595824748    0.2472095948
 H   -0.6818914127    1.9233998645   -0.7947481329
 H   -0.8455099210    1.7588689903    0.9574131749
 H    0.5038337886   -0.3654760170    0.8946576385
 H   -0.9728808394   -0.4825192925   -0.0430623849
 H    0.3243544089   -0.0250189688   -2.1356575636
 H    2.7931639095   -0.3160478858   -0.3351435932
 H    2.8199913065   -0.2107567557   -2.1004821381
 H    2.2902744402    1.1714399319   -1.1490510854
 H    1.2933010436   -2.4286634810   -0.5146488485
 H   -0.2794729255   -2.3044102721   -1.2806976579
 H    0.8546108092   -2.0623795965   -3.5276746659
 H    2.4079788377   -2.3193861554   -2.7512951480
 H    1.6311501417   -4.5750683508   -1.9357761768
 H    0.0843504537   -4.3242938734   -2.7307098205
 H    1.2374006615   -4.1692259633   -4.9399101513
 H    2.7969440566   -4.4281624364   -4.1363039127
 H    1.8414270333   -6.4185511716   -4.8808117370