15

 C    0.1352584609    1.5463280748   -0.0322769531
 O    1.2642608876    0.6543021206   -0.0504900648
 C   -0.0254534738    0.0936247288    0.0096107581
 C   -0.5130039651   -0.8335359029    1.1694250697
 N   -1.0546345292   -1.6932090346    0.0886031562
 C   -1.7466837593   -2.7356769937   -0.4335420045
 N   -1.7535954911   -2.6446394641   -1.7551761209
 C   -1.0605910628   -1.5043080933   -2.0988539235
 C   -0.6202816021   -0.9032342938   -0.9441204321
 H    0.0184355997    2.1322333706    0.8783148740
 H   -0.0524607830    2.0798379646   -0.9621987953
 H    0.2899663372   -1.3010830333    1.7434321490
 H   -1.2774497230   -0.4235632171    1.8334856911
 H   -2.2086622987   -3.5166812628    0.1491125516
 H   -0.9288141675   -1.2172838439   -3.1295169955