15

 N   -0.1616021236    1.0788156021    0.4628913239
 C   -0.1260193309   -0.0704120561   -0.0397609139
 O    0.9864736605   -0.8949508342   -0.0989756210
 C    0.6812396306   -1.9799690776   -0.9457552469
 C   -0.4209150704   -3.0010733054   -0.5891846828
 C   -1.2529471512   -2.7767876688    0.6296606831
 C   -1.7326307538   -1.5347566445    0.6070797798
 N   -1.2727032491   -0.7819090615   -0.5618357260
 C   -0.6929931510   -1.7982413962   -1.4712295759
 H    0.7538761253    1.3329304733    0.8338771369
 H    1.5238250100   -2.2971788870   -1.5462171238
 H   -0.2987647529   -3.9911754340   -1.0123462683
 H   -1.4349353539   -3.5209413942    1.3919831343
 H   -2.3075226425   -0.9970954331    1.3468162863
 H   -1.0026470571   -1.7941523628   -2.5090586556