19

 O   -0.1675034893    1.3836410679    0.1354449714
 C   -0.0379980503    0.0136917359   -0.0192773449
 C   -0.3519286304   -0.9561812930    1.0884267356
 C   -1.1610824298   -1.0019289934   -0.1910164586
 C   -2.6578064826   -0.8000193326   -0.2143563152
 C   -3.4046648078   -2.0063120780    0.1370410238
 C   -3.9963073640   -3.0129152135    0.4225042696
 C   -0.3431436903   -1.7329060975   -1.2650141902
 C    0.7908129188   -0.6605949666   -1.1167121222
 H    0.4572157261    1.6768634234    0.8076245813
 H    0.3275282655   -1.7650374889    1.3509221270
 H   -0.8748641378   -0.5120301820    1.9304194311
 H   -2.9218239297    0.0129200547    0.4739513882
 H   -2.9670516302   -0.4622419881   -1.2129804681
 H   -4.5286886054   -3.8956303299    0.6761595078
 H   -0.0700002308   -2.7658985003   -1.0298560774
 H   -0.8125671602   -1.7100927413   -2.2516603626
 H    0.8754232586   -0.0304597847   -2.0048931529
 H    1.7874864897   -1.0166040722   -0.8344681840