18

 C   -0.0153943218    1.3878974411   -0.1044922072
 N   -0.0207986989   -0.0557153200   -0.0839327293
 C   -1.2534693249   -0.8359139119   -0.0289450977
 C   -0.7823256531   -2.2866343091   -0.0224736754
 C    0.0510400972   -2.7193993059   -1.2114925829
 C    0.7210349092   -2.2545448988    0.0590741166
 O    1.5092531523   -3.0938445789    0.8225942387
 C    1.1070683899   -0.8016400033    0.0968590791
 O    2.2405370695   -0.3994710985    0.2943705824
 H    1.0241665854    1.7172193616   -0.0579721580
 H   -0.4788287872    1.7740695423   -1.0199961087
 H   -0.5584472973    1.7988043165    0.7564594339
 H   -1.8203179478   -0.5906898330    0.8807205836
 H   -1.8950385460   -0.6089625730   -0.8910670129
 H   -1.3689398998   -3.0257923159    0.5073888150
 H    0.1068704698   -3.7885669797   -1.3852231993
 H    0.0781876147   -2.1012406324   -2.1045120900
 H    2.3493771788   -2.6209147610    0.9226843220