11

 O   -0.0632433491    0.0144560692    0.1587402288
 C   -0.0127714724    1.1827714705   -0.0500977476
 O    1.0644426883    1.9311543356    0.3619752114
 C    1.0160538057    3.2772727578    0.1917626152
 N   -0.0952912140    3.9958124274    0.3173234997
 N    0.3440110225    5.2324877446    0.0965687748
 N    1.6372975143    5.3719285353   -0.1427943326
 C    2.1000138747    4.1229571621   -0.0918661129
 H   -0.7659156954    1.7895457649   -0.5746593287
 H   -0.2788520291    6.0232526074    0.1274748232
 H    3.1392397045    3.8890876452   -0.2491836812