20

 O   -0.1150982770    1.4418200713    0.0105335744
 C    0.0223885709    0.0282180695    0.0020333522
 C   -1.3774234776   -0.5756869087    0.0115262477
 C   -1.3793699440   -2.0839685172    0.0041122677
 C   -0.7646699890   -3.0527754100    1.0695611176
 C   -1.4076484813   -3.9717348624   -0.0050145708
 C   -2.6314308906   -3.0144613970    0.0090185062
 C   -0.7809719557   -3.0421594069   -1.0800764510
 H    0.7649583308    1.8291315169    0.0042408899
 H    0.5691274326   -0.3134810033   -0.8915123308
 H    0.5851051372   -0.3225882307    0.8820358714
 H   -1.9090823392   -0.2079198026    0.8980260806
 H   -1.9247825177   -0.1992395598   -0.8616743005
 H    0.3266049654   -3.0763294165    1.1459342593
 H   -1.2326836063   -3.0492083116    2.0587198717
 H   -1.4250727969   -5.0619892306   -0.0102658168
 H   -3.2412321282   -3.0064779690    0.9176152240
 H   -3.2549856345   -2.9974963356   -0.8900709936
 H   -1.2639028526   -3.0288638978   -2.0619549249
 H    0.3090230539   -3.0648700279   -1.1731834342