18

 C    0.0202599201    1.4291772873   -0.1127037370
 N   -0.0931890813   -0.0227997789   -0.1226110059
 C    0.5413037549   -0.6787556246   -0.9736995227
 O    1.3952253642   -0.2609305114   -2.0070575836
 C    1.4674352555   -1.6301349581   -2.5158077950
 C    1.3979890457   -1.8254657463   -3.9903253638
 C    2.1501203602   -2.4641353376   -1.4755956774
 C    0.6550567201   -2.1264187604   -1.3443899382
 O   -0.3394736554   -3.0703775737   -1.3086414413
 H    0.6031167900    1.8369468972   -0.9465934154
 H   -0.9842788532    1.8646360792   -0.1347463599
 H    0.4851054024    1.7456411582    0.8278132779
 H    2.3006003820   -1.4412381905   -4.4771195636
 H    1.3119723960   -2.8906675204   -4.2215233337
 H    0.5310320243   -1.3059014385   -4.4083456325
 H    2.3167503347   -3.5009802576   -1.7543941266
 H    2.8918561391   -2.0236526534   -0.8163221115
 H   -0.3768745793   -3.4406778202   -0.4193382299