19

 C    0.1258409452    1.5273167279    0.1248282731
 C    0.0269009999    0.0037290469   -0.0091646097
 C   -1.4262627786   -0.4580506537    0.0056117832
 O   -1.7831410402   -1.5423088912    0.3917850343
 C    0.6828802623   -0.5172519324   -1.3006767311
 O   -0.0019575128    0.0813144567   -2.3751923671
 C    2.2343347762   -0.4738949503   -1.2991633414
 O    2.3021580655   -1.8901808702   -1.0599889418
 C    0.8951469417   -2.0540266924   -1.3332232513
 H    1.1693809944    1.8546965859    0.1363319550
 H   -0.3726608763    2.0221934978   -0.7124558263
 H   -0.3381435027    1.8683613145    1.0554034730
 H    0.5284192048   -0.4962032542    0.8264168771
 H   -2.1596213143    0.2809141384   -0.3860181206
 H    0.3621318074   -0.2557548461   -3.2005696030
 H    2.6513411917   -0.1923849466   -2.2786969177
 H    2.7365330716    0.1055313606   -0.5166374776
 H    0.3815607671   -2.6529344645   -0.5768229721
 H    0.7140146370   -2.4865886871   -2.3290305660