15

 O    0.2182539434    1.3575320516   -0.2328022126
 C    0.1146705691   -0.0148063701   -0.0958537912
 C    0.9943614898   -0.9842878003   -0.8585099594
 O    0.2381405113   -2.0404254345   -1.3955632122
 C   -0.9889615552   -2.0519248869   -0.7044854132
 C   -0.9093750087   -1.9918309148    0.7948240786
 O    0.3858569700   -1.9339705852    1.3491285297
 C    1.0818274510   -0.9299120601    0.6521507993
 C   -1.2204965001   -0.7270909860    0.0079265685
 H    0.0791715420    1.7593895323    0.6323344147
 H    1.8231403608   -0.6721261377   -1.4822387435
 H   -1.7615038291   -2.6122299169   -1.2165463484
 H   -1.6196531207   -2.5078523010    1.4292303125
 H    1.9786569792   -0.5866886227    1.1543465493
 H   -2.1459335128   -0.1687221478    0.0271746180