19

 C    0.0513800331    1.5079478108   -0.0950033374
 C   -0.0194270924    0.0130034271    0.0360193579
 O    0.3045077172   -0.7458003353   -1.1786665283
 C   -0.3143396836   -1.8756592155   -0.4692525610
 C   -0.6546297647   -3.0712770031   -1.3126905796
 C    0.6198227790   -2.0078839004    0.7539497010
 C    0.8189460103   -0.7352405372    1.0910243157
 C   -1.3497496256   -0.8348525165    0.0545267994
 O   -2.0379916950   -1.1264807093    1.2353102482
 H    1.0757062893    1.8310525659   -0.3062930538
 H   -0.5921142746    1.8596767872   -0.9065377419
 H   -0.2695881897    1.9858204860    0.8366022126
 H    0.2532667773   -3.5377718129   -1.7076565296
 H   -1.1882875084   -3.8144079520   -0.7117444565
 H   -1.2894383545   -2.7851007032   -2.1557564277
 H    0.9754403682   -2.9256322024    1.1993649101
 H    1.3855776393   -0.2962390710    1.8995521128
 H   -2.0209447469   -0.5111612884   -0.7511550779
 H   -2.7964783881   -0.5394355298    1.2991823259