19

 C    0.0091664654    1.5464426592    0.1398813380
 C   -0.0321396310    0.0258577467   -0.0236836227
 C    0.6599742204   -0.5090173424   -1.3132972717
 C    0.8488514655   -1.9962443946   -1.2329291183
 C    0.1112836874   -2.8380119227   -1.9443908199
 C   -0.9203447793   -2.3624251551   -2.9129183869
 O   -0.8700793486   -0.9653645130   -3.2201250511
 C   -0.1097234505   -0.0653896091   -2.5519152073
 O   -0.0894423001    1.0692371185   -2.9507738706
 H    1.0424355320    1.9060714805    0.1943331332
 H   -0.4710174095    2.0515693360   -0.7002767003
 H   -0.4976192028    1.8429031378    1.0635737382
 H    0.4652746202   -0.4515724470    0.8295324359
 H   -1.0681687326   -0.3346347142   -0.0081308850
 H    1.6338804159   -0.0098088652   -1.3872524870
 H    1.5933873517   -2.3613964972   -0.5303950706
 H    0.2201032150   -3.9147683967   -1.8546948274
 H   -0.8170501163   -2.8823211249   -3.8735780158
 H   -1.9326460129   -2.5845211468   -2.5450246507