19

 C   -0.0724608259    1.4978289123   -0.1144219588
 C    1.4708546103    1.6013129746    0.1564698159
 C    1.4202064004    0.1440825862    0.6081482840
 C    2.3543667362   -1.0321115944    0.5130845010
 O    1.5372418227   -2.2140594414    0.5001956099
 C    0.3336162676   -2.1629706904    1.2710415566
 C   -0.2500397390   -0.7456117132    1.3119409534
 O    0.7918651530    0.0590421703    1.9377948390
 C    0.0193934043   -0.0619174453   -0.0267894744
 H   -0.6838275269    1.9499260798    0.6679512858
 H   -0.3993038031    1.8775843441   -1.0838009404
 H    2.0403240989    1.7282332483   -0.7693709702
 H    1.8140130133    2.3244271158    0.8994642399
 H    2.9229865758   -1.0521274641   -0.4227078715
 H    3.0546496285   -1.0441566285    1.3606761334
 H   -0.3524781659   -2.8764073207    0.7999384369
 H    0.5196490280   -2.4810504188    2.3079220461
 H   -1.2140298417   -0.6856913386    1.8291929559
 H   -0.1301851064   -0.6189852560   -0.9508809025