17

 O   -0.3505809757    0.4943768352    0.5294142346
 C    0.0917628041    1.4546313541   -0.0406796394
 C    1.5553943126    1.6035252870   -0.4162047139
 O    1.6908513073    2.5631482519   -1.4651053019
 C    2.3428885067    3.7197410073   -1.1637513522
 O    2.8067823821    3.9656684958   -0.0770251270
 C    2.3982889530    4.6103918052   -2.3443985244
 C    2.3436210988    6.1080632160   -2.0842976777
 C    3.6341566026    5.4844959264   -2.4925689248
 H   -0.5400078987    2.3248501574   -0.3291654266
 H    2.1205003539    1.9338700749    0.4626799102
 H    1.9506886343    0.6457906766   -0.7641602645
 H    1.9293686220    4.2257254960   -3.2403094864
 H    1.7976092956    6.7072927156   -2.8033272966
 H    2.2360425894    6.4069198847   -1.0484441634
 H    4.3958965943    5.3628836456   -1.7317987301
 H    4.0000663478    5.6429060705   -3.5001298657