20

 C   -0.0838675206    1.6203741828    0.0944844539
 N    0.0091692109    0.1791355759    0.1215474635
 C   -1.2188544644   -0.6557856641    0.3169172804
 C   -0.3975561669   -1.5377860668    1.2907560023
 C    0.5338139925   -2.7042298215    0.8706214311
 C    1.7235012794   -1.6643592841    0.7824845901
 C    0.7224109962   -0.5404613930    1.1898688375
 C    0.4294359993   -0.2747428961    2.6873983941
 O   -0.6098342414   -1.3085147700    2.6979766931
 H    0.9209755292    2.0510360590    0.0278272520
 H   -0.6431746395    1.9376734653   -0.7926403984
 H   -0.5859758490    2.0561680862    0.9784261441
 H   -2.0429092283   -0.1467397443    0.8377266235
 H   -1.5990630497   -1.1046963008   -0.6079734824
 H    0.6416007009   -3.4664865905    1.6444240873
 H    0.2738583003   -3.1904165406   -0.0726020628
 H    2.5449600903   -1.8410861368    1.4818036558
 H    2.1291865248   -1.5292919820   -0.2209677393
 H    1.2391696659   -0.5109712771    3.3878388474
 H    0.0210138101    0.7137638187    2.9295810569