18

 C   -0.2931081532    1.6640241216   -0.2217665327
 C    0.0970239455    0.2152915780    0.0025995268
 C    0.8135161961   -0.5649159840   -1.1824868531
 C    1.9850189666   -0.7093467308   -0.2204070949
 C    3.1698801758   -1.1633720080    0.3370372826
 N    4.2359931260   -1.8760440566   -0.2444595600
 C    3.1024272308   -0.6361622672    1.6608626134
 N    1.9755949249    0.0601029597    1.9165932345
 N    1.3571668856   -0.0048024383    0.7410890099
 H    0.5315421969    2.2244858572   -0.6719247595
 H   -1.1611774367    1.7223842445   -0.8863576932
 H   -0.5573940113    2.1427519208    0.7257976570
 H   -0.7314096919   -0.3536689838    0.4380939880
 H    0.3128072037   -1.4912530121   -1.4766804615
 H    0.9909478367    0.0453267558   -2.0725624150
 H    3.9195680783   -2.5614700179   -0.9190798541
 H    4.7936617873   -2.3512313712    0.4542764263
 H    3.8518145190   -0.7360657376    2.4341586255