20

 C    0.1030885574    1.5079053032   -0.0147856210
 C   -0.0795064706   -0.0081825143    0.0067614093
 C   -1.5160559557   -0.4477558061    0.0293623570
 N   -2.5089045801    0.3468434290    0.0308218370
 C   -3.8108156820   -0.3258140886    0.0547341214
 C   -3.7800137020   -1.4468525756    1.1379751543
 C   -3.0008091162   -2.2525962474    0.0699033957
 C   -3.8051410112   -1.4742469949   -0.9998548023
 O   -1.6301188889   -1.8096134723    0.0481236026
 H    1.1669837276    1.7618019566   -0.0304874897
 H   -0.3736152178    1.9465533955   -0.8945629627
 H   -0.3530418199    1.9690622895    0.8643869378
 H    0.3982751801   -0.4740487566   -0.8647052116
 H    0.4188623074   -0.4517632499    0.8783235053
 H   -4.6170359986    0.4071800735    0.0548149021
 H   -3.2776854575   -1.2281807496    2.0823006954
 H   -4.7656783086   -1.8813701911    1.3168120398
 H   -2.9697852097   -3.3415660868    0.0834926062
 H   -4.7946048558   -1.9129073169   -1.1442911811
 H   -3.3252063380   -1.2799921573   -1.9610151555