15

 O    0.2784953533   -0.1286145870   -0.1335170458
 C    0.0826289529    1.0526367782   -0.0561585776
 C    1.1930293417    2.1011246121    0.0740029056
 O    2.4548222158    1.5189899566    0.2927361815
 C    3.2553321504    1.6213167579   -0.8833612958
 C    2.5146345802    2.5718057842   -1.7750499257
 C    1.3296967093    2.8799852619   -1.2358987464
 C    0.3180545720    3.7308873698   -1.7294793598
 C   -0.5725489543    4.4519013556   -2.1020062474
 H   -0.9415117814    1.4896052799   -0.0887799417
 H    0.9327765378    2.7634476206    0.9149574095
 H    4.2532900512    1.9871765303   -0.6043950796
 H    3.3844654985    0.6333535417   -1.3526117454
 H    2.8979094769    2.9381889879   -2.7177759230
 H   -1.3496770544    5.0885726904   -2.4467389685