24

 C   -0.2302639569    1.2979753214   -0.0886947353
 N    0.0660071474   -0.1178363955    0.0994725396
 C    1.4898763883   -0.4571155929   -0.0981629605
 C    0.8983891828   -0.4639859274    1.2764769008
 C    1.0690482708    0.4126604232    2.4807494328
 C    0.9157699693   -2.0028204096    1.2963464784
 C    1.6079172427   -1.9945209629   -0.1243331559
 C    0.8555780073   -2.7030886304   -1.2464721930
 C    3.0673206792   -2.4417864369   -0.0466134558
 H    0.6006590765    1.9828180572    0.1452644977
 H   -0.5061539824    1.4569539947   -1.1362606267
 H   -1.0871362249    1.5792598236    0.5323965360
 H    2.1528368265    0.2614778186   -0.5714722533
 H    1.1886076023    1.4667661864    2.2203149587
 H    0.2031109665    0.3271168279    3.1493823983
 H    1.9535030261    0.1094940568    3.0508044894
 H    1.5607016981   -2.4232224982    2.0732665020
 H   -0.0718288705   -2.4686909365    1.3469860654
 H   -0.1652051531   -2.3204489820   -1.3189889476
 H    1.3520741471   -2.5495182205   -2.2121428518
 H    0.8096142317   -3.7835144211   -1.0666724980
 H    3.1354020790   -3.5145653106    0.1663101363
 H    3.5868044709   -2.2559059044   -0.9941666382
 H    3.6091521054   -1.9071730010    0.7414420105