14

 C   -0.0555619583    1.5002743765    0.1006375251
 O    1.2487551992    1.9377545033   -0.2986312939
 C    2.1312593434    0.8372437671   -0.6162875291
 C    1.2944121908   -0.3808944102   -0.3928608429
 C    0.0501159392    0.0140788926    0.0156761103
 N   -0.6844895700   -1.1000493963    0.2101433707
 N    0.0284255470   -2.2243893782   -0.0550739422
 C    1.2351619437   -1.7887505898   -0.4228363529
 H   -0.2740444768    1.8665262010    1.1149349992
 H   -0.8114263118    1.9250906290   -0.5767457743
 H    2.4769418984    0.9515278589   -1.6530155006
 H    3.0128492476    0.8932932107    0.0371989405
 H   -1.6394924175   -1.1942613051    0.5100083337
 H    1.9948448452   -2.5086113795   -0.6888394136