17

 O   -0.5547081550    0.7842062694    0.6818036117
 C    0.2275757668    0.9837832266   -0.2166077321
 C    1.3771685411    1.8992258720   -0.1135132666
 C    1.7727932149    2.7353261786    1.1131152617
 C    2.1059928850    3.8935101126    0.1479316980
 C    1.8900213878    5.3352866452    0.3687681506
 N    3.2541471419    4.7973889339    0.1581202122
 C    1.7192086329    3.0573934910   -1.0578759638
 N    2.4464885357    1.8100258693   -1.1069089274
 H    0.1318513851    0.4969901865   -1.2107865410
 H    0.9234055779    2.9437224743    1.7664989547
 H    2.5966327602    2.3265093775    1.7082394135
 H    1.5228696888    5.9636876624   -0.4384346177
 H    1.6003711668    5.6608174802    1.3646376954
 H    3.7385119225    4.7307013136    1.0506383550
 H    1.1982575035    3.3905372999   -1.9483253003
 H    3.3711510140    1.8732807972   -0.6841385641