21

 C   -0.1576865751    1.5596367147   -0.0244867229
 C   -0.0576553923    0.0401403446    0.0559300835
 N   -1.3645060715   -0.5683221486   -0.0731960018
 C   -1.5530567687   -1.9154620812   -0.0909916595
 C   -3.0213818903   -2.2699385640   -0.1459962551
 O   -3.8909669572   -1.4300996748   -0.1144511248
 N   -0.5579923453   -2.7271841023   -0.0702330249
 C   -0.6942596505   -4.1685694146   -0.1195682305
 C   -0.1316192844   -4.7147702759   -1.4373788006
 H    0.8328911092    2.0112543082    0.0740248571
 H   -0.5823165701    1.8773895916   -0.9823013580
 H   -0.7883296794    1.9586757012    0.7777289095
 H    0.5931927532   -0.3496189799   -0.7360644219
 H    0.4085811679   -0.2673904566    1.0031853115
 H   -2.1986802153   -0.0068506435   -0.0048639338
 H   -3.2696671830   -3.3413666740   -0.2221092550
 H   -0.1000369787   -4.5774242874    0.7085824730
 H   -1.7151755721   -4.5500087929    0.0244757356
 H   -0.1283550512   -5.8095176092   -1.4335422476
 H   -0.7327527290   -4.3748310332   -2.2870567227
 H    0.8920878440   -4.3607360024   -1.5872513510