19

 C   -0.0317329932    1.5421919345   -0.0039999924
 C    0.0301001199    0.0323203752   -0.0136982308
 C    0.9036739223   -0.7901950825   -1.0086613420
 C    0.7346716992   -1.9282830909    0.0335628911
 C   -0.7770293550   -2.1888253179    0.0767422300
 C   -1.2936948590   -1.5268149618    1.3367801767
 O   -0.2147611283   -1.1137350539    2.1384208998
 C    0.7143394106   -0.8078571028    1.1327509194
 C   -1.2955234900   -0.7513878356    0.0371857367
 H    0.9711017166    1.9820338584    0.0116306137
 H   -0.5489070479    1.9266495075   -0.8907371309
 H   -0.5713517889    1.9036831856    0.8780344758
 H    0.5105065796   -0.9580487841   -2.0147492874
 H    1.9320539339   -0.4187868600   -1.0669294200
 H    1.4019445191   -2.7875599305    0.0830022019
 H   -1.2599050415   -3.0299765919   -0.4010550077
 H   -2.1754683827   -1.8315828509    1.8841497196
 H    1.6562711420   -0.4546584849    1.5462414579
 H   -2.1942328668   -0.4315747634   -0.4732461513