17

 C   -0.0858358506    1.3442907907   -0.2964516602
 O    0.9069220975    1.6649548418    0.7064680560
 C    1.3786976032    0.2969653027    0.6899318364
 C    0.0761523281   -0.1727606090   -0.0113038726
 C   -0.9467376828   -0.7330840943    0.9125069803
 N   -1.6301049580   -1.8451426183    0.7465143800
 C   -2.4469306764   -1.9468043754    1.8512350720
 C   -2.2548139219   -0.8851196854    2.6933759606
 N   -1.2913180095   -0.1124050366    2.0830409059
 H   -1.0582176078    1.7969868693   -0.0803115939
 H    0.2444605361    1.6415026226   -1.3005412489
 H    2.2774504664    0.1876591593    0.0687053098
 H    1.5773374543   -0.0877660777    1.6947703871
 H    0.1799708511   -0.8353965282   -0.8690206097
 H   -3.1241666157   -2.7780980342    1.9741157701
 H   -2.6942574349   -0.6102846245    3.6376876811
 H   -0.8990453690    0.7529871572    2.4194622860