13

 O   -0.0224453283    1.3171416539    0.0093001759
 N    1.2919796523    1.8346287300   -0.0007239451
 C    2.1003977678    0.8150408201   -0.0134825380
 C    1.3924034003   -0.4299845867   -0.0134998421
 C    0.0548603770   -0.0240585753    0.0014530177
 C   -0.9824049498   -0.9492171266    0.0064450714
 C   -0.5773877839   -2.2775348228   -0.0045085754
 N    0.7025382780   -2.7058592603   -0.0190454244
 C    1.6721127116   -1.8003646561   -0.0235189465
 H    3.1662127363    0.9957807277   -0.0226706916
 H   -2.0259154246   -0.6627883307    0.0179439651
 H   -1.3289432023   -3.0623203182   -0.0015026284
 H    2.6942898655   -2.1707672650   -0.0352015985