21

 O   -0.0703344139    1.4761260728   -0.1810106825
 C   -0.0003810851    0.0775643848    0.0106957013
 C   -1.3867925023   -0.5445702778    0.0637031445
 O   -2.0122944858   -0.2524691749   -1.1737859392
 C   -3.3651747376   -0.6480766938   -1.2400648960
 C   -3.9088834476   -0.2797985127   -2.6144172637
 C   -5.3853421167   -0.6724547077   -2.7805098774
 C   -5.9470861101   -0.1956599892   -4.1014836562
 O   -6.4941829233   -0.8956797928   -4.9126319760
 H   -0.6628909436    1.6060723415   -0.9306984773
 H    0.5807631117   -0.4111589755   -0.7876055303
 H    0.5188532968   -0.0957796251    0.9588731621
 H   -1.3232322931   -1.6332913507    0.2244545233
 H   -1.9635395866   -0.1065271315    0.8939541476
 H   -3.4544150452   -1.7343252579   -1.0707346464
 H   -3.9509787534   -0.1490927843   -0.4489762817
 H   -3.7870144636    0.8003843156   -2.7611941562
 H   -3.2996865884   -0.7738222798   -3.3793589697
 H   -5.5317464122   -1.7543480294   -2.7112318804
 H   -5.9783342450   -0.1978394600   -1.9841476463
 H   -5.8130902052    0.8970682285   -4.2847359694