21

 C    0.7284079599    1.4140341690    0.1947960287
 O    0.8671237770    0.0141342050    0.2153576857
 C   -0.1756418023   -0.6313632163    0.9105423306
 C    0.0948555017   -2.1299256651    0.8883438129
 C    1.4218038384   -2.5182796679    1.5476755648
 C    1.4628526609   -4.0045429040    1.7855114017
 C    0.3605190073   -4.7481448874    1.7368157754
 C   -0.9940305655   -4.1435699077    1.4902152854
 O   -0.9988721207   -2.7311623431    1.5688543531
 H    0.7336864228    1.8399372447    1.2107019776
 H    1.5761080903    1.8195834664   -0.3629603422
 H   -0.2050219844    1.7247914233   -0.3007296525
 H   -0.2299496642   -0.2849834345    1.9564671393
 H   -1.1522800602   -0.4270797429    0.4434686624
 H    0.1108807191   -2.4672732939   -0.1616236229
 H    2.2514851030   -2.2011050622    0.9070811100
 H    1.5402517399   -1.9731792170    2.4953558804
 H    2.4277783957   -4.4609639718    1.9896955204
 H    0.3946376021   -5.8259266955    1.8724319846
 H   -1.3822207762   -4.4773987381    0.5094313931
 H   -1.7114174846   -4.4897332911    2.2443943614