19

 O    0.1284072669    1.2051338235   -0.5713007934
 C    0.0232082676   -0.0548442735    0.0391964091
 C    0.2719388476   -0.0571849523    1.5588541476
 O   -0.4162496504   -1.1951705565    2.0643371979
 C   -1.5221338137   -1.5240260819    1.2163297724
 C   -2.8703763237   -1.0965237454    1.8133704912
 C   -3.0001288921    0.3524586411    1.3413282015
 O   -2.3706508386    0.3886963788    0.0532450498
 C   -1.3951891284   -0.6573663970   -0.0484727510
 H   -0.7446447429    1.6108124876   -0.4689553237
 H    0.7356697912   -0.7252110354   -0.4546015515
 H    1.3274717256   -0.1519172091    1.8274552496
 H   -0.1090327135    0.8803919652    1.9936011336
 H   -1.4792722857   -2.5992174731    1.0201578197
 H   -3.6724870664   -1.7106537034    1.3906289970
 H   -2.8783971656   -1.2061632732    2.8994293845
 H   -4.0331401478    0.6870836153    1.2132115067
 H   -2.4988859217    1.0425402325    2.0342835359
 H   -1.5733382083   -1.1900659632   -0.9861089769