19

 C   -1.0164693888    1.3571830297   -0.2132316540
 C   -0.3647184083   -0.0142761927   -0.2177141616
 C    0.6375320428   -0.4456892188   -1.3429896068
 C    1.0047090459    0.4856659992   -2.4901772466
 C    1.6559845505   -0.6560820845   -0.2117778101
 C    1.8169407389    0.5616606435    0.6203880962
 N    0.6483097181   -0.2845757332    0.8793869411
 C    2.5320261756   -1.7846738891   -0.1127912021
 N    3.2444917049   -2.6958741347   -0.0774731109
 H   -0.3063557572    2.1765517792   -0.3532956438
 H   -1.7583730894    1.4229955734   -1.0156723180
 H   -1.5343908161    1.5184224495    0.7375946931
 H   -1.1423965127   -0.7729255002   -0.1020767892
 H    0.3332002239   -1.4136951070   -1.7480509365
 H    1.3415621348    1.4660082337   -2.1427209366
 H    1.8087166017    0.0514000618   -3.0933171617
 H    0.1439038900    0.6433055004   -3.1480742271
 H    2.5497921503    0.5157662926    1.4192558306
 H    1.7045396654    1.5398537072    0.1630002439