15

 C   -0.0446280726    1.5088579765   -0.0122339020
 C   -0.0158262846    0.0161669064    0.0174176405
 N   -0.0159954560   -0.6878647066   -1.0917501796
 O    0.0015626155   -2.0146658454   -0.7286594575
 C    0.0245732837   -2.0992732165    0.6350396215
 C    0.0545552742   -3.3575112245    1.2523171772
 C    0.0878484969   -4.4182876819    1.8245469762
 C    0.0099827151   -0.8344047473    1.1645627646
 N   -0.0567923561   -0.4436325449    2.4954981721
 H    0.8555068217    1.9349201433    0.4466668734
 H   -0.1010754123    1.8594663951   -1.0441671498
 H   -0.9088887761    1.8935019679    0.5398840913
 H    0.1096439336   -5.3596671692    2.3155838335
 H    0.1784119714   -1.1846338469    3.1429321574
 H    0.4674067957    0.3949481939    2.7060175910