18

 C    0.2306906385   -1.2339228437   -0.0811238099
 C    0.1432355805   -0.0340866031   -0.0500000105
 C    0.0072981204    1.3990891246   -0.0334708112
 C   -1.1128772680    1.9525777128   -0.9068495735
 C   -2.4981254635    1.4383275775   -0.4623542285
 C   -3.5800767540    1.9625548215   -1.2908696355
 N   -4.4234658910    2.3902176809   -1.9552546177
 C    0.3288185502    2.1250422179    1.2682020334
 C    1.2759334371    2.2263891886    0.1088080386
 H    0.3201316929   -2.2918514475   -0.1045630068
 H   -1.0989468982    3.0461134676   -0.8613314025
 H   -0.9424753001    1.6721630263   -1.9512716590
 H   -2.5158053665    0.3438981653   -0.5038282382
 H   -2.6871455880    1.7179418523    0.5803488629
 H   -0.2800765863    2.9893607579    1.5121075550
 H    0.6197362708    1.5211476932    2.1189303779
 H    2.2143148274    1.6883535644    0.1644469302
 H    1.3188974780    3.1586196633   -0.4439468448