16

 N   -0.0522435820    1.2857773688   -0.0592247309
 C   -0.0339715100    0.0355372965    0.0701243919
 O    1.0889260041   -0.7080293237    0.3752828036
 C    0.7665215225   -2.1048146042    0.6228868874
 C   -0.7192875025   -2.0873287683    0.7166718453
 C   -1.6928951088   -2.4956753869    1.5168119679
 C   -2.9170933114   -1.6483893570    1.2435623783
 O   -2.4622168113   -0.5801599105    0.4000434864
 C   -1.1967325073   -0.9309057205   -0.1130198103
 H    0.8703874681    1.6837790151    0.1277098172
 H    1.1471494756   -2.7016537489   -0.2153811386
 H    1.2736909263   -2.4179830499    1.5386868569
 H   -1.6493896716   -3.2457764261    2.2960247293
 H   -3.7245667696   -2.2078401606    0.7438712667
 H   -3.3336987661   -1.2224115577    2.1656000039
 H   -1.2708456659   -1.1704250459   -1.1892592250