19

 C   -0.0317110652    1.3743957869    0.0295085076
 O    0.0667043392   -0.0527589398    0.0338339520
 C    0.7374195526   -0.5691937038    1.0647802638
 N    1.2918654166    0.0806985902    2.0223689154
 C    1.7772968496   -0.9289132189    2.9370576160
 C    0.7743923237   -1.8419417592    3.6223511276
 C   -0.7014069444   -1.5439114539    3.7392896424
 C    1.4492629896   -2.3006716057    2.3413922592
 N    0.8534749999   -1.9493273755    1.0754353378
 H    0.9591226986    1.8272459524   -0.0616228610
 H   -0.6477849367    1.6262254612   -0.8342941072
 H   -0.4945848471    1.7302698406    0.9537514427
 H    2.7150304704   -0.7088315738    3.4340965272
 H    1.1985594516   -2.3322083195    4.4958443082
 H   -1.0883277661   -1.0220463223    2.8611463963
 H   -1.2792471658   -2.4667665678    3.8625673725
 H   -0.8992680885   -0.9062769082    4.6073312646
 H    2.1212616419   -3.1514656282    2.3327162171
 H    0.1162604402   -2.5032943748    0.6661128277