23

 C    0.0229284422    1.5298512397   -0.3316966714
 C    0.0448685796    0.0573511432    0.1020934780
 C   -1.3299106453   -0.5077391649    0.2821298839
 C   -2.3657847373   -0.2006821210    1.3791563770
 C   -2.9482743339   -1.6583063699    1.1865397633
 C   -2.6642645795   -2.5565456531    2.3891927713
 C   -4.4012156859   -1.7431621636    0.7312957745
 C   -1.8938932886   -1.8508379739    0.0705223444
 O   -2.0900895128   -0.8178685650   -0.9034189088
 H    1.0384906132    1.9139911592   -0.4644691468
 H   -0.5124433808    1.6435781578   -1.2788438613
 H   -0.4771879814    2.1560627247    0.4145695747
 H    0.5718635996   -0.5451723056   -0.6462589196
 H    0.5971598530   -0.0463103008    1.0447175659
 H   -1.9272214811   -0.0532589121    2.3699964762
 H   -3.0423841078    0.6272127662    1.1521602658
 H   -3.2711655317   -2.2582872247    3.2511127628
 H   -2.8990205905   -3.6029876692    2.1621433307
 H   -1.6109468216   -2.5073465361    2.6872010050
 H   -4.5536652644   -1.1445638705   -0.1702350019
 H   -4.6857224436   -2.7783844979    0.5091103341
 H   -5.0781426900   -1.3731750380    1.5098309711
 H   -1.4334009914   -2.7731496246   -0.2720835789