20

 C   -0.0998231671    1.4335383409    0.0222316844
 N   -0.0563343227   -0.0186889783    0.0273622109
 C    0.5363749354   -0.6104937600   -0.9234720201
 C    1.2332164251   -0.0044884378   -2.1138216075
 O    0.6058409977   -1.9629465370   -0.9627494696
 C   -0.0104252085   -2.6544596324    0.1037174878
 C    0.1962784877   -4.1530563152   -0.0781514159
 C   -0.4936072098   -5.0120055902    0.9683518687
 O    0.8503671178   -4.6187456702   -0.9771132939
 H    0.9020957771    1.8850189761    0.0607322247
 H   -0.6060190244    1.8376528503   -0.8663862613
 H   -0.6507094548    1.7784346410    0.9010316379
 H    2.0414674988    0.6567400126   -1.7846831089
 H    1.6457958825   -0.7831729998   -2.7546948017
 H    0.5335632720    0.6063630458   -2.6936395723
 H    0.4065444790   -2.3359042069    1.0687663005
 H   -1.0826638806   -2.4222222869    0.1547687705
 H   -0.2439663048   -4.6778087020    1.9812082734
 H   -1.5817106552   -4.9293554364    0.8636778626
 H   -0.1976851051   -6.0532197235    0.8372306097