16

 O    0.0599344403   -0.0343100840   -0.2373255896
 C    0.0645317825    1.1634546511   -0.0661915488
 N   -1.0386296498    1.9385564330    0.2159812243
 C   -0.8336639486    3.3813514717    0.1487513375
 C   -1.4311775716    4.0967347930    1.2773506666
 C   -1.9368826891    4.6919385864    2.1902531994
 C    0.6988046779    3.4986791407    0.0666730821
 C    1.4845243084    2.8707888259    1.1746639460
 C    1.2438922491    2.0999860095   -0.1094209484
 H   -1.9511458451    1.5250483445    0.3201051055
 H   -1.2657743125    3.7850374642   -0.7793731173
 H   -2.3788419927    5.2166250673    3.0013858405
 H    1.1005273945    4.3489209663   -0.4683699669
 H    2.4904265464    3.2408395038    1.3368019522
 H    0.9650242920    2.5552830958    2.0732378542
 H    2.0686871685    1.8469618510   -0.7614197472