18

 C   -0.6026239386    0.9553587416   -0.0090303662
 O    0.5502475086    0.1400970298    0.1265303713
 C    0.9516460522   -0.4908574119   -1.0835105442
 C    2.3594299972   -1.0085372233   -0.9562326748
 C    2.4707855339   -2.2593252558   -1.3967390948
 C    1.1574898911   -2.8140180414   -1.8895934625
 C    0.1117836702   -1.7829583270   -1.3920676220
 O   -0.5279057339   -2.2408108305   -0.2163367616
 H   -0.4489343483    1.7332870527   -0.7706892507
 H   -1.4894019726    0.3657239209   -0.2756992812
 H   -0.7709026176    1.4340373918    0.9584843987
 H    0.8652680931    0.2369101438   -1.9068394476
 H    3.1575095100   -0.3858036751   -0.5702315746
 H    3.3957240294   -2.8249287964   -1.4325763481
 H    1.1519532007   -2.8961901667   -2.9851238607
 H    0.9248607450   -3.8071869913   -1.4919760416
 H   -0.6579716436   -1.5971413518   -2.1503366277
 H   -0.2258216767   -1.6590225995    0.4951526786