21

 C   -0.1512141453    1.5220164342   -0.0711719703
 C   -0.0085416649   -0.0020317482    0.0084604662
 C    0.7210667114   -0.5630920184   -1.2188340088
 C    0.7213574600   -0.4469728356    1.2900910755
 N    0.0382785998   -0.0845185357    2.5346629950
 C   -1.0763398363   -0.8553049973    2.8900896341
 N   -1.8722462244   -0.5844788329    3.8378282759
 C    0.5438217495    0.9686567815    3.2973977340
 O    0.1046665586    1.3906793112    4.3317465613
 H    0.8319260295    2.0059443706   -0.1184548326
 H   -0.7051315446    1.8118877775   -0.9692201357
 H   -0.6856749589    1.9255599534    0.7934490170
 H   -1.0165299676   -0.4392944886    0.0366907298
 H    1.7387345148   -0.1606759813   -1.2888802046
 H    0.7960051251   -1.6552005813   -1.1807407671
 H    0.1967886968   -0.2953353035   -2.1408474665
 H    0.8656262853   -1.5338013855    1.2748568719
 H    1.7209806311   -0.0008156737    1.3151522633
 H   -1.1597664264   -1.7306703832    2.2330377038
 H   -2.5814844504   -1.3140815510    3.9014356841
 H    1.4532890969    1.3821577679    2.8161420536