18

 C   -0.0750340355    1.4806187618   -0.0065038451
 C    0.0810177050   -0.0145073254   -0.0289971828
 C   -0.8056826325   -0.9450193223    0.7679592080
 C    0.6694922964   -0.9728088322    1.0281026612
 C    1.3561350173   -1.7968287495   -0.0660718665
 O    0.9330718902   -3.1275793159   -0.2276660010
 C    0.7790247519   -0.8009770793   -1.1357400148
 O   -0.0019453884   -1.4027096653   -2.1576122342
 H    0.8714691763    1.9834176063   -0.2347314297
 H   -0.8146150224    1.8170817455   -0.7430024619
 H   -0.4093199700    1.8275426916    0.9765863197
 H   -1.4106039895   -0.4497870496    1.5204183215
 H   -1.2783798569   -1.8206499641    0.3302873172
 H    1.0953304032   -0.7244917740    1.9926725538
 H    2.4497785050   -1.7474764546   -0.0005007800
 H    0.5790895993   -3.1718320299   -1.1280187244
 H    1.5649013717   -0.2255141570   -1.6324786569
 H   -0.9172725112   -1.4151666063   -1.8576579440