20

 C   -0.1984939771    1.4924421767   -0.0633190170
 C   -0.0488150784   -0.0103491648    0.0219067829
 C    1.2927020290   -0.6568274460   -0.1910790270
 C    0.6542636875   -0.6842212849    1.1736298120
 C    1.1693832218   -0.2037637641    2.5366085330
 C    0.5206883926    0.9766867756    3.2259950532
 O    0.6983978162   -1.4787093025    3.1141544547
 C    0.2187105354   -1.9101793950    1.8921412345
 N   -0.3634155844   -2.9719658071    1.5610120348
 H    0.6953963837    2.0072887538    0.3029355121
 H   -0.3517809574    1.8001753670   -1.1031829353
 H   -1.0538751659    1.8490540722    0.5194301459
 H   -0.9017244261   -0.5762872519   -0.3444914425
 H    1.3492677358   -1.5997369268   -0.7238015680
 H    2.1485485268   -0.0008939476   -0.3224326749
 H    2.2612048843   -0.1615014720    2.6114771215
 H   -0.5673285017    0.9388003073    3.1253424724
 H    0.7722681157    0.9685212867    4.2909002327
 H    0.8795334066    1.9185710216    2.8001001753
 H   -0.4828961145   -3.5992702082    2.3571204495