15

 C    0.1337619480   -3.7193759199   -0.0762533438
 C    0.0649982485   -2.5140535132   -0.0432894161
 C   -0.0074970334   -1.1583512872   -0.0063763015
 C   -0.0807753182    0.0503328526    0.0249017616
 C   -0.1184447824    1.4728709240    0.0527843969
 N   -1.1888913047    2.1658839173   -0.1035708557
 C   -0.7771294687    3.5739467525    0.0229479010
 C    0.7728544722    3.5744347661   -0.0507309594
 N    1.0617845094    2.1783782295    0.3040397582
 H    0.1891064509   -4.7796092347   -0.1048431540
 H   -1.2438013949    4.1822098799   -0.7563977676
 H   -1.1294509832    3.9568673653    0.9900604649
 H    1.1295602483    3.8146071862   -1.0621918505
 H    1.2374151559    4.2691151948    0.6534959039
 H    1.9232736023    1.7668822667   -0.0252181780