15

 O    0.0435448666    1.4281111482    0.0066356694
 C    0.0175110363    0.0202945155    0.0023057987
 C   -1.4032356516   -0.4764112606    0.0122739090
 C   -2.4669469034    0.3656117632    0.0226596391
 C   -3.8305668649   -0.1182456299    0.0321674621
 O   -4.8437892129    0.5251743613    0.0415034597
 O   -3.9647325713   -1.5293861381    0.0296553501
 C   -2.8989542611   -2.3390241355    0.0193275778
 C   -1.6279003490   -1.8946329629    0.0105298414
 H    0.9600091602    1.7171316123   -0.0017309222
 H    0.5214085189   -0.3968459929   -0.8868092018
 H    0.5358603217   -0.4025298178    0.8803666665
 H   -2.3392849818    1.4386929710    0.0242993843
 H   -3.1844103484   -3.3850907399    0.0189610815
 H   -0.8074688392   -2.6009708436    0.0024069544