18

 C   -0.0784215617    1.3758317043   -0.0572140743
 N   -0.0180266353   -0.0624836351   -0.0388730168
 C   -1.1745131416   -0.9232609077   -0.0286276081
 C   -0.5669821556   -2.3080324212   -0.0113872586
 C   -1.4111758476   -3.5378379485    0.0035767886
 O   -0.5761749000   -4.6768053564    0.0174898876
 C    0.7646843526   -2.2124408317   -0.0122489158
 C    1.1666947414   -0.7779790087   -0.0299095490
 O    2.2831207911   -0.2977976982   -0.0357321809
 H    0.9508902826    1.7405713775   -0.0618092089
 H   -0.5938000193    1.7498399811   -0.9515960032
 H   -0.5938749927    1.7725232736    0.8272960018
 H   -1.8111751866   -0.7457639675    0.8528409069
 H   -1.8105007901   -0.7676698407   -0.9147238158
 H   -2.0752301259   -3.5088762473    0.8859688178
 H   -2.0751847680   -3.5303805495   -0.8792942719
 H   -1.1332672996   -5.4601300983    0.0269232930
 H    1.4798754164   -3.0201709355   -0.0021369024