21

 C   -0.2447704655    1.5795742045    0.1425932765
 C   -0.1404276254    0.0528061615    0.1422122421
 C    0.9563706668   -0.4693771709    1.0830374161
 C    1.0389823285   -1.9728029510    1.1113536324
 O   -0.0547954303   -2.6501755230    1.7929205103
 C    1.2702458339   -2.8084760831    2.3066961565
 C    1.9591099860   -4.0978243678    1.8767517014
 C    2.0390883796   -3.9494463900    0.3699617906
 C    1.5550202695   -2.7774525079   -0.0465160424
 H    0.6944420921    2.0432732375   -0.1799645564
 H   -1.0347428346    1.9246721719   -0.5315700860
 H   -0.4728518596    1.9599230140    1.1445757478
 H   -1.0966717187   -0.3887636119    0.4450953385
 H    0.0516410911   -0.3006097387   -0.8788801143
 H    1.9310950702   -0.0633657837    0.7804820042
 H    0.7629214834   -0.1090384299    2.1001281831
 H    1.4388884145   -2.3914561126    3.2968169512
 H    2.9530023099   -4.1908783013    2.3335388665
 H    1.3858688648   -4.9835146438    2.1767191369
 H    2.4185976844   -4.7368717737   -0.2716322194
 H    1.5076859794   -2.4390500600   -1.0744053654