16

 N    0.1231314742    1.4410193068   -0.0163889566
 C   -0.0229499051    0.0066825068    0.0974325156
 C   -1.4791851740   -0.5425299998   -0.0121079848
 C   -1.5630813144   -2.0856187905    0.2183248229
 O   -2.4199667074   -2.2202109797    1.3743332642
 C   -2.7360067422   -0.9629263642    1.7430734329
 N   -2.3047835649    0.0288673573    1.0794320659
 C   -2.0427281053   -0.1541685617   -1.3137972163
 N   -2.4422124914    0.1412400005   -2.3572462299
 H   -0.1386823894    1.7531192124   -0.9469119024
 H   -0.5059766856    1.8990970580    0.6366513272
 H    0.5899970647   -0.4827701045   -0.6681562632
 H    0.3511891853   -0.3176810721    1.0758659488
 H   -2.0109817484   -2.6313741448   -0.6129897180
 H   -0.5878578022   -2.5181273992    0.4601433124
 H   -3.3632849239   -0.8968597852    2.6249335614