18

 C    0.0488252938    1.3393864032    0.0483527219
 N   -0.0460597382   -0.0648788051   -0.2943717233
 C   -1.2549374541   -0.7078438341   -0.0728312636
 C   -2.5152109339   -0.1702815642    0.0763117029
 N   -3.3498110533   -1.2724186409    0.2070297760
 C   -2.5774629977   -2.3837169258    0.1422025319
 C   -3.1585724288   -3.7557216395    0.2937550875
 O   -4.4856167418   -3.8299402814   -0.2181283414
 N   -1.3049814393   -2.0816939661   -0.0296159258
 H    1.0738218014    1.6821715066   -0.1107161553
 H   -0.6008858633    1.9283288921   -0.6099467353
 H   -0.2406285344    1.5614372622    1.0892667187
 H    0.7321376622   -0.6293523225    0.0150448926
 H   -2.8904805437    0.8374381834    0.0758207595
 H   -4.3501271376   -1.2755806904    0.3128164057
 H   -2.4789695491   -4.4794506499   -0.1736703114
 H   -3.2459595856   -4.0286265960    1.3523358167
 H   -4.4345678666   -3.6926088817   -1.1703266475