15

 N   -0.0967622277    1.2936112085    0.3814137647
 C   -0.0524719987    0.0707485417    0.0523967370
 O    1.1557184464   -0.5553733862   -0.1833963234
 C    1.1444852916   -1.7842036273   -0.9114153335
 C    0.1029649779   -2.7740409192   -0.3700346429
 C   -1.2127517657   -2.0739641441   -0.1844196925
 C   -1.2634282512   -0.7509833916   -0.0170039274
 C    0.9415491167   -1.5279538814   -2.3530046394
 N    0.8008621997   -1.3447921872   -3.4847365584
 H    0.8423990514    1.6964874330    0.3852513136
 H    2.1536240423   -2.1882126639   -0.7909079751
 H    0.0126312211   -3.6187443438   -1.0600111206
 H    0.4626258663   -3.1805451373    0.5841444362
 H   -2.1183897276   -2.6716732899   -0.1785591828
 H   -2.1909658424   -0.2100082912    0.1208641946