15

 N    0.1235353217    1.3630484565    0.0976776037
 C   -0.0076049750    0.0070404081    0.0280958993
 C   -1.1936619038   -0.6701093734    0.0070154887
 N   -2.4032597229    0.0874575099   -0.0092435724
 N   -1.2090271950   -2.0373282437   -0.0227021610
 C   -0.0905598024   -2.6875489581   -0.0263489929
 C    1.2145205115   -2.0477584761    0.0098007907
 N    2.3225822051   -2.6652131924    0.0139499698
 O    1.1728376820   -0.6461776246    0.0364297696
 H    0.9773148459    1.7461031647   -0.2804370566
 H   -0.7306228603    1.8497397740   -0.1390464234
 H   -2.8590881164    0.0671051881    0.9003152414
 H   -3.0589651551   -0.3320647673   -0.6622968782
 H   -0.0945334063   -3.7721353944   -0.0628683838
 H    3.1090636109   -2.0164316012    0.0420458350