17

 O   -0.0665542696    0.0120201371    0.3261390436
 C   -0.0439538387    1.1805078587    0.0295194799
 N   -1.1448901726    1.9929390922   -0.2224678410
 C   -0.8021758284    3.3850963922   -0.0134370326
 C   -0.4510391061    3.8440912669    1.4524664191
 C    1.0750342616    3.7810896495    1.1253935663
 C    1.7072386700    2.3773441990    1.2524575255
 N    1.1276344395    1.9850921951   -0.0852207131
 C    0.7074229167    3.3938023426   -0.3387544317
 H   -2.0445424894    1.6201641921    0.0409417271
 H   -1.4572429000    4.0557166528   -0.5707083954
 H   -0.7843296912    4.8660054820    1.6502744188
 H   -0.8090670111    3.1969794170    2.2584181148
 H    1.6805338069    4.6443616039    1.3989500913
 H    2.8000741751    2.3838092156    1.2129624158
 H    1.3831570683    1.7377435779    2.0787767822
 H    1.0943153688    3.8427349655   -1.2538593906