22

 C   -0.1497273688    1.5864174873   -0.3306431511
 C   -0.0048562809    0.1722225566    0.2267630079
 N   -1.2824838969   -0.5285619129    0.1664341422
 C   -1.5617546881   -1.3095213102   -1.0375362188
 C   -1.3273927522   -1.9845540785    0.2677493140
 C   -0.1169414291   -2.8899601616    0.5347193889
 C   -0.5900499774   -3.7068804346    1.7476981438
 O   -1.9959563338   -3.8283152505    1.5878673405
 C   -2.4582007015   -2.5678939561    1.1282378437
 H    0.7971034925    2.1302209215   -0.2569930188
 H   -0.4448329007    1.5609524003   -1.3847006736
 H   -0.9153364063    2.1392911287    0.2204354922
 H    0.7927257642   -0.3595804042   -0.3207080083
 H    0.3048431171    0.2163408286    1.2783688514
 H   -2.5660274898   -1.2225885863   -1.4470990536
 H   -0.7721268796   -1.3866565451   -1.7865909688
 H    0.0663590687   -3.5496495236   -0.3185330564
 H    0.8026566245   -2.3350391406    0.7346587490
 H   -0.1675533577   -4.7132790876    1.7976223701
 H   -0.3488661761   -3.1812399161    2.6869896084
 H   -2.6607113139   -1.8838628594    1.9674827299
 H   -3.3893837242   -2.7290476859    0.5779524377