20

 C    0.0631300064    1.5934222081    0.1492847638
 C    0.1217898757    0.0950199056   -0.0080849689
 N   -0.6162791357   -0.7661230958    0.9375988252
 C    0.8830742233   -0.8068066248    0.9272548206
 C    1.3562505167   -1.9939801876    0.1446749961
 C    1.0398484342   -1.8046587168   -1.1382098664
 C    0.4024196163   -2.5265142951   -2.3031268938
 C   -0.7237987609   -1.4322740013   -2.1731408199
 C    0.2922717291   -0.5177738477   -1.3927139627
 H    0.8685384224    2.0802775421   -0.4115297760
 H   -0.8876133768    1.9908057032   -0.2258599222
 H    0.1590613442    1.8912918610    1.1989164928
 H   -0.9177887844   -0.1830461998    1.7177718632
 H    1.4063719905   -0.4239699715    1.7983542598
 H    1.6773938288   -2.9192546544    0.6084420303
 H    0.9509646835   -2.4153188542   -3.2445082655
 H    0.1271350450   -3.5743368477   -2.1672289969
 H   -1.1300109724   -1.0336757046   -3.1054936452
 H   -1.5264278980   -1.7655065087   -1.5140162717
 H    0.7933037920    0.1747234001   -2.0799306024