19

 C   -0.1108175320    1.5488373151   -0.0969073617
 C    0.0771586448    0.0335013701   -0.0293428837
 N    0.8679008442   -0.4774878460   -1.1675348536
 C    1.7865712290   -1.2301039445   -0.7084235880
 C    2.7646185690   -1.9311450693   -1.6008319286
 O    2.5850855937   -1.5924191791   -2.9501402268
 N    1.8619229252   -1.4371802456    0.7049268395
 C    2.2501771497   -0.1670745590    1.3811733677
 C    0.8187860007   -0.5049543671    1.2019991403
 H    0.8505734430    2.0689035321   -0.0566518581
 H   -0.6076180649    1.8258259145   -1.0303302389
 H   -0.7259282746    1.8976225194    0.7384277804
 H   -0.9143614065   -0.4369115384   -0.0754019379
 H    3.7853248485   -1.6814851344   -1.2691191159
 H    2.6513383395   -3.0157826003   -1.4412444255
 H    1.8058315481   -1.0178205017   -2.9750841514
 H    2.7177941207   -0.3015628424    2.3512538881
 H    2.6885903801    0.6087778653    0.7597200552
 H    0.2453299416   -0.8474204887    2.0567895190