21

 C    0.6944105814    1.5954772782   -0.4812455652
 C    0.0677549802    0.3182498090    0.0907925530
 C    0.0945286557   -0.8359747617   -0.9362558309
 C    0.8059888445   -0.1500637885    1.3347305204
 O    2.0156658035   -0.0929099145    1.4363977206
 C    0.0062900177   -0.7339817051    2.4935838111
 O    0.8679802362   -1.3898951639    3.3950689036
 C   -0.7515375139    0.3730323258    3.2648401104
 O   -1.3406846757   -0.1715094976    4.4202881929
 H    1.7531240669    1.4334989596   -0.6979201852
 H    0.1877965059    1.8870148291   -1.4057738141
 H    0.6202533439    2.4282816336    0.2244626598
 H   -0.9787038439    0.5052714241    0.3602679700
 H    1.1252337340   -1.0628137155   -1.2247111386
 H   -0.3573909997   -1.7493567293   -0.5371274920
 H   -0.4606725131   -0.5498793743   -1.8342134000
 H   -0.7322609541   -1.4540001089    2.1129488439
 H    1.7611906439   -1.1035311198    3.1388685906
 H   -0.0393809793    1.1785191643    3.5114897277
 H   -1.5557592206    0.8008867530    2.6578151879
 H   -0.6443687833   -0.6971168876    4.8366291642