21

 C    0.0183845213    1.3609332016   -0.0787437160
 O   -0.0326714562   -0.0332782555    0.1578755320
 C   -1.2939847519   -0.5947400736    0.0542499870
 C   -2.1571845075   -0.6108825882   -1.2566261532
 C   -2.8352089874   -1.7754572833   -0.4837739419
 C   -3.8016761206   -2.7533870927   -1.0861440729
 C   -1.4270167421   -2.1387029985    0.0611801748
 O   -3.4421778081   -1.0937642936    0.6430342972
 C   -2.3840024334   -0.2272550079    1.0872459175
 H    1.0710257217    1.6497956236   -0.0436003544
 H   -0.3884475870    1.6184250409   -1.0668576934
 H   -0.5284571720    1.9328623602    0.6837716925
 H   -2.7817065346    0.2534760491   -1.4946743603
 H   -1.5841562534   -0.9430722593   -2.1241490965
 H   -3.3472078970   -3.2718971053   -1.9347210617
 H   -4.1037402973   -3.4979589004   -0.3430558771
 H   -4.7011960138   -2.2362797179   -1.4343887373
 H   -0.7818626489   -2.6097306240   -0.6821981623
 H   -1.3772074394   -2.6585709047    1.0206980242
 H   -2.0861262974   -0.4665341170    2.1152273186
 H   -2.7077341148    0.8192608063    1.0416533929