18

 O   -0.0474134517    1.4642427737    0.0277404341
 C   -0.0492634534    0.0430362883   -0.0143060659
 C    0.7932630475   -0.5514119211    1.1238467201
 C    0.6042774000   -2.0361624915    1.3104996390
 N    1.5845715160   -2.8018660893    1.5464467105
 O   -0.6748314446   -2.5157402138    1.2691329661
 C   -1.7331813060   -1.7439656766    0.7390517768
 C   -2.2008428722   -0.4812248167    1.4015930118
 C   -1.4795557965   -0.4280687927    0.0652776548
 H    0.8537206407    1.7652057948   -0.1304950017
 H    0.3637558679   -0.3056711194   -0.9744095185
 H    1.8582960982   -0.3744447391    0.9622716571
 H    0.5168692876   -0.0373334416    2.0520337429
 H    1.2561447197   -3.7622973958    1.6699814292
 H   -2.4715504617   -2.4182614766    0.3216368732
 H   -3.2654526563   -0.2772003265    1.4153339734
 H   -1.6707785736   -0.1429734418    2.2838396999
 H   -2.0783499117   -0.1969935839   -0.8097042626