15

 C    0.0228362355    1.3896654956   -0.1038054718
 N   -0.0609964309   -0.0475840011   -0.2848174796
 C   -1.1484289629   -0.6322647821   -0.0918344613
 O   -2.3597744588   -0.0966907261    0.2902233633
 C   -3.2507739290   -1.1546401211    0.3669787749
 C   -2.6270124183   -2.2855075449    0.0498814984
 C   -3.0418199212   -3.7028437884   -0.0444601425
 O   -1.3048421541   -1.9847896217   -0.2426111981
 H    0.7853444627    1.6158829699    0.6503567073
 H    0.3550165644    1.8538838170   -1.0395052679
 H   -0.9176884801    1.8635144759    0.2024138847
 H   -4.2616148873   -0.9272328852    0.6549431679
 H   -2.8881757329   -4.0900522459   -1.0575995911
 H   -2.4582504519   -4.3288332072    0.6393341100
 H   -4.0994215552   -3.8014325048    0.2096164958