15

 O   -0.0626700850    1.3371864138    0.0435097674
 C    0.0575234904   -0.0389513143    0.0561277052
 C    0.7714410017   -0.9517376999    1.0741440384
 C    0.0897908675   -1.9077114680    0.0714505604
 C   -1.1717856530   -0.9876869349   -0.0811753946
 C   -1.0873752078   -1.0021556490   -1.6215808425
 C    0.3847142132   -0.9902208870   -1.1616741527
 H    0.8165336488    1.7199429831   -0.0492194629
 H    1.8672194101   -0.9397240082    1.0742384613
 H    0.3814951265   -0.9476637831    2.0971563497
 H    0.0855631575   -2.9953155974    0.0624655206
 H   -2.0465484138   -0.9911432882    0.5707387245
 H   -1.4380990482   -1.9085623621   -2.1248074395
 H   -1.4472486622   -0.1082011267   -2.1382412540
 H    1.3014504943   -0.9930554881   -1.7547136514