16

 C   -0.3171311549    1.4735129969    0.3129324519
 N    0.0217925039    0.1023600132   -0.0619780055
 C    0.5036558259   -0.3926988687   -1.3238995273
 C    1.2267101046    0.5141203720   -2.3229678986
 O    1.3725762619    1.8690975295   -1.9020766198
 C    2.4930567553    0.9843955535   -1.7357432631
 C    2.6064371416    0.3508170445   -0.3516815001
 O    3.6025162651    0.3548317719    0.3252428159
 C    1.3532705886   -0.4733648911   -0.0738285297
 H   -1.1473438039    1.8094970297   -0.3141893711
 H   -0.6636355193    1.4509971927    1.3511254518
 H    0.4947823775    2.1966002566    0.2185605126
 H   -0.0169832161   -1.2556409047   -1.7323895884
 H    1.0934021810    0.3589109670   -3.3896382962
 H    3.3961468710    1.2456343912   -2.2794871504
 H    1.5099901777   -1.3645197643    0.5297739281