16

 C   -0.0694343038    1.3712355045   -0.1047751148
 N   -0.2582535451   -0.0346346178    0.2002873123
 C    0.4492281191   -0.6291608049    1.2067614697
 N    1.1969774659    0.0398167161    1.9958739054
 C    1.8822685274   -0.6237676996    3.0962497089
 C    3.3325170749   -0.4616116498    2.9939772689
 C    4.5249014522   -0.3403922334    2.9166057198
 C    0.2281840230   -2.0706448305    1.2917844542
 N    0.0690811726   -3.2134581164    1.3657484262
 H    0.9607785755    1.5898317375   -0.4110448165
 H   -0.7549019464    1.6478451039   -0.9075834604
 H   -0.2874494869    1.9753770972    0.7794606591
 H   -0.6470002495   -0.6349358204   -0.5069590885
 H    1.5420796609   -0.1611223870    4.0328957465
 H    1.6457636802   -1.6966726328    3.1739076126
 H    5.5792019600   -0.2338292867    2.8494267866