17

 O    0.0856644123    1.4139091755    0.1685282787
 C    0.0458757591    0.0168711842   -0.0164637795
 C   -1.3831499486   -0.5081782367   -0.0328215634
 C   -1.4915083049   -2.0183440404   -0.2327654268
 C   -2.8370161621   -2.6008857688    0.1837778546
 O   -3.2182983225   -3.6820354067   -0.1641880470
 O   -3.5835906852   -1.8736177997    1.0561752923
 C   -3.2987597882   -0.4858338841    1.2742455402
 O   -1.9471223753   -0.1852098838    1.2435806269
 H   -0.4103582144    1.5966446911    0.9748329023
 H    0.5246931005   -0.1957903567   -0.9777018903
 H    0.6077484378   -0.5174517322    0.7669179032
 H   -1.9493251620    0.0284452710   -0.8107608283
 H   -1.3073217300   -2.3128723036   -1.2683948428
 H   -0.7402063489   -2.5247369765    0.3865781143
 H   -3.8503808725    0.0897145285    0.5143281213
 H   -3.6743980251   -0.2559654310    2.2724871043