19

 C    0.0948528879    1.4299484472    0.0972230658
 N    0.1393323484   -0.0215333472    0.0526669743
 C    0.5427098912   -0.6090229829   -0.9887605642
 O    0.9878672216    0.0548475308   -2.1027143026
 C    0.8238089570   -0.6429027938   -3.3451397682
 C    1.5716732618   -1.9623045182   -3.3227028785
 N    1.0901258956   -2.8150773599   -2.2228941954
 C    1.8903111893   -2.8182964449   -1.0057823378
 C    0.5798211438   -2.1031464660   -1.0384016120
 H    0.9662458065    1.8081986747    0.6466334349
 H    0.0834860373    1.9067561215   -0.8893502463
 H   -0.7929759415    1.7378585009    0.6584964573
 H   -0.2452194500   -0.8068261261   -3.5346140071
 H    1.2131790180    0.0251574500   -4.1168983546
 H    1.4146635199   -2.4918606826   -4.2695527821
 H    2.6471086173   -1.7643977299   -3.2290240454
 H    1.9691819459   -3.7707583871   -0.4890422601
 H    2.7916456053   -2.2079378187   -0.9840643468
 H   -0.2729316955   -2.5688384479   -0.5553448912