18

 C   -0.0814990582    1.5066703937    0.0463358899
 C    0.0183126906   -0.0093906585   -0.0275774733
 O   -1.2302983178   -0.5786014468   -0.3215812233
 C    1.2503813711   -0.6486910894   -0.7082059222
 N    2.0917005670   -0.0672443201    0.4624042946
 C    0.8395872020   -0.7503194159    1.0913421187
 C    0.0732635964   -1.6974999087    2.0429384160
 O   -0.0807768632   -2.6095062050    0.8912369985
 C    1.0466793201   -1.9334020738    0.2285099880
 H    0.8703151541    1.9606466424    0.3164170802
 H   -0.3914569318    1.9099183030   -0.9267458842
 H   -0.8397487853    1.7904582717    0.7840098762
 H   -1.7428185320    0.0782783406   -0.8018572158
 H    1.6224715526   -0.5458905777   -1.7328312576
 H    2.8904365455   -0.6895795752    0.6199886331
 H    0.6552101701   -2.1662308274    2.8443994163
 H   -0.8942649682   -1.3434797435    2.4078163115
 H    1.9522773370   -2.5421828594    0.3325042935