16

 C   -0.0099919896    1.4478016364    0.0335525855
 C   -0.1351911258   -0.0295181928    0.0769594986
 C   -1.1625022991   -0.9053014871    0.1999256589
 N   -0.6747476947   -2.2070200891    0.1851875825
 C    0.6063798530   -2.0692332744    0.0603224092
 C    1.6489236242   -3.1252878658   -0.0541851878
 C    2.1517974988   -3.2875731427   -1.4876474844
 O    3.3110658245   -3.3691004280   -1.7893663294
 O    1.0150889787   -0.7733884953   -0.0186679838
 H    0.4470443849    1.7845813212   -0.9034215764
 H   -0.9994489038    1.9029836946    0.1153574333
 H    0.6096928505    1.8226797538    0.8556310298
 H   -2.2153498014   -0.6945573714    0.3014400935
 H    2.5072645827   -2.9267103906    0.5926901369
 H    1.1849027292   -4.0720306836    0.2443792199
 H    1.3418088479   -3.3386551251   -2.2487022163