18

 C   -0.2267378253    1.5042426268    0.0227622750
 C   -0.2437028552    0.0194382013    0.3765489652
 C    0.9785831725   -0.4277743847    1.1505734367
 O    1.8328490265    0.3298743497    1.5387793737
 C    1.1504128717   -1.9497949415    1.4098483490
 C    2.0861723135   -2.2299301122    2.6150092945
 O    2.3831598697   -3.5989984367    2.7469291252
 C   -0.1151233743   -2.6598125865    1.5774308392
 N   -1.0998871694   -3.2380548500    1.7609233738
 H    0.6333448680    1.7484566373   -0.6061661327
 H   -1.1378015190    1.7782254902   -0.5151391793
 H   -0.1570256942    2.1179664959    0.9238973809
 H   -1.1247915337   -0.2390310047    0.9797118120
 H   -0.3292482791   -0.6122178209   -0.5185838102
 H    1.6380829320   -2.3586549613    0.5130645310
 H    3.0258266233   -1.7073737923    2.4340866162
 H    1.6374435687   -1.8073457257    3.5241430487
 H    1.5861600541   -4.0594316444    3.0326815712