14

 O   -0.1662337557    1.3562571796   -0.0752064580
 C    0.0105571928    0.0099182468   -0.0382816636
 C    0.9206420637   -0.9874661567   -0.8259002415
 C   -0.1557803406   -2.0100385708   -0.7996723205
 N    0.8540285297   -1.9713113736    0.3126734511
 C   -0.0508816914   -1.0066443148    1.0673050205
 C   -1.1158628287   -1.0512029050   -0.0406781511
 C   -2.5127305995   -0.8829749452    0.0045679339
 C   -3.7098886337   -0.7516387351    0.0329211758
 H    0.5120832309    1.7776395121    0.4665146290
 H    1.7988062759   -0.8778830328   -1.4510920057
 H   -0.3361185565   -2.8905710004   -1.4047233974
 H   -0.1607253905   -0.9541930118    2.1431274799
 H   -4.7639513264   -0.6286779523    0.0578725176