18

 C    0.7248327073    1.3819107304    0.1976005079
 C   -0.1402361139    0.1448318245    0.0393771366
 O   -0.8018869784   -0.3067782933    0.9453856522
 C   -0.1184905070   -0.4704741671   -1.3364412292
 O   -0.5737182120   -1.8119782640   -1.4773043476
 C   -1.3626197690   -0.7980046122   -2.0969835361
 C   -2.7338257122   -0.5833782892   -1.4978963432
 C   -1.2938201516   -0.7739773631   -3.6100941791
 H    1.7834786154    1.1140248803    0.0985895517
 H    0.5075204441    2.1122041194   -0.5904128830
 H    0.5537486925    1.8281747485    1.1774719004
 H    0.7657643935   -0.2246786377   -1.9278488665
 H   -2.6963121125   -0.6352259275   -0.4102780172
 H   -3.1414951258    0.3861494409   -1.8036087801
 H   -3.4150136967   -1.3597923727   -1.8628193370
 H   -1.9600468722   -1.5368340106   -4.0274802407
 H   -1.6146086018    0.1979840634   -3.9991574065
 H   -0.2791538298   -0.9768458299   -3.9606507827