16

 O   -0.0161630561    1.4571922056   -0.1474692261
 C   -0.0075538015    0.1258445788    0.3236091447
 C   -1.3232102990   -0.5693293929    0.0375594084
 O   -1.5426590378   -0.6699233394   -1.4204671522
 C   -1.6544537368   -2.0524870438   -1.3743426455
 N   -1.8830462693   -2.8977524314   -2.2667844114
 C   -1.3941978374   -2.0959790430    0.1050117502
 C   -0.6913028842   -3.0908989257    0.9181425995
 O   -2.1003497991   -2.8605951150    1.0457918762
 H   -0.1968142653    1.4185042578   -1.0938913310
 H    0.8152633511   -0.4603710546   -0.1148448205
 H    0.1524678901    0.1728914524    1.4064647115
 H   -2.1670580002   -0.0527926872    0.5028426873
 H   -2.0153815660   -2.4646018558   -3.1818002633
 H   -0.4138762252   -4.0390886349    0.4629631756
 H   -0.0867332334   -2.7655132107    1.7630129766