23

 O   -0.1010958514    1.3284711310    0.0141084890
 C    0.0651491774   -0.0956349370    0.0001839191
 C    0.6951272703   -0.5654044252   -1.3299262968
 C   -0.5130042487   -0.7881684387   -2.2553650139
 C   -1.5361899232   -1.4605741101   -1.3214573331
 C   -1.3812259614   -0.6986410041    0.0105192456
 C   -1.5059302646   -1.4870716824    1.3301193124
 C   -0.4638810213   -0.8308918633    2.2545998384
 C    0.7239016388   -0.5882421391    1.3079807855
 H    0.7774160028    1.7238576680    0.0072449806
 H    1.4202896059    0.1566828062   -1.7198939561
 H    1.2249804129   -1.5141387025   -1.1815635331
 H   -0.8975519521    0.1806222375   -2.5944024451
 H   -0.2776889723   -1.3819233400   -3.1436379400
 H   -2.5574037536   -1.4352543722   -1.7125789608
 H   -1.2706574160   -2.5172988354   -1.1844298990
 H   -2.0649894545    0.1552477714    0.0269938805
 H   -2.5184664842   -1.4717745732    1.7436918461
 H   -1.2414832569   -2.5402854978    1.1664694114
 H   -0.8424727543    0.1304839198    2.6204271959
 H   -0.2087094056   -1.4411276211    3.1260651400
 H    1.2525876246   -1.5327342776    1.1311886475
 H    1.4554922875    0.1284852858    1.6957734960