15

 O   -0.7711959809    0.8241205590   -0.4493764051
 C    0.1388129559    0.9874732491    0.3245013029
 C    1.3210356645    1.8544481305    0.0443704761
 C    1.4982557760    3.1980408884    0.8142030001
 O    1.7765935090    3.9041517076   -0.4097774321
 C    1.5636451739    2.7274470345   -1.2173280209
 C    2.8823363737    1.9819360846   -1.5321682985
 C    2.7083060955    1.1948088710   -0.2196546554
 O    3.3523220205    0.3867820366    0.3757258618
 H    0.1582602206    0.4816957691    1.3146742493
 H    0.5735477271    3.5541485593    1.2843735032
 H    2.3194434253    3.2472542956    1.5373840200
 H    0.8327900759    2.8733081869   -2.0116405093
 H    2.7977382782    1.3099213678   -2.3944292925
 H    3.7843303250    2.5895224800   -1.6311396097