16

 C    0.0379039790    1.5362781178   -0.0173379223
 C   -0.0461420738    0.0483167920   -0.0118411228
 C   -1.0980606155   -0.7620270652    0.1128857907
 C   -0.6716906087   -2.2203721948    0.0518313590
 N    0.7594832673   -2.0975033544   -0.1674612314
 C    1.1941710461   -0.7888309349   -0.1435776060
 O    2.3415257901   -0.4053455946   -0.2195078811
 C   -1.0179737215   -2.9747256023    1.2592139245
 C   -1.3085116668   -3.6089474042    2.2372210489
 H    0.7115647361    1.8809689473    0.7743137657
 H    0.4659821032    1.8927710984   -0.9605548023
 H   -0.9415611837    1.9991169655    0.1230313816
 H   -2.1371633122   -0.4891055095    0.2405986843
 H   -1.1530444375   -2.7089793589   -0.8102927487
 H    1.3964876796   -2.8689145673   -0.0568860306
 H   -1.5615531116   -4.1634208750    3.1072390805