18

 C   -0.0035206974    1.5590524812   -0.0493699288
 C    0.0228428505    0.0345082522    0.0566408841
 O    0.7368869553   -0.4082882444    1.2045768980
 C   -1.3804837816   -0.5614407775    0.0520255112
 C   -2.2362246115   -0.4945164627   -1.2311061479
 O   -2.4741010408   -1.9214075345   -1.1966068226
 C   -1.5497935115   -2.1028946454   -0.1061675490
 C   -0.3609109830   -2.8603795493   -0.5174278472
 N    0.5608322645   -3.4661669936   -0.8618584860
 H    1.0160174749    1.9520792593   -0.0287893460
 H   -0.4819636240    1.8893551197   -0.9771535417
 H   -0.5591870445    1.9997215827    0.7883596613
 H    0.5844065110   -0.3770456005   -0.7903083059
 H    0.3691734875    0.0391423107    1.9753291955
 H   -1.9286130979   -0.2100455205    0.9319582670
 H   -3.1695126340    0.0737349114   -1.1764384114
 H   -1.6837707459   -0.2000172338   -2.1328536778
 H   -2.0172148314   -2.6182784950    0.7396735070