16

 C    0.1913187841    1.3984522047    0.0846975512
 N    0.0963345645   -0.0509990829    0.0411984360
 C    0.5849557413   -0.6538355164   -0.9545532084
 N    1.2158781869   -0.1465027820   -2.1026748746
 C    1.5028338612   -1.2004597919   -2.9496635080
 N    1.1708187319   -2.3658425252   -2.5399638471
 C    0.6024574935   -2.1569785363   -1.1917868411
 C    1.4875810033   -2.9464899319   -0.2159890441
 O    2.1065477914   -2.4730101614    0.6946681830
 H    1.2166818932    1.7251582911    0.3096114109
 H   -0.1171944625    1.8800990412   -0.8575765687
 H   -0.4552248500    1.7812451179    0.8777916169
 H    1.4328875829    0.8194914320   -2.2742850653
 H    1.9773542452   -1.0078832913   -3.9066515432
 H   -0.4066563253   -2.5844873810   -1.1380046439
 H    1.5276402885   -4.0278760665   -0.4651347336