21

 C   -0.0824731637    1.5485735734   -0.0667269333
 C    0.0215416627    0.0184456586   -0.0682643901
 C    0.7720136911   -0.5086459045   -1.2528245788
 O    0.2648101407   -0.2078335354   -2.5989111741
 C    1.4644488007   -1.0020508989   -2.8251994952
 C    2.2783136835   -0.3705178790   -1.6625077237
 C    2.6341941479   -1.7516250824   -1.0724647167
 C    1.2076777767   -1.9763001904   -1.6279396084
 C    0.3374425223   -3.1997299068   -1.6264605408
 H    0.9073270324    2.0109540928    0.0031166314
 H   -0.5516339784    1.9008334521   -0.9891341875
 H   -0.6794164993    1.8989005368    0.7802440421
 H    0.5211177158   -0.3352488325    0.8425536812
 H   -0.9816871857   -0.4259366868   -0.0696448572
 H    1.7623477998   -1.2181130438   -3.8515765618
 H    2.8639614539    0.5477747295   -1.7024321386
 H    3.4413726897   -2.3000716585   -1.5676002277
 H    2.7527584041   -1.8073432007    0.0140115798
 H    0.1244500374   -3.5376092681   -0.6062170172
 H   -0.6153385195   -2.9804490626   -2.1200373256
 H    0.8147564279   -4.0295754028   -2.1589404377