21

 C   -0.0591873367    1.5020009165   -0.0401619719
 C    0.0651294056    0.0043153952   -0.0408030212
 C   -0.0324233664   -0.7261814502   -1.1597394149
 C    0.0499508094   -2.2078120676   -1.1729579455
 C    1.4130435132   -2.8682974682   -1.1949009233
 O    2.5771124265   -2.1038883579   -1.2726063609
 C    0.5894874469   -2.8862333631    0.0775316202
 C    1.0261398977   -1.9912412557    1.2318636838
 C    0.2442157426   -0.6663926195    1.3077122000
 H    0.8465232396    1.9768886479    0.3584978486
 H   -0.2414767051    1.8969203104   -1.0434175215
 H   -0.8845625407    1.8233953432    0.6086909008
 H   -0.1933664323   -0.2275897567   -2.1143090238
 H   -0.7361841375   -2.7138555032   -1.7275354157
 H    1.5208956298   -3.7966023539   -1.7476361472
 H    2.3131123278   -1.1747972298   -1.2871818796
 H    0.1371765305   -3.8350503762    0.3475561375
 H    0.9253881319   -2.5317699951    2.1777198492
 H    2.0920910249   -1.7636300648    1.1136562170
 H    0.7492302018    0.0203859020    1.9978534639
 H   -0.7524407897   -0.8389028832    1.7406733544