14

 O   -0.0007360037    0.0321725799   -0.1874157087
 C   -0.0306977804    1.2117771509    0.0234933247
 C   -1.1304339340    2.2259789714    0.0649675835
 C   -0.7324517081    3.3764216296    0.9969577493
 C    0.3073822271    3.0907000811    2.0769011930
 O    1.4745780544    2.6556713258    1.3731170612
 C    1.0632180602    2.3291929303    0.0562819680
 C   -0.0757052665    3.3076687906   -0.3283793696
 H   -2.1504414253    2.1028765263   -0.2775237608
 H   -1.5110578651    4.1065715410    1.1834340604
 H    0.5605430547    3.9936071257    2.6438826314
 H   -0.0275967407    2.3165752040    2.7792844460
 H    1.9361901663    2.2000225347   -0.5810349401
 H   -0.1174036287    4.0181903885   -1.1401785283