21

 C    0.0482520450    1.5253217916    0.1589103423
 C   -0.0552063193    0.0103354707   -0.0559395462
 C    0.6785373978   -0.4944242701   -1.2824793238
 C    2.2356592567   -0.4132890394   -1.4158553393
 C    2.0278540287   -1.5527211580   -2.4670932072
 C    0.8526172573   -2.0235627690   -1.5492966139
 C    1.2452837139   -0.7979442436   -3.5303954989
 O    1.3715382746   -0.8125270465   -4.7248323679
 C    0.2333470983    0.0011507670   -2.6782631443
 H    1.0926067746    1.8429731899    0.2491912553
 H   -0.3982072300    2.0820611053   -0.6710680808
 H   -0.4699108836    1.8253411391    1.0744849304
 H    0.3412839276   -0.5089172309    0.8263658915
 H   -1.1124121397   -0.2787316843   -0.1291812988
 H    2.6868509617    0.5241499564   -1.7537943802
 H    2.7479272963   -0.7781962670   -0.5219480031
 H    2.8253841936   -2.2090156853   -2.8079360337
 H    1.2177238431   -2.5585384875   -0.6688138913
 H    0.0237162140   -2.5714785801   -2.0076613745
 H   -0.7979115677   -0.2658978272   -2.9328567930
 H    0.3551668871    1.0776261991   -2.8329404426