21

 C    0.1773022239    1.3514635478    0.6628002769
 C   -0.4025739293   -0.0621457067    0.6106312368
 O   -1.7572808560   -0.0880671335    1.0333476781
 C   -0.2309337295   -0.6900210001   -0.7925233733
 C   -0.7312562922   -2.0555369427   -0.8797023795
 C   -1.1475046851   -3.1843841625   -0.9427553502
 C   -1.6991140087   -4.5426139148   -0.9475625291
 C   -0.9481037521   -5.4611275464    0.0277681234
 O   -3.1017768917   -4.5384358819   -0.6823387545
 H    0.0273137517    1.7807907146    1.6565573637
 H    1.2493676752    1.3532681742    0.4405028669
 H   -0.3170107317    2.0027927409   -0.0691577172
 H    0.1206831607   -0.6975807954    1.3338842019
 H   -2.2690686129    0.4562547017    0.4241688430
 H   -0.7455990864   -0.0524514230   -1.5269745044
 H    0.8324091179   -0.6639481826   -1.0646729440
 H   -1.6133754656   -4.9616639108   -1.9579519564
 H   -1.0120892115   -5.0679981109    1.0473584922
 H   -1.3954072777   -6.4583855750    0.0058120986
 H    0.1093048580   -5.5362110565   -0.2430074416
 H   -3.2412859572   -3.9824248465    0.0925010985