18

 C   -0.1848546204    1.4462998813    0.1096201943
 C    0.1097459883   -0.0313994374   -0.1902940840
 C    0.9497101990   -0.1736527357   -1.3803284715
 C    1.6289240413   -0.2658813314   -2.3667595556
 N    0.7970745679   -0.6189247820    0.9724396934
 C   -0.0441557949   -1.0748741392    2.0656279785
 C    0.6741169059   -2.0708136484    1.2015778360
 C   -0.0793910560   -2.9231447713    0.3223439076
 C   -0.6818546012   -3.6589990849   -0.4142498289
 H    0.7451747170    1.9805410915    0.3169015391
 H   -0.6786536048    1.9141574402   -0.7453809755
 H   -0.8405719112    1.5301778358    0.9813297766
 H   -0.8444203874   -0.5489268582   -0.3853749590
 H    2.2294945417   -0.3609341452   -3.2372817477
 H    0.3183895150   -0.8658286434    3.0682666992
 H   -1.1249773406   -1.0255925894    1.9430980323
 H    1.5894743202   -2.5162175818    1.5836989556
 H   -1.2130082098   -4.3063618103   -1.0673279403