19

 O    0.1083728542    1.2807391448    0.7256508113
 C    0.0323613598    0.1352603625   -0.1167481937
 C   -1.3261673149   -0.3903649720   -0.1133124464
 C   -2.4447788103   -0.8382758294   -0.1172405875
 C   -3.7910086890   -1.3817018369   -0.1357683970
 C   -4.5338873308   -1.5371944065   -1.5213462844
 C   -4.7160381429   -3.0304872712   -1.2352267628
 C   -3.3770812616   -3.6833452264   -1.0354194033
 C   -3.9754181529   -2.8979480678    0.0950514391
 H    1.0175352210    1.5960131509    0.6967507309
 H    0.3204619500    0.3848522378   -1.1514766190
 H    0.7246008888   -0.6529889690    0.2227315095
 H   -4.4219273254   -0.8109701299    0.5520914568
 H   -5.4671706090   -0.9712241984   -1.5414035804
 H   -3.9458197238   -1.2856108498   -2.4084210207
 H   -5.6063157943   -3.6046893527   -1.4596921396
 H   -3.3978776661   -4.7606785371   -0.9061886226
 H   -2.4975829676   -3.3123427036   -1.5565951264
 H   -4.1928131250   -3.3451816654    1.0572078961