17

 O    0.0129819152    1.4017099398   -0.1091160939
 C    0.0738606199   -0.0106075764   -0.0224575167
 C   -1.3017004256   -0.5878075480    0.1349585678
 C   -2.2255587441   -0.3348050818    1.3582324221
 C   -2.9880212815   -1.5571728135    0.8417182382
 O   -3.9258507179   -2.3286800426    1.4886969342
 C   -2.8750452918   -1.4622176084   -0.6957064593
 O   -2.1706363288   -0.2622407201   -1.0104429012
 C   -1.7758325875   -2.0911944832    0.0988973056
 H   -0.6009113463    1.6064884809   -0.8243866036
 H    0.5538152448   -0.4532396497   -0.9089145773
 H    0.6865114029   -0.2531380134    0.8519387993
 H   -1.7156926837   -0.5581863346    2.2988171418
 H   -2.7214519080    0.6391414016    1.4007613133
 H   -4.7832736149   -1.8941868386    1.4147786372
 H   -3.5912720961   -1.8704759559   -1.3969949302
 H   -1.2723617667   -3.0471738861    0.0736781929