19

 C   -0.0409754548    1.4697804499    0.0253619573
 C    0.0264009535   -0.0455704106   -0.0096545229
 O    0.6644305868   -0.4780511440    1.1957659563
 C    0.8143272921   -1.8055368913    1.3428382148
 N    0.4053618853   -2.6874455441    0.4413850557
 N    0.7527261956   -3.8835416136    0.9911067078
 C    1.3607523617   -3.7692185531    2.1984565346
 C    1.8263695128   -4.9532027363    2.9812378695
 C    1.4208540730   -2.4169840076    2.4668411524
 H    0.9619614151    1.9019478618    0.0866475115
 H   -0.5242988379    1.8439982385   -0.8821068479
 H   -0.6157090806    1.8131994622    0.8903208914
 H   -0.9723467849   -0.4943957265   -0.0740025662
 H    0.5980336810   -0.4061153753   -0.8735476292
 H    0.5426810300   -4.7254117466    0.4844341974
 H    2.5751611620   -5.5353126216    2.4317057020
 H    2.2805459098   -4.6269889865    3.9188321162
 H    0.9990980835   -5.6287790362    3.2276273935
 H    1.8361634261   -1.9358399590    3.3362985857