19

 C   -0.0491624768    1.4669783106    0.2243333096
 N   -0.0753593178    0.0188460387    0.3827494879
 C   -1.0958486781   -0.6173127012    0.0418516149
 O   -2.3062827884   -0.1683236025   -0.4955849932
 C   -2.8187994179   -1.5270728729   -0.5771156145
 C   -2.4396390371   -2.1961781647   -1.9115013325
 N   -1.2572945117   -2.8038261356   -1.2534406654
 C    0.0424845441   -2.7559496678   -1.8917372515
 C   -1.4987772994   -2.0838462324    0.0122604338
 H    0.8076371668    1.7417135373   -0.4004567616
 H   -0.9592709288    1.8864772691   -0.2195692959
 H    0.1106898672    1.9296460362    1.2044359028
 H   -3.8153516952   -1.6197602551   -0.1515649758
 H   -3.1394094381   -2.9422777993   -2.3040652208
 H   -2.2232426022   -1.4539493872   -2.6917215438
 H    0.3760475227   -1.7368263636   -2.1489905670
 H    0.7904432827   -3.1963378605   -1.2247704228
 H    0.0147425932   -3.3529536503   -2.8092903374
 H   -1.3615712353   -2.6661667588    0.9248520534