16

 C   -0.1424694026    1.5358742836   -0.0448965953
 C   -0.0273415903    0.0227372693   -0.0461822340
 C   -1.1388828455   -0.6779123877    0.5416152446
 N   -2.0375109464   -1.2498508761    0.9942960397
 C    0.7024435286   -0.7172414039   -1.1908733342
 N    1.3234427769   -0.0773495731   -2.2968937913
 C    1.3452146529   -0.6588093322    0.1754605676
 C    2.4927639062    0.1805287664    0.3717862885
 N    3.4109237349    0.8733407472    0.4982409978
 H    0.6776132127    1.9906698280   -0.6025759812
 H   -1.0845959706    1.8386866942   -0.5099589760
 H   -0.1205426713    1.9304673272    0.9742248060
 H    0.2685718767   -1.6824660995   -1.4358455736
 H    0.6532070026    0.2858714785   -2.9642343672
 H    1.9692797798    0.6560437173   -2.0311583503
 H    1.3485242155   -1.5689999791    0.7642888689