19

 N   -0.0754288856   -1.1521437679   -0.4458497286
 C   -0.0569558101   -0.0219252434   -0.2055378643
 C   -0.0066370776    1.4275163779    0.0852021505
 N   -0.6703413711    1.7275938400    1.3621625255
 C    0.2347817238    1.8927961286    2.5138414401
 C    1.6435115608    2.3570153211    2.0999360872
 C    1.5453237186    3.2601735042    0.8364601827
 C    1.4601185862    1.9308970068    0.0347313362
 C    2.2706080635    1.2724758535    1.1820114650
 H   -0.5792726773    1.9215232956   -0.7084742511
 H   -1.2269099890    2.5613555293    1.2439489227
 H   -0.2310406585    2.6132180236    3.1941416679
 H    0.3159164432    0.9439867892    3.0612175849
 H    2.2175331815    2.7065209825    2.9610674674
 H    0.7154920798    3.9699079446    0.7609648878
 H    2.4835646787    3.7820736044    0.6359130729
 H    1.8517315105    1.8841940687   -0.9833127314
 H    3.3452079928    1.4143262072    1.0449344057
 H    2.0705182397    0.2221906039    1.4131036689