20

 C    0.0124081054    1.5565691270    0.0845235499
 C   -0.0086594885    0.0338882840    0.0028636051
 C    0.6620676046   -0.4819875837   -1.2831635484
 C    0.2760661603   -1.9177727670   -1.6896088022
 O   -0.0681670919   -2.7831671305   -0.6210564134
 C    0.8319231431   -2.8099152814    0.4718189773
 C    0.4542965063   -1.7710330679    1.5272534247
 O    0.6966343867   -0.4321792763    1.1542662612
 H    1.0407527855    1.9279883718    0.0263393814
 H   -0.5621548109    1.9977176603   -0.7352956619
 H   -0.4164101452    1.8898218138    1.0330120978
 H   -1.0504790040   -0.3214968343    0.0473806511
 H    0.4184488410    0.1797539454   -2.1229479987
 H    1.7430325182   -0.3987718416   -1.1254600882
 H   -0.6183106515   -1.9002921581   -2.3210243591
 H    1.0894630211   -2.3571076169   -2.2897276049
 H    0.7532560892   -3.8083497720    0.9199089921
 H    1.8726658423   -2.6692620177    0.1444721214
 H   -0.6093597180   -1.9184201436    1.7772799754
 H    1.0451522362   -1.9394710014    2.4351732294