19

 C   -0.0108062776    1.4926738101   -0.7091097407
 N   -0.1711238096    0.0448529438   -0.5741127340
 C    0.9820216082   -0.7195121207   -1.0187445387
 C    2.1305864417   -0.7804452701   -0.0025017775
 O    2.0875046179   -0.2312573580    1.0666409974
 C    0.5598203376   -2.1377821222   -1.3630386339
 N    0.7395213698   -3.0726718718   -0.5240810455
 O   -0.0031241364   -2.1872243060   -2.5912861591
 C   -0.5454938765   -3.4307219786   -3.0154222152
 H    0.8747297722    1.8995153321   -0.1987122806
 H    0.0507980324    1.7527955726   -1.7717988356
 H   -0.8975531665    1.9854084165   -0.3005082640
 H   -0.3271822199   -0.1805698846    0.4041454534
 H    1.3737753815   -0.2613750730   -1.9373948601
 H    3.0205942865   -1.3600913454   -0.3276863901
 H    0.3905512571   -3.9768570299   -0.8385433864
 H    0.2300352378   -4.2034867610   -3.0820141809
 H   -1.3379885941   -3.7693172778   -2.3378260218
 H   -0.9656679021   -3.2547659160   -4.0058876069