18

 C    0.7712513388    1.4392669893   -0.0052371748
 C   -0.1032850266    0.1938402508   -0.0690716586
 C    0.2157646447   -0.7698439355   -1.2459439487
 C    0.9230550572   -1.6599723522   -0.1957744446
 C    0.9595292514   -3.1990044186   -0.2218778038
 O    2.4221592517   -3.1687376621   -0.3515644305
 C    2.4551165492   -1.8015971578   -0.2647071657
 O    3.4084639751   -1.0880728048   -0.2374357837
 N    0.2766134853   -0.9010495905    0.8729857017
 H    1.8285493969    1.1803103424   -0.1251946637
 H    0.4936064815    2.1467189285   -0.7943164279
 H    0.6473745750    1.9500723319    0.9563626266
 H   -1.1589292287    0.4685274768    0.0314642538
 H   -0.6645834652   -1.2502855198   -1.6769235066
 H    0.8455332767   -0.3713528760   -2.0423996778
 H    0.6607639246   -3.6820087572    0.7105398781
 H    0.5048401174   -3.6907667254   -1.0844535806
 H    0.8824763549   -0.6250815800    1.6404974569