16

 O   -0.0527361981    0.0126008945    0.1037620075
 C   -0.0357957757    1.1977468025   -0.0642515062
 C   -1.1683109461    2.2637916987   -0.1912407773
 C   -0.0704747984    3.2993549548    0.1249878200
 C    0.2075780630    4.1528705766    1.3385303460
 O    1.5645159815    3.8777888940    1.7006571694
 C    1.9518611390    2.5575867506    1.2834576926
 C    1.0363395797    2.2457757563    0.1293829284
 N    0.9541821022    3.3103207560   -0.8861968849
 H   -1.6922665986    2.3942678281   -1.1415390585
 H   -1.9039267327    2.1057598060    0.6030867650
 H    0.1410184261    5.2302649828    1.1634646987
 H   -0.4943932670    3.8799718476    2.1422369172
 H    3.0135091456    2.6064829988    1.0296989281
 H    1.8064544143    1.8175972422    2.0837165402
 H    0.6178447852    2.9629856306   -1.7810198364