17

 O   -0.0042260032   -0.0082491259   -0.1702790889
 C    0.0159224225    1.1790423568   -0.0289390756
 O   -1.0981693429    1.9303723322    0.1839278664
 C   -0.7061484917    3.2853920265    0.3819176714
 O    0.6255295140    3.4077171282   -0.0544072466
 C    1.2092791403    2.1205266163   -0.0418597272
 C    2.2812340863    1.7760582921    1.0400308434
 C    3.0945094177    1.0577978682   -0.0703911289
 C    2.2584628724    1.8177719251   -1.1363530326
 H   -1.3492813157    3.9353670484   -0.2183849888
 H   -0.8096579783    3.5260713019    1.4503139108
 H    2.7597823656    2.6990985555    1.3767371047
 H    1.9604811918    1.1925136498    1.9053442725
 H    4.1732562904    1.2188601976   -0.0774677794
 H    2.8873309715   -0.0129817338   -0.0900268328
 H    1.9127100219    1.2658322027   -2.0119711557
 H    2.7330850375    2.7500394285   -1.4517451426