12

 N    0.0070825745    1.3198753780   -0.1292338429
 C   -0.0038444562   -0.0488878846   -0.0269667034
 N   -1.0895136231   -0.7873454151    0.0141892760
 N   -0.5647464429   -2.0591618853   -0.0053424168
 N   -1.0423536903   -3.3181691992    0.0175316660
 N    0.0257402089   -4.0665682361    0.0023943115
 N    1.1961890123   -3.3475407706   -0.0225395428
 C    0.7743899860   -2.1032563074   -0.0275141504
 N    1.1721694902   -0.7852910141   -0.0270015030
 H    0.6643297461    1.7921401368    0.4774215128
 H   -0.9229618769    1.7107944355   -0.0555066551
 H    2.0952822413   -0.4378754080   -0.2212408418