23

 C   -0.2928115825    1.1267649057   -1.6976781609
 C   -0.1705263796   -0.0407524238   -0.7411211837
 C    1.1576920766   -0.6365623913   -0.3116271169
 C    2.5002737768   -0.1301043478   -0.7942851389
 C    0.2916651541    0.1052299757    0.6954139276
 C    0.7180140857    1.4468415971    1.2644044045
 C   -0.3952935223   -0.7432031692    1.7319370383
 C   -1.8569663828   -0.8184458970    1.8650003880
 O   -1.1108629785   -1.8966978035    1.2901549525
 H    0.5062818496    1.8628648725   -1.5827527560
 H   -0.2654904384    0.7771713455   -2.7357860705
 H   -1.2434537567    1.6531894556   -1.5550389469
 H   -0.9515134965   -0.7856645748   -0.8705033219
 H    1.1288029645   -1.7176339174   -0.1952634761
 H    2.5222823375    0.9518309181   -0.9440210181
 H    3.2928996995   -0.3778399487   -0.0792235464
 H    2.7648559347   -0.5947951256   -1.7507839926
 H    1.2577525314    2.0589956416    0.5406395161
 H   -0.1518644006    2.0230620099    1.6007203150
 H    1.3759405214    1.3104859110    2.1313142077
 H    0.1957794619   -0.9187634409    2.6347103998
 H   -2.3106211166   -1.0314051275    2.8317712455
 H   -2.4820146494   -0.2656795854    1.1652735039