21

 C    0.1320747737    1.3601615766    0.0971709850
 O   -0.1647551955    0.0042045054   -0.1339398491
 C    0.5628076538   -0.5643498341   -1.2073057199
 C    2.0395251254   -0.9277949608   -0.8595285879
 C    1.9677459777   -2.4454628444   -1.0096116964
 C    1.0890447272   -2.7887413280   -2.2576474959
 C    0.5886964115   -4.0618791138   -1.5352112847
 C    0.5999837550   -2.9577365675   -0.4511271860
 C    0.0112688117   -1.9539617132   -1.4956886896
 H    1.1831745912    1.5162657404    0.3848243355
 H   -0.0730051052    1.9783587404   -0.7917819342
 H   -0.5069902642    1.6992081200    0.9165623193
 H    0.4969295047    0.0997495738   -2.0841264874
 H    2.7659854594   -0.4728895379   -1.5408151662
 H    2.2875060041   -0.6166478259    0.1603541943
 H    2.8659772791   -3.0370264158   -0.8202677758
 H    1.3751955190   -2.6798586218   -3.3062349829
 H   -0.3897787876   -4.4471845958   -1.8363357566
 H    1.3110759811   -4.8753743644   -1.4188426390
 H    0.3127709363   -3.0408331782    0.5976826483
 H   -1.0378124585   -2.0343436150   -1.7843270209