22

 C    0.3069305825    1.3538978096    0.1694170999
 C    0.1494421299   -0.1454499239    0.0956638634
 C    0.4922771641   -1.1098330989   -1.0657929722
 N   -0.0457441730   -2.0848126473   -0.0051868579
 C    0.8014724533   -1.2465409230    0.9688640160
 C   -1.1426909977   -1.0150258594    0.2042981809
 C   -2.0117595246   -1.1094606427    1.4478448431
 C   -3.1459527233   -0.0882606195    1.4255755648
 O   -3.9000360590   -0.2556611613    2.6156470956
 H    1.3541990597    1.6465294381    0.0355713735
 H   -0.2818596439    1.8505007784   -0.6098852644
 H   -0.0252166840    1.7394840381    1.1396263973
 H   -0.1193820882   -1.0671385896   -1.9724333762
 H    1.5474809284   -1.2709778504   -1.3043321108
 H    1.8768677036   -1.4115293552    0.8531649999
 H    0.5118171854   -1.3424595486    2.0159518206
 H   -1.7904680860   -0.9667022273   -0.6815021517
 H   -2.4481404502   -2.1144392007    1.4959688644
 H   -1.4470330398   -0.9668835720    2.3732788471
 H   -2.7329097710    0.9318064632    1.3563411448
 H   -3.7709569406   -0.2454150654    0.5311994212
 H   -4.6256744257    0.3751549479    2.6039986806