18

 C   -0.0259893871    1.4678801109   -0.2084442853
 C    0.0199172533   -0.0093102988    0.1996990447
 C   -1.3491898402   -0.6558288867    0.1650509931
 C   -1.9533054583   -1.2995683359   -1.0642927040
 O   -0.9459270300   -1.9710135140   -1.8330649227
 C   -0.6690918102   -2.8814460788   -0.7363215847
 C   -1.6433884233   -2.1321957295    0.1707083994
 O   -2.4060285899   -2.6947269485    1.1715753424
 H    0.9713153407    1.9172962182   -0.1789934796
 H   -0.4155690542    1.5801800049   -1.2254474682
 H   -0.6721282365    2.0462371097    0.4614083697
 H    0.6897068492   -0.5488202218   -0.4774018514
 H    0.4423826384   -0.1036903147    1.2078560454
 H   -2.1167782901   -0.1362449512    0.7392706656
 H   -2.8592576509   -0.9912844972   -1.5731065935
 H   -1.0109175567   -3.8953109335   -0.9846547457
 H    0.3908798402   -2.9081813993   -0.4597577554
 H   -2.9091947143   -3.4277352537    0.7978620501