20

 C    0.0070627826    1.2310482583    0.1916396559
 O   -0.0260889170   -0.1462224540   -0.1137773074
 C    0.6931465386   -0.5734357982   -1.2721713644
 C    0.1833952967    0.0744527838   -2.5482994919
 C    2.2268335027   -0.6314626615   -0.9971876862
 C    2.0467942246   -2.0652242655   -0.4290253717
 C    0.6792668861   -2.1343445162   -1.1660982651
 O   -0.4271055510   -2.7298813494   -0.5575075448
 H    1.0335250784    1.6186182154    0.2520182813
 H   -0.5495560401    1.8323332929   -0.5393153931
 H   -0.4662548226    1.3485166529    1.1697340520
 H    0.3912677297    1.1490988781   -2.5812333710
 H    0.6689644187   -0.3792289198   -3.4173453053
 H   -0.8975849955   -0.0718899227   -2.6435335396
 H    2.8005574307   -0.6143469651   -1.9280123638
 H    2.6348434389    0.1270211012   -0.3260026830
 H    2.7969467679   -2.8170036551   -0.6823892852
 H    1.9003022289   -2.0549229300    0.6535364753
 H    0.7923423351   -2.5855092760   -2.1572338129
 H   -0.7112955934   -2.1071464991    0.1248827809