19

 C   -0.2002348415    1.4557244162   -0.2649236264
 O    0.4827326380    0.2443458723    0.0256220862
 C    0.8553708541   -0.4613333371   -1.1194661947
 C    1.4928320785   -1.8548852649   -0.8266870990
 C    1.3386272290   -2.3525752626    0.5997032517
 O    1.5966672242   -3.7521672784    0.5624864210
 N    0.5124689880   -2.4179832263   -1.7715255910
 C   -0.2399075334   -1.2542505051   -1.8633574145
 N   -1.3688585455   -0.9102209327   -2.3216599695
 H    0.4399583775    2.1387453216   -0.8443035570
 H   -1.1201270656    1.2669337318   -0.8283501157
 H   -0.4386717186    1.9200383968    0.6944874404
 H    1.4603750242    0.1611155702   -1.7952398241
 H    2.5278551441   -1.9869179760   -1.1574880859
 H    2.0476583493   -1.8220678531    1.2519482920
 H    0.3243610559   -2.1364846362    0.9599529952
 H    1.4521262956   -4.1079515398    1.4438885739
 H    0.1810501634   -3.3725155650   -1.7564312395
 H   -1.8830602771   -1.7078983215   -2.7015904830