20

 C    0.0320829156    1.5303238425    0.1245486786
 C   -0.0764379264    0.0097186678   -0.0266994149
 C   -1.4933769520   -0.5059880131   -0.0673987277
 C   -2.6119188397    0.0546218341   -0.9749268292
 C   -3.5240743119   -0.4982117296    0.1301577649
 C   -3.2800449310   -2.0080811024    0.2615003967
 C   -2.3856990156   -1.7864799052    1.4436672401
 C   -1.7478625056   -2.0168965342    0.1069819873
 N   -2.4058787452   -0.2891097680    1.1748127879
 H    1.0742506337    1.8346516880    0.2590881849
 H   -0.3536676814    2.0521960839   -0.7570665716
 H   -0.5401253715    1.8668685455    0.9938399605
 H    0.4420621744   -0.3214753363   -0.9373742301
 H    0.4360649414   -0.4808146038    0.8112291364
 H   -2.6153550397    1.1475767244   -0.9845267098
 H   -2.7126500196   -0.3394994498   -1.9893386880
 H   -4.5113357808   -0.0889834372    0.3449468254
 H   -3.9055253123   -2.8530845986    0.0052362641
 H   -2.2919338753   -2.2612719406    2.4119689699
 H   -1.1941497872   -2.8686553875   -0.2674014755