22

 C    0.1341605855    1.6092137306    0.1213921706
 C    0.0210832048    0.0814300522    0.0281827028
 C    0.6078523924   -0.4929940875   -1.2353622555
 C    1.5770744526   -1.6113118056   -1.2729808777
 N    2.0619773076   -0.2654237139   -1.6442209857
 C    1.5930566564   -0.0447432833   -3.0593487185
 C    0.1283726324   -0.2338163002   -2.6532596865
 C   -0.9912398915   -0.9045379629   -3.3966612955
 C   -1.0472919430    0.5779728101   -3.1016230632
 H    1.1830169862    1.9115181808    0.0554020152
 H   -0.4078567968    2.1069104218   -0.6878527413
 H   -0.2715433749    1.9729292223    1.0703527553
 H    0.5258143207   -0.3712013041    0.8892498964
 H   -1.0311524757   -0.2276850631    0.0983788032
 H    1.9853277052   -1.9585468000   -0.3279793477
 H    1.5009931098   -2.3760577890   -2.0442911070
 H    1.8379673361    0.9726352673   -3.3761509477
 H    2.0147422584   -0.7583797651   -3.7772872537
 H   -0.8073730045   -1.2167743438   -4.4198427191
 H   -1.6561570242   -1.5604078505   -2.8430936050
 H   -1.7582582647    0.9160935681   -2.3545938946
 H   -0.9033386830    1.2745445057   -3.9221640948