17

 O    0.1010412907    1.2978756252   -0.2950270808
 C    0.0303223916   -0.0824986504   -0.0408417989
 C    0.6066404672   -0.5482702667    1.2837134544
 C   -0.1413598815   -1.4992573376    1.8401103116
 C   -1.3619986800   -1.8174105925    1.0017350391
 C   -1.4541018368   -0.6015817390    0.0536483369
 O   -2.2678151758    0.4405090351    0.5967860339
 C   -2.0367151105   -0.9201088012   -1.3116921602
 O   -1.6941142108   -1.8658182832   -1.9727836528
 H   -0.6953981160    1.6784934558    0.1018900392
 H    0.5441833832   -0.5877405596   -0.8689961607
 H    1.5482903348   -0.1637659405    1.6574953492
 H    0.0902159465   -2.0346964529    2.7541003273
 H   -1.2199743178   -2.7334113561    0.4158183547
 H   -2.2867056591   -1.9403468888    1.5770190791
 H   -2.1075132023    0.4703984924    1.5471842187
 H   -2.8044452535   -0.1962463701   -1.6585315506