19

 C   -0.0022028525    1.5836384838   -0.0703146797
 C   -0.0676245537    0.0867810464    0.0353838765
 O    0.9682965252   -0.6331270803   -0.8077150288
 C    0.5845414421   -1.7556151664    0.1087624207
 C    1.1518696942   -2.8250957032    1.0763988220
 C    0.3175849883   -2.0138118317    2.1823800078
 C    0.5255592276   -0.7755545800    1.2382048099
 C   -0.8886939457   -1.9506945735   -0.2993872419
 C   -1.3309921246   -0.6953656369   -0.3411812812
 H    0.9823617584    1.9508386842    0.2298412741
 H   -0.1889994967    1.9043593086   -1.1001399085
 H   -0.7588308241    2.0403367225    0.5757889283
 H    0.8906172924   -3.8721654901    0.8979345660
 H    2.2246726239   -2.7318726435    1.2546025676
 H   -0.7116372898   -2.3730795822    2.2359330074
 H    0.7479952015   -1.9522462474    3.1839351814
 H    1.5298943141   -0.3850033048    1.4306720946
 H   -1.3854667413   -2.8910829960   -0.4927282334
 H   -2.2968845991   -0.2798273396   -0.5902724927