14

 N   -0.1427811038   -1.1760929890   -0.2531165727
 C   -0.0643580431   -0.0338152053   -0.0935889489
 C    0.0378865669    1.4040452058    0.0758271265
 C   -0.3691665357    2.2928529561   -1.1299854252
 O    0.8522975735    3.0562121523   -1.0410667251
 C    1.3468876547    2.2645866985    0.0453738624
 C    0.9299606363    2.8173626218    1.4230127298
 N   -0.2524432152    1.9096435607    1.4260871706
 H   -0.4406494813    1.7589300213   -2.0843815715
 H   -1.2688844008    2.9009609790   -0.9768612208
 H    2.3567285197    1.8870804253   -0.1171592864
 H    1.6114472709    2.6048876773    2.2532118680
 H    0.7187130395    3.8907428256    1.3874886022
 H   -1.1641927615    2.3377095107    1.5462537012