25

 C    0.6345062782    1.8559137788   -0.4419958858
 C    0.4741276679    0.3367747354   -0.2831406719
 C   -0.9803864271   -0.0356951406    0.0400872748
 C    0.9753630696   -0.4050358230   -1.5065430269
 C    0.4142344661   -0.3446086648   -2.9670504284
 C    1.6105099576   -1.3347556284   -3.0221022252
 C    2.3952132497   -0.3116834792   -2.1563799182
 C    1.0489834984   -1.9641775863   -1.7093792915
 C    1.8961274369   -2.8532449489   -0.8102021651
 H    1.6759581774    2.1319166567   -0.6342381140
 H    0.0300291961    2.2284368775   -1.2769927228
 H    0.3094011841    2.3799084967    0.4628353310
 H    1.1001886132    0.0199891636    0.5645424100
 H   -1.6508898514    0.2623608214   -0.7739702462
 H   -1.0960064366   -1.1137751649    0.1892584706
 H   -1.3196341164    0.4677659450    0.9512093040
 H   -0.5810115674   -0.7684197958   -3.1314985741
 H    0.5407274667    0.6007794966   -3.5019733617
 H    1.9761277342   -1.8678987621   -3.9014309100
 H    2.6426400911    0.6371351149   -2.6411316633
 H    3.2437783796   -0.6762333160   -1.5748090938
 H    0.0616468352   -2.4222919607   -1.8474305344
 H    2.9021583593   -2.4643898383   -0.6332799509
 H    1.4162955198   -2.9813096537    0.1669494979
 H    2.0024088177   -3.8509744638   -1.2509329241