18

 C    0.0018725970    1.5418415286   -0.1787243120
 C   -0.0443121274    0.0247618562    0.0120727359
 C   -1.4753536429   -0.5409689567    0.1112734975
 O   -2.2095080698   -0.2035346612   -1.0669559895
 C   -2.8374465191   -1.3651312810   -1.6151391122
 C   -2.2951852070   -2.5123492021   -0.8134934951
 C   -1.5316320582   -2.0563658016    0.1697130534
 C   -2.1654563016    0.0342785406    1.2988142448
 N   -2.6913347298    0.4681914937    2.2321337817
 H    1.0365541743    1.8822738725   -0.2752920786
 H   -0.5424366758    1.8328251422   -1.0804398792
 H   -0.4469411001    2.0615138063    0.6732317109
 H    0.4305003534   -0.4849970029   -0.8330758692
 H    0.5017212432   -0.2662900048    0.9172125875
 H   -3.9320447681   -1.2833742239   -1.5323921055
 H   -2.5902410496   -1.4298056879   -2.6832706100
 H   -2.5265958488   -3.5478323112   -1.0272297736
 H   -1.0166217598   -2.6229328067    0.9332691632