18

 C   -0.0109652701    1.4939177261    0.0983685856
 C    0.0132541023    0.0427984175   -0.0126104171
 C    0.0318226479   -1.1580753751   -0.0881525495
 C    0.0275687988   -2.6127399213   -0.1886718205
 C   -1.3749128712   -3.2203513425   -0.0431529020
 C   -1.4639330667   -4.7762236654    0.0094269056
 N   -2.0259131676   -4.6326262087    1.3530813077
 C   -1.9719567422   -3.2587420664    1.3935556843
 O   -2.2731131067   -2.4552646309    2.2328410591
 H    0.9386506499    1.8788127688    0.4863907155
 H   -0.1877577636    1.9680337874   -0.8735114250
 H   -0.8042186916    1.8230195485    0.7784604092
 H    0.4429001193   -2.9185823213   -1.1585818438
 H    0.6882180376   -3.0453087921    0.5749328139
 H   -2.0625715059   -2.7685964389   -0.7617715204
 H   -2.1420033464   -5.2323959371   -0.7188005304
 H   -0.4969142738   -5.2908680586   -0.0195561504
 H   -2.3452822599   -5.3100570399    2.0292902783