17

 O    0.0244988718   -0.1024283383   -0.0577676132
 C   -0.0140336231    1.1140031090   -0.0530327727
 N   -1.1725059946    1.8232808941   -0.1656677250
 C   -1.2850755141    3.2666962532   -0.0438930836
 C    0.0248581429    3.9777031745   -0.3690251056
 C    1.2014874767    4.0460849791    0.5241279622
 C    1.3388326639    2.8111071604    1.4030942769
 C    1.2205909851    1.9798363857    0.0904882418
 N    1.2370687914    3.2353377081   -0.7652976187
 H   -2.0158135379    1.2722864055   -0.2259718523
 H   -2.0522431149    3.6097723164   -0.7460563552
 H   -1.6249949202    3.5563266601    0.9619389426
 H   -0.1076927041    4.8526836500   -0.9993619736
 H    1.7781530636    4.9594030875    0.6317518564
 H    2.3280336554    2.7153910237    1.8521814338
 H    0.5840132226    2.6600944133    2.1811727523
 H    2.0911604956    1.3649470578   -0.1275349761