22

 C    1.0463807497    1.2838421749   -0.7237798163
 C    0.1592355840    0.5137126435    0.2562379349
 C   -0.4647934085   -0.7343475080   -0.3994191721
 C    0.9100790585    0.1149519889    1.5097812372
 N    2.1721292067    0.1563904625    1.6030509186
 O    0.0158496323   -0.2907481283    2.4690086644
 C    0.5303785896   -0.6813169128    3.7145550835
 C   -0.2986449101   -1.6635402445    4.4750233720
 C    1.0308544485   -2.0908309320    3.8889547264
 H    1.8865612541    0.6673396475   -1.0531180973
 H    0.4645284802    1.5808073858   -1.6022278015
 H    1.4626631257    2.1823869204   -0.2618558404
 H   -0.6649556256    1.1600811502    0.5849380964
 H    0.3175993815   -1.4192848827   -0.7436392191
 H   -1.1082905587   -1.2704545951    0.3022489234
 H   -1.0661884915   -0.4458650771   -1.2667872123
 H    2.5036223145   -0.1824444911    2.5052073589
 H    1.0231181400    0.1235381908    4.2551035589
 H   -0.3834593601   -1.5395481227    5.5483304978
 H   -1.1963939287   -2.0197461957    3.9833698963
 H    1.0050450461   -2.7281293022    3.0127291419
 H    1.8679403919   -2.2653040623    4.5558653284