15

 O   -0.0252196083   -0.0817921451   -0.1557112675
 C   -0.0206628486    1.1077078943    0.0337152326
 N   -1.1890023372    1.7931032610    0.3480104335
 C   -1.5545918431    3.1345134771    0.1687007299
 C   -0.7845560185    4.2134938249    0.0165212430
 C    0.7138245355    4.2498101912    0.0536345655
 C    1.3105988743    3.0169276782    0.7163814380
 O    1.1178002499    1.8239255973   -0.0596982710
 H   -1.9567725134    1.1415876699    0.4026201610
 H   -2.6335429664    3.2490587771    0.1616386366
 H   -1.3020208168    5.1557191514   -0.1290929646
 H    1.1387397690    4.3524272035   -0.9543640912
 H    1.0480739681    5.1344322449    0.6124811422
 H    2.3953723135    3.1106850095    0.8020463528
 H    0.8956879019    2.8743993049    1.7201715293