19

 C   -0.0973743614    1.5168593324   -0.0388179894
 C   -0.0717423697   -0.0024019798   -0.1679576582
 N   -1.3717414007   -0.5661696509    0.1685091433
 C   -1.5459242504   -1.9347658723    0.0999829484
 N   -2.7573887071   -2.4822685970   -0.0470044512
 N   -2.5117742233   -3.7975010012   -0.0104281880
 C   -3.5722133761   -4.7711740765   -0.1345753598
 N   -1.2462180589   -4.1419240589    0.1384115140
 C   -0.5991247841   -2.9745428441    0.2105001675
 H    0.8862162051    1.9377768381   -0.2640942164
 H   -0.8157832368    1.9593344318   -0.7384803934
 H   -0.3814812053    1.8156134066    0.9742728198
 H    0.2537614308   -0.2892995896   -1.1822635055
 H    0.6691777825   -0.4152020109    0.5272850222
 H   -2.1552267128   -0.0615713980   -0.2238556231
 H   -4.0867680126   -4.6506632569   -1.0919687383
 H   -3.1160368663   -5.7584142629   -0.0785070301
 H   -4.2964818019   -4.6470213325    0.6751616946
 H    0.4702038591   -2.9378922977    0.3335751135