15

 C   -0.0286228119   -3.8587184626   -0.0971084818
 C   -0.0181352068   -2.6513720186   -0.0657387016
 C   -0.0046292618   -1.2921155034   -0.0288086845
 C    0.0072213770   -0.0808755847    0.0039273322
 C    0.0139810704    1.3600258774    0.0359281767
 C    0.1219706011    2.1524761400    1.3859769869
 C    1.5938984868    1.7076135231    1.5434996988
 C    1.3535260440    2.1754808612    0.0900178933
 O    0.5819226433    3.3217475864    0.6104659476
 H   -0.0399875170   -4.9199146821   -0.1267223539
 H   -0.7129052389    1.8058053467   -0.6469218357
 H   -0.6526411521    2.3097351473    2.1359970793
 H    2.2106694294    2.3782899957    2.1415252062
 H    1.7994887270    0.6507963624    1.7201136376
 H    2.0600894595    2.3604054113   -0.7185951010