19

 C   -0.0784479457    1.5864290941    0.0203294426
 C    0.0191353925    0.0692394780    0.0143925999
 O   -1.1853073432   -0.5293185146   -0.4266615866
 C    1.3096433391   -0.5329223386   -0.6036383231
 O    1.6875148850   -1.1303974682    0.6537904827
 C    0.4968718826   -0.6547295802    1.3082717872
 C    0.7920132564    0.1378733731    2.5536547488
 C    2.0828351731    0.0066783201    3.2421641426
 O    1.7806048770    1.1642262835    2.4583821870
 H    0.8266752883    2.0421720676    0.4246256937
 H   -0.2203207573    1.9546494790   -1.0041866004
 H   -0.9338649091    1.9137735766    0.6195037011
 H   -1.4995487886   -0.0422664575   -1.1960181967
 H    1.1146348767   -1.2857303735   -1.3760943307
 H    2.0624370280    0.1830267696   -0.9538152566
 H   -0.1847356955   -1.4787016714    1.5617025228
 H   -0.0877776491    0.4095329753    3.1397646238
 H    2.1380139434    0.1718527327    4.3168777979
 H    2.8343062164   -0.6509522156    2.8137691839