17

 C   -0.0207298628    1.5818326586    0.0262786533
 C    1.5053806923    1.7388226341   -0.0312061461
 O    1.7543900242    1.0027337582   -1.2406689796
 C    1.3922707813   -0.2511736551   -0.6888453304
 O    2.3625164628   -0.4314907984    0.3195532850
 C    2.1257791619    0.7677088259    1.0772018662
 C    1.0791794289    0.3359374392    2.1071423700
 O    0.0680939671   -0.3954969882    1.4032865140
 C   -0.0004347720    0.0358267650    0.0502686350
 H   -0.5284658904    1.9884716219    0.9021838406
 H   -0.4626379067    2.0018911930   -0.8784292368
 H    1.9348500634    2.7372221862   -0.0875658556
 H    1.4383919552   -1.0507948475   -1.4252072637
 H    3.0583882486    1.1242151652    1.5158476424
 H    1.5242028301   -0.3509336045    2.8324806053
 H    0.6509804031    1.1878819483    2.6556029728
 H   -0.8520615270   -0.4683177519   -0.4047428925