19

 C   -0.0346687109    1.5418585362   -0.0113808100
 C    0.0135763808    0.0087673822    0.0446911901
 C    0.8582232973   -0.4597415685    1.2385490530
 C   -1.4130625152   -0.5671364709    0.0670132261
 C   -1.4802143222   -2.1020386309   -0.0802916628
 C   -2.8481989993   -2.6022859931   -0.1436941322
 C   -3.9857361870   -2.9879097940   -0.1941932661
 H    0.9725899572    1.9678360131   -0.0656196484
 H   -0.5960106288    1.8927770618   -0.8835567744
 H   -0.5196193568    1.9509439092    0.8830863186
 H    0.5016443159   -0.3457856622   -0.8754143637
 H    1.8608258548   -0.0213086607    1.2018330278
 H    0.3973569461   -0.1532354967    2.1855114286
 H    0.9781050019   -1.5470303438    1.2626973650
 H   -1.9135229295   -0.2761972096    0.9994420131
 H   -1.9951459260   -0.1194355013   -0.7465177028
 H   -0.9402372268   -2.4036575908   -0.9881329774
 H   -0.9608150285   -2.5854363742    0.7557005427
 H   -4.9858288730   -3.3408669359   -0.2404454872