20

 C   -0.0364028408    1.5285061791   -0.0566544430
 C    0.0125508716    0.0216558887   -0.0394789389
 C    0.6513637955   -0.9620740665   -1.0364599506
 N    0.0564036146   -1.9283746327   -0.0058728111
 C    0.6119732887   -0.9293522480    1.0408124834
 C    0.0075851730   -1.0272786209    2.4346617628
 C   -1.4927604218   -1.0574097573    2.3689092827
 C   -2.0626212852   -1.0401235079    1.1665933051
 C   -1.1819330299   -0.9839898165   -0.0393453348
 H    0.9697082882    1.9578460787    0.0078011313
 H   -0.5006702268    1.8982049411   -0.9776751215
 H   -0.6205209580    1.9076434879    0.7890172471
 H    0.1994051578   -1.0537221168   -2.0290370969
 H    1.7435034244   -1.0057408930   -1.0909044582
 H    1.7064989056   -0.9615222887    1.0822674259
 H    0.3891182178   -1.9306046462    2.9305876708
 H    0.3571225312   -0.1833417638    3.0468737562
 H   -2.0663674481   -1.1015999138    3.2897293095
 H   -3.1389471911   -1.0652797030    1.0304362982
 H   -1.7327878467   -1.0767532704   -0.9794192379