25

 C   -0.0781435134    1.5992731184    0.0832536145
 C   -0.0906282684    0.0684343676    0.0545114095
 C    0.8156658857   -0.5525934569    1.1253670742
 C    0.8400363064   -2.0933337011    1.1277954819
 C    1.6862420423   -2.6551948813   -0.0304563808
 O    1.4886177522   -4.0338727372   -0.2597114174
 C    1.3554582413   -2.5901742671    2.4802194804
 O    1.3716735513   -4.0105692963    2.5063950962
 C    1.8894963102   -4.5392928181    3.7066076409
 H    0.9292065521    1.9910312960   -0.0969491847
 H   -0.7392353471    2.0176279577   -0.6819823446
 H   -0.4106890029    1.9806503614    1.0553251514
 H   -1.1164714179   -0.2935460526    0.2013031640
 H    0.2122612354   -0.2772942919   -0.9408278160
 H    1.8408536355   -0.1744906119    1.0009785926
 H    0.4841834500   -0.1941298418    2.1096164986
 H   -0.1829564309   -2.4711406982    0.9983566329
 H    1.4234932774   -2.1486644592   -0.9650967865
 H    2.7495054397   -2.4227719469    0.1683102381
 H    1.5528488436   -4.4576345688    0.6063348085
 H    2.3745774230   -2.2040994415    2.6589631365
 H    0.7170542984   -2.2141470756    3.2965997836
 H    2.9323621548   -4.2280606752    3.8710050169
 H    1.2927187193   -4.2203658074    4.5744159077
 H    1.8502441718   -5.6281876520    3.6301997215