19

 O   -0.0884790631    1.4198335611   -0.1503451067
 C   -0.0043503039    0.0510489913   -0.0078023954
 C   -1.2005111225   -0.8431953693   -0.0944843716
 C   -1.3587143885   -1.8578372076   -1.2165448880
 C   -0.0417742150   -2.5451312139   -1.6335526920
 C    1.1637804696   -1.5889027964   -1.6404878207
 C    1.2235358997   -0.8245379565   -0.3235484985
 O    0.9209616624   -1.6888532269    0.8199344616
 C   -0.2592972990   -0.9361847970    1.1057439336
 H    0.6114433059    1.8244511744    0.3755000316
 H   -2.1110569280   -0.3135140299    0.1822564610
 H   -2.0960916042   -2.6198771750   -0.9383012231
 H   -1.7805176694   -1.3237128032   -2.0787749892
 H    0.1778706886   -3.3541576905   -0.9324567214
 H   -0.1644762954   -3.0003488656   -2.6216740944
 H    2.0869037381   -2.1571262249   -1.8000532505
 H    1.0932854079   -0.8564267384   -2.4558781123
 H    2.1801193175   -0.3134127563   -0.1619276562
 H   -0.5718588206   -0.8545623653    2.1403066123