16

 C   -0.0343226403    1.5639146546    0.1356307540
 C   -0.1146421370    0.0363419333   -0.0276948528
 C    0.6167284149   -0.4700678932   -1.2344450545
 C    0.1150917832   -1.0248216749   -2.3955203904
 N    1.1671217944   -1.3126444514   -3.1971017204
 N    2.3581287794   -0.9812985056   -2.6366811904
 C    2.0162952593   -0.4768285751   -1.4619731590
 O    2.9395512325   -0.0224892030   -0.5839311687
 H    1.0074848114    1.8873365324    0.2143918003
 H   -0.4803933586    2.0733831461   -0.7244195430
 H   -0.5623321738    1.8894353849    1.0377523354
 H    0.2955778748   -0.4373187199    0.8729887040
 H   -1.1640282751   -0.2743059588   -0.0862310053
 H   -0.9007437265   -1.2323724545   -2.6957514139
 H    1.1585730698   -1.7311946396   -4.1096029976
 H    3.8051886416   -0.1500459954   -0.9917327176