14

 N    0.0276530722    1.3290018955   -0.0446149626
 C    0.0081353586   -0.0239613454   -0.0188651571
 N   -1.1462177433   -0.6452149013   -0.0141828806
 C   -1.2093995272   -2.0193474117   -0.0124400005
 O   -2.2320393806   -2.6746977611   -0.0102756787
 N    0.0363456645   -2.6927891742   -0.0107079511
 C    1.2446048174   -2.0571418917   -0.0078432583
 C    1.2823381533   -0.7065648256   -0.0125218966
 O    2.4056882647    0.0823147689   -0.0082514636
 H    0.8940275712    1.8235084334    0.0707348516
 H   -0.8489367607    1.8141326361    0.0445224059
 H   -0.0197431119   -3.6992785201   -0.0061459240
 H    2.1333143020   -2.6790873449   -0.0013238127
 H    3.1942869696   -0.4687710679    0.0185442185