21

 C   -0.1115623385    1.5441093817   -0.0434239344
 C    0.0404926228    0.0280519632    0.0042339952
 C    1.0869403767   -0.5848913330   -0.9369465874
 O    2.3192725985   -0.0565237383   -0.4697923604
 C    2.2083584051   -0.0714576050    0.9665493302
 C    0.7772759318   -0.5972909054    1.2267198050
 C    0.2331085796   -0.3648317685    2.6226418052
 C    0.7922918945   -2.0670198921    0.7555947234
 O    1.0172032864   -1.9737549639   -0.6655795348
 H    0.8551126416    2.0526428952   -0.0236010512
 H   -0.6238116890    1.8470712124   -0.9624805381
 H   -0.7103438859    1.9082778091    0.7979168656
 H   -0.9308175966   -0.4556354115   -0.1438738852
 H    1.0215337341   -0.4272846175   -2.0124879285
 H    2.9752690201   -0.7296119207    1.3931802469
 H    2.3636644606    0.9413181789    1.3588561021
 H    0.2050286440    0.7020632218    2.8666318716
 H   -0.7835879558   -0.7598682364    2.7209907621
 H    0.8545615515   -0.8588394861    3.3782749475
 H    1.5954496850   -2.6529496679    1.2188893766
 H   -0.1650716264   -2.5707365762    0.9472057787