12

 O   -0.0838872350    1.4699215299    0.0431785997
 C   -0.0219488134    0.1131050748   -0.0234293899
 C   -1.1155573236   -0.9071754728   -0.0994677561
 O   -0.3695836934   -1.7091639649   -1.0424191780
 C    0.6370593340   -0.7435161427   -1.1029910901
 O    1.5728314680   -0.6992782979   -1.8221962555
 C   -0.3476403012   -0.8091698182    1.1913381309
 C    0.5183315423   -1.8484133833    1.6771212027
 N    1.2225193101   -2.6703706867    2.0831176647
 H    0.7426447291    1.8079204264    0.4096532782
 H   -2.1859183309   -0.8336723789   -0.2256385047
 H   -0.8622428359   -0.2411691556    1.9632225781