18

 O    0.1536407065    1.4204191708    0.6019963242
 C    0.0069410543    0.0594838744    0.3484465177
 C   -0.6636090808   -0.8481183121    1.3179701467
 O   -1.7765715922   -0.2311083292    1.9651912117
 C   -2.4910991744   -0.1428288416    0.7024361570
 C   -3.1309976518    1.1961738754    0.4387437416
 C   -3.7425709058    1.9554507834    1.5572728060
 N   -2.5218146593    2.4481805069    0.8957838375
 C   -1.2647852749   -0.6392476813   -0.0778295110
 H   -0.1943505832    1.9189438672   -0.1456113668
 H    0.8811811506   -0.4068553167   -0.1111685046
 H   -0.2122061706   -1.7009755437    1.8120920553
 H   -3.2685349293   -0.9197657585    0.6819377130
 H   -3.5981547343    1.2537686153   -0.5443921094
 H   -4.6383681053    2.5464406210    1.3885624653
 H   -3.6429012869    1.5396699555    2.5560193523
 H   -1.7167315329    2.2119897030    1.4735205660
 H   -1.3095116397   -1.2939254096   -0.9384120923