20

 C   -0.0575233261    1.5372980810   -0.4203486778
 C   -0.0480416358    0.0535843989   -0.0599660046
 C    0.6458504299   -0.7762357388   -1.1430943944
 C    1.5040990868   -1.6143025163   -0.5324107546
 C    2.9122485757   -1.0539192166   -0.3117730189
 C    2.2792897641   -0.5705038291    1.0703920799
 C    3.1167109022   -0.1081973810    2.2286071544
 C    1.2254947635   -1.6042369427    0.9888913740
 N    0.7761162466   -0.2379227272    1.1588868931
 H    0.9386245812    1.8752963315   -0.7247466749
 H   -0.7525242304    1.7361918758   -1.2417519027
 H   -0.3656242924    2.1251173146    0.4487743950
 H   -1.0676926552   -0.2581951949    0.2056772947
 H    0.8514455778   -0.3299056887   -2.1129438467
 H    3.7070528778   -1.7698856128   -0.0688907815
 H    3.2752695808   -0.3201829809   -1.0369619486
 H    3.5056882763    0.9014387812    2.0550728883
 H    2.5257291217   -0.0912454308    3.1468337552
 H    3.9739373438   -0.7757886748    2.3719509972
 H    0.9497714518   -2.4189227084    1.6498984529