19

 C    0.0527844481    1.4304553424    0.0463865985
 C   -0.0139111732   -0.0690226637    0.0215289249
 O    0.9448029509   -0.6628233039   -0.8430904697
 C    0.3824057039   -1.8859230215   -1.3298528139
 C   -0.7067119621   -2.2303253881   -0.3159231150
 C   -0.0894183181   -2.3180862763    1.1202487653
 C   -0.4048386804   -0.8336104611    1.2844020701
 O   -0.6764967475   -0.2070455356    2.4891785012
 C   -1.2986392495   -0.8388509714    0.0437430193
 H    1.0571500453    1.7644875016    0.3290497242
 H   -0.1714853127    1.8446029889   -0.9411777811
 H   -0.6593120427    1.8322115306    0.7705674840
 H   -0.0336739052   -1.7422268869   -2.3389217881
 H    1.1790718978   -2.6357556390   -1.3821907384
 H   -1.3843660444   -3.0293201509   -0.6132615091
 H   -0.7122534202   -2.9184393725    1.7881959421
 H    0.9554710756   -2.6397346655    1.1979587337
 H    0.1559942466    0.1021120057    2.8641639943
 H   -2.2925207322   -0.4521623028   -0.1401631822