18

 C   -0.0150181506    1.5650985667    0.0131939670
 C    1.4983370501    1.8326706908   -0.0317109625
 C    2.0304287188    1.3603128463   -1.4353304524
 O    0.9767297147    0.7622451585   -2.2127668513
 C    0.9266549893   -0.3292652772   -1.2459084500
 C    2.3634089869    0.0517427931   -0.7210486606
 N    2.1543186216    0.6148721877    0.6357590801
 C    1.0360249634   -0.2067508532    1.1495107352
 C    0.0377015753    0.0235134197   -0.0121877674
 H   -0.4793307052    1.9347014077    0.9318997209
 H   -0.5254469484    1.9948356228   -0.8494084540
 H    1.8402352664    2.7909830165    0.3583073719
 H    2.6903411931    2.0007753028   -2.0189839127
 H    0.7201771270   -1.2869583862   -1.7252595481
 H    3.2144633134   -0.6082852000   -0.8897116439
 H    1.3659990413   -1.2455052111    1.2587238783
 H    0.6695148876    0.1496647832    2.1166755910
 H   -0.9236245246   -0.4886212383    0.0369190185