12

 C    0.0104145776    1.3272297092    0.0097647255
 C    1.3118346434    1.8012091611   -0.0003835271
 N    1.9101199591    3.0073559005    0.0004280267
 C    3.2194798064    2.9816209620   -0.0127950308
 C    3.9621282546    1.7597181703   -0.0271208362
 N    3.4015992864    0.5767553644   -0.0281896372
 N    2.0684711756    0.6262625319   -0.0145897126
 N    1.2895265027   -0.4615551780   -0.0126947191
 N    0.0457252990   -0.0206988530    0.0020905570
 H   -0.9138614167    1.8802528590    0.0219571121
 H    3.7455823906    3.9318937503   -0.0127164783
 H    5.0464988513    1.7644157121   -0.0379193600