21

 C   -1.1889878905    0.9226053478    0.0291559803
 C    0.0127546213   -0.0044916870   -0.0745810926
 C    1.2583951449    0.4647810251   -0.8806037154
 C    2.1356598797   -0.2526467201    0.1600274676
 O    3.3191015028    0.4358896472    0.5569790464
 C    4.4880510586   -0.2299759763    0.5616652553
 O    5.5197149402    0.2717141726    0.8933123542
 C    0.9484798216   -0.2403135226    1.1646740199
 C    1.0062094288    0.8905607762    2.1883136428
 H   -0.9083022209    1.9152501757    0.3943033635
 H   -1.6590519458    1.0532457858   -0.9517605445
 H   -1.9484558463    0.5183254592    0.7073732389
 H   -0.3182602078   -0.9777436262   -0.4537913116
 H    1.3523592816    0.1627021342   -1.9261588750
 H    1.3960081669    1.5476725677   -0.8105110159
 H    2.3943516705   -1.2717573361   -0.1502487317
 H    4.3837762199   -1.2803313854    0.2236831413
 H    0.7877352168   -1.1901625298    1.6842015608
 H    1.1920360621    1.8631637618    1.7240244761
 H    0.0662038297    0.9535745037    2.7449418308
 H    1.8134946058    0.7167435664    2.9054364286