20

 C   -0.0064460657    1.5407191365    0.0535742439
 C   -0.0146354523    0.0384891045   -0.0254070848
 C   -0.0451943601   -0.6155589001   -1.1891803804
 C   -0.0196390526   -2.1138618674   -1.3366112531
 C    0.4196718164   -2.8046265554   -0.0266829370
 C   -0.3210057385   -2.1835676299    1.1763874145
 C    0.0232891378   -0.6947468008    1.2973473663
 C    0.2151360218   -4.2518067505   -0.0969586228
 N    0.0422094814   -5.3934664364   -0.1522910703
 H    0.8743181298    1.9021579159    0.6003242437
 H   -0.0012829951    1.9991765085   -0.9386248171
 H   -0.8831060433    1.9133925132    0.5988654962
 H   -0.0879011254   -0.0483047966   -2.1165017378
 H   -1.0098946141   -2.4880314531   -1.6313351285
 H    0.6583555349   -2.4024711512   -2.1480528437
 H    1.4959764580   -2.6345047631    0.1085915327
 H   -1.3990243647   -2.3087926582    1.0241256235
 H   -0.0635032826   -2.7154184361    2.0966295015
 H    1.0188063247   -0.5719623619    1.7502073860
 H   -0.6719215903   -0.2169049580    1.9996093375