19

 C    0.0736802203    1.3824270983   -0.2500648881
 C    0.0709654534   -0.1134190612    0.1281080857
 C    0.7289032857   -0.2593693005    1.4918604638
 O    1.8806221107   -0.5535220465    1.6728210580
 C   -1.3396735953   -0.6699832647    0.1505474288
 C   -2.0065226678   -1.1316553428   -1.1119692302
 C   -1.6168757187   -2.1572167953   -0.0564953450
 C   -0.5495203140   -3.0813023380   -0.3058275087
 C    0.3439317196   -3.8621365538   -0.5042487818
 H    1.0959520646    1.7656321642   -0.3097332945
 H   -0.4116084199    1.5278614780   -1.2194427795
 H   -0.4714427722    1.9799111689    0.4897236697
 H    0.6864990832   -0.6706579158   -0.5841269853
 H    0.0536082936   -0.0285490539    2.3519896016
 H   -1.9905100560   -0.1952948533    0.8819743975
 H   -3.0628615462   -0.9324994902   -1.2526935390
 H   -1.4187262544   -1.1281385168   -2.0231834806
 H   -2.4354208519   -2.5628844668    0.5310495768
 H    1.1364192954   -4.5479570600   -0.6742192392