15

 C   -0.0417413562    1.4590929441   -0.0415831793
 N   -0.0012639017    0.0079823573    0.0832606620
 C   -1.1956312211   -0.7159144909    0.0450340622
 C   -1.2225305075   -2.0250912976    0.2782739348
 C    0.0723485385   -2.6860415780    0.6281559047
 O    1.1979967252   -1.9851197561    0.0644743496
 C    1.2293197567   -0.6338713456    0.0093771408
 O    2.2754508771   -0.0552513147   -0.1431656457
 H    0.9829497029    1.8245651406   -0.0381194069
 H   -0.5249643450    1.7578834529   -0.9793361585
 H   -0.5920593064    1.8998679015    0.7957664799
 H   -2.0736279969   -0.1303945187   -0.2024863772
 H   -2.1372871408   -2.5990449476    0.2253614297
 H    0.2183993971   -2.7521513316    1.7178411772
 H    0.1413044180   -3.7007959857    0.2270554666