18

 C    0.0252440019    1.4735645158    0.0642957749
 C   -0.0478567778   -0.0128781910   -0.0227630007
 C   -0.0631354977   -0.8191275488   -1.0905546104
 C   -0.0086530850   -2.2603706565   -0.5593070233
 C   -0.8775355369   -2.1094092490    0.7101234327
 C   -0.0122918957   -0.9279168882    1.2192159309
 C    1.3985652564   -1.5712468756    1.1470570086
 O    2.3771981844   -1.3095990771    1.8046575821
 N    1.3006796184   -2.4843246970    0.1068283620
 H    0.9396242563    1.7888263730    0.5817334665
 H    0.0157688567    1.9346074176   -0.9270638449
 H   -0.8156444910    1.8793185436    0.6405735531
 H   -0.0301342318   -0.5339034361   -2.1342227120
 H   -0.2516262124   -3.0649940867   -1.2514091469
 H   -1.9057945083   -1.8157102559    0.4942779198
 H   -0.8508412381   -2.9955232197    1.3497160421
 H   -0.2356851539   -0.4651866831    2.1780153605
 H    2.1314296945   -2.6792472952   -0.4322619251