19

 O   -0.0735939219    1.3120751939    0.5445541098
 C    0.0578187301    0.0122209401    0.0198777255
 C    1.1274758194   -0.2716844824   -1.0022003681
 C    1.2347759446   -0.8391370039    0.4074012755
 C   -1.3169322995   -0.5890375182   -0.0969773972
 C   -2.3237100016   -0.0405512462   -1.1592992347
 C   -2.7168239156   -1.4970377138   -1.5521535516
 C   -1.5043267676   -1.9760494939   -0.7421316403
 O   -0.8765694721   -2.9965757820   -0.7079740069
 H    0.7956961176    1.7246200959    0.5677378666
 H    0.9272107865   -0.9639827314   -1.8127876854
 H    1.7854632076    0.5485952774   -1.2735092574
 H    1.9665877420   -0.3988162752    1.0780039212
 H    1.0818105407   -1.9052731680    0.5277034891
 H   -1.7819476552   -0.5970446745    0.8980252694
 H   -3.1233620907    0.5932132092   -0.7772287436
 H   -1.8089157371    0.4821669532   -1.9679405128
 H   -3.6580367627   -1.8341126689   -1.1053024513
 H   -2.7201710446   -1.7694843316   -2.6104051578