21

 C   -0.0472024873    1.3413361252   -0.0103388532
 O    0.0218791048   -0.0793360864   -0.1465899799
 C    0.7565380959   -0.5389408066   -1.1766972697
 N    1.3252239557    0.2333987227   -2.0043561223
 C    0.7787465338   -2.0571409559   -1.1514552259
 N    1.2520768489   -2.6046369353   -2.4136563326
 C    1.4529274926   -4.0559006467   -2.4098466838
 C    2.1810921802   -4.4600980766   -3.6898423740
 O    3.4200108554   -3.7953448363   -3.8065364790
 H    0.9518007103    1.7677601032    0.1152549004
 H   -0.5052911644    1.7931081042   -0.8944640481
 H   -0.6580782657    1.5247519978    0.8744804060
 H    1.8417923941   -0.3290438875   -2.6799451111
 H    1.4624653429   -2.3770305206   -0.3549276766
 H   -0.2219237505   -2.4115306073   -0.8552581058
 H    0.5942100740   -2.3600784611   -3.1492920187
 H    2.0859353691   -4.3025958295   -1.5495155964
 H    0.5136792039   -4.6255964496   -2.3047112145
 H    2.3809627258   -5.5368004118   -3.6824631279
 H    1.5301078612   -4.2563744798   -4.5597426517
 H    3.2480762792   -2.8895708219   -3.5160481552