18

 O    0.1349289571    0.3154774696   -1.1487005005
 C    0.0887629300    1.2203594119   -0.3682815236
 C   -1.0107767605    1.8004719048    0.5331403479
 C   -0.1120504646    3.0624624054    0.7441002729
 C    0.3523365593    3.4320468668    2.1697617431
 C    1.6191978098    2.6269437510    2.4070828638
 N    1.4287031087    1.1766421582    2.2172714040
 C    2.0530658655    1.9790950585    1.1381989592
 C    1.0839257847    2.3369927500    0.0220697813
 H   -1.9792352273    1.9508173646    0.0481406461
 H   -1.1432405951    1.2013555880    1.4377238618
 H   -0.4984192241    3.9264266381    0.2015754877
 H    0.5892978702    4.5003797952    2.2292084158
 H   -0.4153705730    3.2235016429    2.9225790247
 H    2.3390141920    2.9639733220    3.1471956264
 H    2.1513780114    0.6644317595    2.7159215111
 H    3.0977635832    1.8067125101    0.9039938124
 H    1.5872922726    2.8390206534   -0.8077422641