18

 C   -0.0504884383    1.3881697272    0.0365022106
 N    0.0650362979   -0.0579564186    0.0263791182
 C    0.6243942802   -0.6381657220    0.9830602701
 O    1.1824279945   -0.0882952319    2.1142824966
 C    1.6790893941   -1.1420339806    2.8797930455
 C    2.3336788212   -0.7913357041    4.1609239386
 C    1.4314167117   -2.2834932453    2.2371714937
 C    1.7018972590   -3.7115996559    2.5202938531
 O    0.7722159016   -1.9945374893    1.0475323629
 H    0.4424248363    1.7984147865   -0.8526175375
 H   -1.1081267156    1.6686021947   -0.0305782483
 H    0.3789631796    1.8713650574    0.9227482070
 H    3.1956344292   -0.1345170820    3.9974631564
 H    1.6412357490   -0.2644311412    4.8272527611
 H    2.6805030112   -1.6933995765    4.6693842035
 H    0.7702144193   -4.2865894636    2.5654092646
 H    2.3241383436   -4.1567372686    1.7358509581
 H    2.2206182855   -3.8192709761    3.4751057659