22

 C    0.5146315412    1.8158757156   -0.2174523599
 C    0.2680041848    0.3159983458   -0.3168524095
 C    1.4943753854   -0.5384487282   -0.7324871493
 N    1.7007619526   -0.9142580124    0.6797155336
 C    2.1119278804   -2.2704638701    0.9699419545
 C    0.3320804794   -0.4922949827    1.0242160582
 C    0.1047808117    0.2696960810    2.3251782358
 C    1.2639420611    0.3957978157    3.2901189960
 O   -0.9832654929    0.7558563386    2.5429250310
 H    1.4397281293    2.0328190813    0.3273943081
 H    0.6068530777    2.2537831631   -1.2169626659
 H   -0.3099630176    2.3156997533    0.2985479000
 H   -0.6356545048    0.1211329417   -0.8960002947
 H    1.2118032145   -1.3930018603   -1.3681538037
 H    2.3416109181   -0.0189338238   -1.1954923949
 H    3.1171558058   -2.4452937259    0.5722273207
 H    2.1503677074   -2.4322176539    2.0524039264
 H    1.4348177244   -3.0299854893    0.5344229909
 H   -0.3983208524   -1.3200048517    1.0029434266
 H    1.5254247979   -0.5925281325    3.6877889026
 H    2.1538619445    0.7616740321    2.7710827275
 H    0.9874504217    1.0549387725    4.1138915259