12

 N    0.0823322321    1.3859006856    0.1881098787
 C    0.0221696751    0.0164367710    0.0267509537
 N   -1.0493814856   -0.7388069300   -0.0429570000
 N   -0.6817375223   -2.0976012510   -0.0878060490
 C    0.6175024103   -2.0693913997   -0.0593939083
 N    1.7492359301   -2.8375912687   -0.0814305394
 N    2.8510673542   -2.0407282156   -0.0230717760
 N    2.5029549386   -0.8134091880    0.0387159607
 N    1.1311722138   -0.8025179321    0.0197920117
 H    0.7654836723    1.8435384349   -0.4028300073
 H   -0.8353222942    1.7978426311    0.0762028820
 H    1.8601666556   -3.8346318675   -0.1417875470