17

 C    0.0587903495    1.5617416888   -0.0194523998
 C   -0.0154402390    0.0318230557    0.0030833151
 C   -1.4410323712   -0.5486202833    0.0502862937
 C   -1.4077700736   -2.0723102963   -0.1301201031
 C   -2.1840052889   -0.1765975855    1.3411430253
 H    1.0943563772    1.9023360681   -0.1190007232
 H   -0.5068956631    1.9721731864   -0.8638809838
 H   -0.3440795055    2.0062808225    0.8957952222
 H    0.4892675776   -0.3601121367   -0.8895390153
 H    0.5525493766   -0.3513944606    0.8626988712
 H   -2.0003157459   -0.1215368245   -0.7955968405
 H   -0.8550113065   -2.5506581045    0.6877543828
 H   -2.4178751337   -2.4954362820   -0.1372012715
 H   -0.9192876200   -2.3536380198   -1.0691401439
 H   -3.1910019738   -0.6069955903    1.3513705072
 H   -1.6519729360   -0.5601058436    2.2206348063
 H   -2.2879375936    0.9057513156    1.4607957173