17

 C   -0.2423881331    1.7400998747    0.3589542178
 C    0.1207936354    0.2834691428    0.0885923134
 C    0.8662456880    0.0199829118   -1.2203844968
 C    1.9101108476   -1.0308278560   -0.8401707616
 O    2.6535436334   -1.6205430294   -1.5747793394
 C    1.8295430563   -1.1933414029    0.6807899600
 O    1.0018571803   -0.1444462609    1.1509986864
 C   -1.1528635419   -0.5676202492    0.2028522286
 O   -1.7314910397   -1.0788290929   -0.7188875433
 H    0.6691176786    2.3436482424    0.3817401888
 H   -0.9071468270    2.1234862071   -0.4204243330
 H   -0.7421713780    1.8396626711    1.3273437524
 H    0.2081623209   -0.3570649592   -2.0064212611
 H    1.3766278641    0.9143177159   -1.5916480256
 H    1.4187567646   -2.1886282703    0.9148558793
 H    2.8165659444   -1.1137853347    1.1451773766
 H   -1.4995945538   -0.6765555804    1.2546930175