21

 C    0.0585662299    1.5556550892    0.0096139950
 C    0.0091262815    0.0376420687    0.0673618651
 O    0.5643615052   -0.4665371549   -1.1315986602
 C   -0.1283503985   -1.4940803920   -1.8115485932
 C   -0.2840928768   -2.8156618190   -1.0203781102
 C    0.9871287406   -3.2272349663   -0.3321404318
 C    1.3957484252   -2.7097342968    0.8263398856
 C    0.6101967687   -1.6980388569    1.6317294143
 O    0.7514615272   -0.3453593010    1.1964626874
 H    1.0960674364    1.8753442046   -0.1160197441
 H   -0.5262961690    1.9162666396   -0.8400988360
 H   -0.3372160872    1.9872006470    0.9318969290
 H   -1.0319132509   -0.3189420584    0.1672032450
 H   -1.1261254934   -1.1515565933   -2.1286293315
 H    0.4607682413   -1.6718158892   -2.7170522544
 H   -1.0886890325   -2.6957357709   -0.2865924578
 H   -0.6212143882   -3.5845966214   -1.7243453457
 H    1.6298143300   -3.9315400546   -0.8555637354
 H    2.3592998181   -3.0059179883    1.2325448775
 H   -0.4579810626   -1.9645810391    1.6501565905
 H    0.9607693151   -1.6962394569    2.6673758409