16

 O   -0.1004608041    1.4177531521    0.0117331576
 C   -0.0352620149    0.0073263625    0.1554399596
 C   -1.3942698017   -0.5638673324   -0.2548927858
 C   -1.4570447527   -2.0529250810   -0.1018938490
 N   -1.1956498036   -2.8534939004   -1.1362196450
 N   -1.3092189675   -4.1004579628   -0.6396350085
 C   -1.6365646021   -4.1228865566    0.6742207881
 C   -1.7405581001   -2.8061041582    1.0647505367
 H    0.7627331146    1.7816121403    0.2281583728
 H    0.7479520284   -0.4300995632   -0.4822251124
 H    0.1886073948   -0.2802378680    1.1954602805
 H   -2.1668681651   -0.0853201131    0.3564406724
 H   -1.5856311216   -0.2952508740   -1.2975189866
 H   -1.1693430082   -4.8834886041   -1.2547014140
 H   -1.7716975884   -5.0489578935    1.2104694718
 H   -1.9913868679   -2.4365585379    2.0460801118