15

 N   -0.0259497907   -1.0720929289   -0.0039519271
 C   -0.0183451749    0.0847916291    0.0022151856
 C    0.0426039690    1.5078539149    0.0466172558
 C   -0.7966744375    2.5070104618    0.7698316624
 C    0.3067499563    3.5555982145    0.4924267630
 C   -0.1296952061    3.5489279330   -1.0063244422
 C    1.2504720994    3.0380067275   -1.4443496731
 C    1.2867523972    2.4247497092   -0.0253616215
 N   -0.9954333015    2.3266979384   -0.6921668062
 H   -1.5815544298    2.3759308598    1.5041995856
 H    0.6147656861    4.4109659917    1.0853809983
 H   -0.6879843235    4.3297941636   -1.5184943270
 H    1.3149371952    2.3741712364   -2.3098029851
 H    1.9623671278    3.8632707707   -1.5412451501
 H    2.1919921829    2.1123999584    0.4886917015