18

 C   -0.0338584385    1.5027528883    0.0259795564
 C    0.0509958850    0.0091251361   -0.0810336203
 C   -0.7242246059   -0.8301404281   -1.0929725731
 C   -0.7987392822   -1.9205591619    0.0188623843
 N   -0.3282421917   -0.9190758374    1.0614245994
 C    1.0972798395   -0.7909400810    0.6143510551
 C    1.6255080485   -2.0927141415    0.0541776541
 C    0.3411312668   -2.8993017345   -0.2024433529
 O    0.2639507703   -4.0529762325   -0.5293296654
 H    0.5257365042    1.9831434416   -0.7852622355
 H   -1.0736657185    1.8416672241   -0.0331973067
 H    0.3818531115    1.8500217406    0.9763404968
 H   -1.7119746380   -0.4041718233   -1.2821049006
 H   -0.2571251782   -1.0811410644   -2.0509813359
 H   -1.7616886291   -2.3807579254    0.2263477645
 H    1.7134289180   -0.2455836901    1.3219878477
 H    2.2062707656   -1.9976158960   -0.8691700012
 H    2.2516902327   -2.6211023646    0.7801350534