18

 C   -0.0228041244    1.4691896586   -0.0022342412
 N    0.0136518578    0.0025592650    0.0133086783
 C    0.0681631749   -0.6263278365   -1.2376884788
 O    0.0771466427    0.0376500416   -2.2508538207
 C    0.0972884475   -2.1438574258   -1.2566677817
 C    0.7143865246   -2.7448599059    0.0038274171
 C    0.0015578506   -2.1723603475    1.2264908974
 C   -0.0232762486   -0.6536467234    1.2539241758
 O   -0.0876943302   -0.0340221430    2.2925828457
 H    0.8658937409    1.8576948806   -0.5035185460
 H   -0.8999701976    1.8133233569   -0.5541369159
 H   -0.0616192343    1.8089780387    1.0294622477
 H   -0.9413956571   -2.4854267280   -1.3652239588
 H    0.6200320903   -2.4352737648   -2.1698479610
 H    0.6344694000   -3.8356021069   -0.0108692206
 H    1.7831408168   -2.5043013954    0.0479787473
 H   -1.0438713780   -2.5103466287    1.2431679999
 H    0.4490326043   -2.4919152853    2.1696238254