24

 C   -0.1481333635    1.5276550494    0.1478010082
 C   -0.0354765999    0.0029385994    0.0649507827
 C    0.6664998636   -0.5521639917   -1.2005624399
 C    0.6817921386   -2.0909386352   -1.1424209939
 C    0.0117009953   -0.0570597354   -2.5122808570
 C   -1.4678483880   -0.4034905359   -2.6972428257
 N    2.0617339841   -0.0584148741   -1.2575233263
 C    3.0354423579   -0.2767134494   -0.3388938971
 O    2.9251755401   -0.9072850763    0.6944213953
 H    0.8317976339    2.0053191764    0.0494901944
 H   -0.8020094216    1.9415656681   -0.6270169829
 H   -0.5629551892    1.8250493609    1.1155307206
 H    0.5218673108   -0.3680312066    0.9289650890
 H   -1.0340881491   -0.4447021440    0.1218402529
 H   -0.3349765346   -2.4864791299   -1.0705261585
 H    1.1510533816   -2.5069073754   -2.0399392192
 H    1.2452828114   -2.4252870345   -0.2701834905
 H    0.1318470907    1.0319683035   -2.5724104638
 H    0.5846169219   -0.4774811579   -3.3495877184
 H   -2.0915818955    0.0400949236   -1.9157929236
 H   -1.8248409374   -0.0215433371   -3.6583905576
 H   -1.6382399759   -1.4835851165   -2.6904219426
 H    2.3225197619    0.4907311822   -2.0617790421
 H    3.9890240432    0.2039331165   -0.6427824538