23

 C   -0.1853286885    1.4130281487   -0.1863173515
 C    1.2497925467    1.0261636196    0.0809778810
 C    0.1781677095   -0.0339752320    0.0298408214
 C   -0.2514988999   -0.7618249297    1.2873649135
 C   -1.6855625091   -1.3061870397    1.1814076003
 C   -2.1507424237   -1.9319833017    2.5045801372
 C   -1.0906251958   -2.8088634656    3.1192423148
 C    0.1817961018   -2.8066864909    2.7236906830
 C    0.7164153076   -1.9066518028    1.6398207773
 H   -0.7258422884    1.9225415143    0.6051664621
 H   -0.4538682183    1.7384582701   -1.1853233026
 H    1.9614697016    1.0878726933   -0.7349169371
 H    1.6662208809    1.2762665966    1.0517305673
 H    0.1758889377   -0.6583648008   -0.8620070318
 H   -0.2295937755   -0.0403374647    2.1182349416
 H   -2.3700514198   -0.5074209747    0.8756756929
 H   -1.7167922102   -2.0673763736    0.3898720642
 H   -2.4319766248   -1.1420799082    3.2178023037
 H   -3.0672324962   -2.5145471563    2.3443971783
 H   -1.4036064344   -3.4702263686    3.9241720316
 H    0.8936204987   -3.4806399813    3.1956095036
 H    0.9282655249   -2.5013820763    0.7371919984
 H    1.6861828451   -1.4914272258    1.9427264707