13

 O    0.0042340391    0.0344954427    0.0032790076
 C   -0.0400318017    1.2222491231    0.0104822398
 C   -1.3047840722    2.1331548679    0.0332779348
 C   -0.6580090929    3.4706661581    0.0314547398
 C    0.6996809352    3.3220400805    0.0115413805
 O    1.1105537522    2.0045806956   -0.0014702775
 C    1.2566585197    4.6072109866    0.0108028204
 N    0.2681144330    5.5110477751    0.0295400319
 N   -0.8840847754    4.8036874227    0.0418480057
 H   -1.9200180401    1.9012172021   -0.8424255371
 H   -1.8951365355    1.8915759137    0.9233855561
 H    2.2853644112    4.9286694347   -0.0018576596
 H   -1.7557035926    5.3047793272    0.0567672576