18

 C    0.2152615889    1.5775448615   -0.1597764061
 O   -0.3181792923    0.3167033107   -0.5196930887
 C    0.5786080104   -0.4827569325   -1.2433983907
 C    1.6584334841   -1.2784644011   -0.4763698467
 O    1.2256733968   -2.5049325205   -1.0988924296
 C    0.0511196776   -1.8836533392   -1.6418907432
 C   -1.2434518548   -2.4144025336   -1.0004387040
 N   -2.3248301900   -1.5863124838   -1.1628727907
 O   -1.2983608466   -3.5169084594   -0.5047636636
 H    1.0861728033    1.4736100583    0.5020107567
 H    0.5161271989    2.1533559366   -1.0474275415
 H   -0.5689348076    2.1205213637    0.3713376923
 H    0.9848550082    0.0763184694   -2.0974926281
 H    2.7070134665   -1.0528086915   -0.6959759706
 H    1.4959605368   -1.2858785233    0.6098285859
 H   -0.0300499953   -2.0524256961   -2.7235567129
 H   -2.1423155993   -0.5924656695   -1.1683352263
 H   -3.1615934856   -1.8844622496   -0.6819083322