25

 C    0.0488015809    1.7036728426   -0.0305135486
 C   -0.0146498863    0.1722061584    0.0198962862
 C    0.6787258929   -0.4924854259   -1.1754397829
 C    2.1980713587   -0.2064460038   -1.2299324449
 O    2.7927024917   -1.3246770610   -1.8624075597
 C    2.1121583967   -2.4552410762   -1.3499356692
 C    0.6187725617   -2.0621080258   -1.2622500426
 C   -0.1324022755   -2.7995863570   -0.1472975221
 C   -0.1842576491   -4.3166409408   -0.3660435526
 H    1.0807863947    2.0683656604    0.0039318780
 H   -0.4063442857    2.0869108767   -0.9508666180
 H   -0.4851422559    2.1483750193    0.8149772512
 H    0.4395659031   -0.1779046860    0.9556908134
 H   -1.0655764124   -0.1366951106    0.0553058420
 H    0.2228219499   -0.0904353147   -2.0875309962
 H    2.4640885007    0.6844941893   -1.8038738109
 H    2.5951863171   -0.0874165566   -0.2051524012
 H    2.3133256929   -3.2982271905   -2.0153963261
 H    2.4933919410   -2.7114051425   -0.3443749790
 H    0.1408868330   -2.3251996214   -2.2129636085
 H    0.3391822203   -2.5898442703    0.8212980110
 H   -1.1573081581   -2.4176030304   -0.0779282408
 H   -0.6590439723   -4.5608721054   -1.3231227905
 H    0.8169298604   -4.7602196774   -0.3716420521
 H   -0.7575263604   -4.8096087002    0.4251934540