17

 C    0.2500917160    1.5978776734    0.0375524190
 C    0.0056224641    0.0805067108    0.0735491354
 C    0.6356146714   -0.6534649396   -1.1237682846
 O    1.9373522298   -1.0871557825   -0.6885510690
 C    1.9884855764   -1.1801251122    0.6783093251
 N    2.9586841730   -1.6727629658    1.3229694864
 C    0.7410926445   -0.5788013363    1.2207458606
 N    0.2599789011   -0.5493607223    2.4027753603
 O    1.0399685823   -1.1744411051    3.3528391430
 H    1.3182778267    1.8213276728   -0.0526535007
 H   -0.2668817826    2.0525650937   -0.8136842027
 H   -0.1175914263    2.0621718700    0.9562238747
 H   -1.0673891514   -0.1149292002    0.1372918661
 H    0.0513012092   -1.5337116092   -1.4171614332
 H    0.7762147083   -0.0148520176   -1.9989615783
 H    3.6733701285   -2.0038338091    0.6703467235
 H    0.5136725791   -1.0648053009    4.1536332845