17

 C    0.1698830947    1.3879948770   -0.4126025325
 C   -0.0250244493    0.0130216627    0.2518330322
 C   -1.4373861787   -0.4748242722    0.1885953243
 N   -2.3493023345   -0.3170927236    1.1192714170
 C   -3.5118882209   -0.8825804930    0.6160260317
 C   -3.2802527769   -1.3870413177   -0.6440851192
 N   -1.9595115218   -1.1204781109   -0.9033617256
 C   -4.7287632123   -0.9134421390    1.3388312625
 C   -5.7690314059   -0.9444546141    1.9441480520
 H    1.2102160069    1.7151419544   -0.3249777466
 H   -0.0855533158    1.3581060613   -1.4770195921
 H   -0.4685168460    2.1364892753    0.0644454095
 H    0.6433161632   -0.7223858844   -0.2132893369
 H    0.2486452616    0.0714451807    1.3083854450
 H   -3.9184777474   -1.8990848394   -1.3438187151
 H   -1.4631056160   -1.3661485639   -1.7437779702
 H   -6.6824587609   -0.9683937431    2.4841904939