16

 C    0.1589085211    1.4990382801   -0.2392890384
 N    0.1911858945    0.0460213731   -0.0685717967
 C    1.4712369809   -0.6640355668   -0.2075743651
 C    2.7029554713    0.0399544254   -0.4667843451
 N    3.7050629163    0.5790280342   -0.6795034604
 C    0.7873050185   -0.5100624799    1.1279133924
 C    1.2729636307    0.3856522454    2.2621971528
 N    2.5748169106    0.2390067813    2.6307284995
 O    0.4866474843    1.1102835853    2.8380770604
 H    1.0804889017    2.0126053949    0.0650984960
 H   -0.0300972579    1.7141089580   -1.2939809012
 H   -0.6639465832    1.8881254574    0.3626349878
 H    1.4090977347   -1.6182596677   -0.7250897746
 H    0.2720163959   -1.3912135705    1.5092830138
 H    3.2517586424   -0.1741842100    2.0106247688
 H    2.9187674281    0.8666999599    3.3421599500