19

 C    0.2314003612    0.8942249641   -0.9876356046
 C   -0.1793797264   -0.2786432144   -0.1177020823
 C    0.7647911191   -1.4794737473   -0.0257008090
 C    0.6340809436   -0.5623219723    1.1409327433
 C   -1.6282481562   -0.6487208850   -0.0049035642
 O   -2.0192053436   -1.4883071525    0.7752607800
 C   -2.6479399888    0.0652089494   -0.9212548836
 C   -2.5147700184   -0.3417234692   -2.3140459757
 C   -2.3962783435   -0.7051505909   -3.4537933528
 H    1.3205022270    0.9966048824   -0.9885850814
 H   -0.0919261322    0.7663393399   -2.0244357588
 H   -0.1800478141    1.8395491693   -0.6153474053
 H    0.2964237597   -2.4537519070    0.0468581975
 H    1.6609933629   -1.4346376576   -0.6346365835
 H    1.4423122389    0.1277873517    1.3564208207
 H    0.0768896194   -0.9208606309    1.9979613161
 H   -3.6399769642   -0.1945406821   -0.5410522860
 H   -2.5256348181    1.1520894277   -0.8363375338
 H   -2.3026704664   -1.0209281153   -4.4632610767