18

 C    0.0413716436   -1.2049863827   -0.0041856847
 C    0.0107273928   -0.0038162931    0.0019268740
 C    0.0040061710    1.4535260127    0.0090778785
 C    1.4236019609    2.0538491216   -0.0001430468
 C    1.3931608778    3.5748797231    0.0075248060
 O    2.7319167841    4.0424885630   -0.0016774171
 C    2.8121339043    5.4441889042    0.0044658744
 C    4.2212541328    5.8488474279   -0.0055584555
 N    5.3209926436    6.1995154474   -0.0132134310
 H    0.0576337851   -2.2666265671   -0.0094878179
 H   -0.5567753719    1.8191119251   -0.8615302387
 H   -0.5417734246    1.8105694904    0.8926686068
 H    1.9808469437    1.7009711407    0.8728758501
 H    1.9657988463    1.7095412446   -0.8859657546
 H    0.8516098068    3.9587843517   -0.8738886346
 H    0.8668399070    3.9501401189    0.9017927092
 H    2.3150616593    5.8848275515   -0.8758091307
 H    2.3301564775    5.8761917700    0.8973252425