18

 C   -0.0374845508    1.5156475453   -0.0105125743
 C    0.0444060154    0.0083766046   -0.0145554884
 C   -0.7925756500   -0.7829348538    0.9448915594
 C    0.7291771878   -0.7815063918    1.1258365698
 C    1.4378268957   -1.9191200075    0.4586148107
 C    1.2559034312   -1.8971135106   -0.8616892646
 C    0.4513081709   -0.6995508423   -1.3133983017
 C    1.2959529030   -0.1417951187    2.2759742862
 N    1.7522255374    0.3779918165    3.2043194853
 H    0.8885118642    1.9611482603   -0.3887700609
 H   -0.8600917903    1.8575015636   -0.6487721350
 H   -0.2089440663    1.9057527923    0.9964867276
 H   -1.3694533758   -0.2197546535    1.6709926148
 H   -1.2333256478   -1.7246579885    0.6348965488
 H    1.9892644357   -2.6614530478    1.0218260164
 H    1.6211873063   -2.6476991700   -1.5526018149
 H   -0.4251839369   -0.9875787210   -1.9075505256
 H    1.0508142404   -0.0355465072   -1.9507907136