14

 N   -0.0133164817    1.3921683446    0.1300863239
 C   -0.0576961005    0.0303075620    0.0494281993
 C   -1.2030940487   -0.7254857803    0.0314902700
 O   -2.4045706143   -0.0727350477    0.0457162795
 C   -1.1023613676   -2.1406223471   -0.0006663122
 N    0.0261508025   -2.7963036846   -0.0231474660
 N    1.1321943357   -2.0308390408   -0.0187619683
 C    1.2293870974   -0.6505429231    0.0056937546
 O    2.3088290151   -0.0673882336   -0.0167355091
 H    0.8914894613    1.7834585079   -0.0914831367
 H   -0.8276257397    1.9087476144   -0.1581093707
 H   -3.1220736810   -0.7130901304    0.0077999339
 H   -2.0006322858   -2.7532032222   -0.0063803604
 H    2.0054851772   -2.5388312289   -0.0491378578