19

 C   -0.2416432342    1.4741896111    0.0346128576
 C    0.2282332475    0.0350953392    0.0066516430
 O    0.6365892738   -0.5324491634    0.9967637887
 C    0.1723150964   -0.6909917020   -1.3327606786
 C    1.5842866437   -1.1517779246   -1.7576775310
 O    1.5159361728   -1.9574238144   -2.9217300754
 C    0.6881657500   -3.0721425245   -2.7188997170
 O   -0.6357806434   -2.7122842088   -2.4258628280
 C   -0.7084441754   -1.9553535092   -1.2295564519
 H    0.3458130305    2.0762483612   -0.6687826043
 H   -1.2844703778    1.5362060040   -0.2985563598
 H   -0.1486800282    1.8831096605    1.0412886600
 H   -0.2346229387   -0.0395718322   -2.1124233014
 H    2.2275913682   -0.3029152450   -2.0038961536
 H    2.0399305695   -1.7075250486   -0.9239275442
 H    0.6692403098   -3.6328160914   -3.6550067334
 H    1.0959716496   -3.6965947715   -1.9007134751
 H   -0.3707073729   -2.5514325779   -0.3681939222
 H   -1.7618557314   -1.7010499926   -1.0859044534