16

 C   -0.1489624213    1.4853016416   -0.0282822659
 C    0.1195807914    0.0186325092    0.0433619771
 C    0.8023994322   -0.8738954317   -0.8879749012
 C    1.6698145106   -1.8527854880   -0.1090927159
 O    1.3551348077   -1.6187317927    1.2683827196
 C    0.1196018660   -0.9229179463    1.2749654170
 C   -0.9555626969   -1.7051579888    0.4845590058
 O   -1.8233468030   -2.4783636608    0.7420321175
 N   -0.6996435881   -1.0262681920   -0.7757614538
 H    0.6780142607    2.0480537491    0.4181400692
 H   -0.2625319622    1.8061072940   -1.0670969208
 H   -1.0656815433    1.7457608061    0.5100584200
 H    1.1045115514   -0.5527569187   -1.8783998398
 H    1.4572142694   -2.8946654198   -0.3829142930
 H    2.7359269014   -1.6569958528   -0.2647440008
 H   -0.0997812159   -0.5625390583    2.2784412850