19

 O   -0.4219209746    1.4918656410   -0.0081846852
 C   -0.2067146222    0.1130166729    0.0317669145
 C   -0.4584034565   -0.7225491937    1.2449071157
 C   -1.2412152751   -0.1524375688    2.4196096139
 C   -2.5056047837    0.5102011782    1.8209268561
 C   -2.7609219416   -0.1995545746    0.4709176497
 C   -1.4266385428   -0.7880232234    0.0353648227
 C   -1.4127466544   -1.9668581670   -0.8546446064
 O   -2.3966909462   -2.5323896519   -1.2675624216
 H    0.2763425477    1.9172497417    0.5010625740
 H    0.6095985042   -0.2285168112   -0.6079797887
 H    0.2289738274   -1.5420164345    1.4318890288
 H   -1.5092370413   -0.9791774708    3.0865517423
 H   -0.6487016729    0.5524124209    3.0140108230
 H   -3.3628782129    0.4304664741    2.4947643878
 H   -2.3190362429    1.5704062507    1.6471978556
 H   -3.4672803351   -1.0292040821    0.5713022345
 H   -3.1738718915    0.4828519590   -0.2770406746
 H   -0.3912624958   -2.3253593505   -1.1267961923