16

 C   -0.0295211528    1.4727078595   -0.0101813800
 C   -0.0218624264    0.0176255793   -0.0105074914
 C   -0.0037989986   -1.1861761213   -0.0188654573
 C    0.0241183047   -2.6205752035   -0.0332321849
 C   -0.4630116120   -3.3931029793    1.2059786153
 C   -1.3048581679   -3.3972517439   -0.0153534846
 C    1.1236313700   -3.2918882404   -0.7888084697
 O    2.0011322991   -2.7386228970   -1.3954908637
 H    0.8120254572    1.8656762774   -0.5909722609
 H   -0.9507312111    1.8691157882   -0.4515052507
 H    0.0528607508    1.8740699525    1.0060157593
 H    0.0807097424   -4.2954041170    1.4658712022
 H   -0.7598724476   -2.7786822011    2.0463841505
 H   -2.1978335314   -2.7857623750   -0.0397780692
 H   -1.3514108428   -4.3024623512   -0.6118018426
 H    1.0603356162   -4.4058814072   -0.7414231923