21

 C   -0.0462565559    1.5524468382   -0.0985227604
 C    0.0174036969    0.0271112167   -0.0043266383
 C    0.8228972722   -0.6255722345   -1.1536844134
 O    1.3883135519   -1.8331081878   -0.6460934107
 C    1.5326022193   -1.6847415671    0.7409842896
 C    2.2140012734   -0.4545886078    1.2823039509
 C    0.6933887301   -0.5434633581    1.2440240005
 C   -0.0842554527   -0.6246377248    2.5248494763
 O   -0.2703103243    0.6926825084    3.0369819613
 H    0.9587716980    1.9876343151   -0.0743014984
 H   -0.5271760299    1.8700996449   -1.0304548532
 H   -0.6076787696    1.9646342858    0.7423703407
 H   -1.0062789861   -0.3715485360   -0.0187256819
 H    0.2105355487   -0.8810117341   -2.0231342733
 H    1.6184506354    0.0547278928   -1.4932125989
 H    1.6206080874   -2.6406777319    1.2451592451
 H    2.6825857650   -0.5339567923    2.2577185494
 H    2.7276076220    0.2105671031    0.5969560390
 H   -1.0562812143   -1.1090436414    2.3344793183
 H    0.4593285008   -1.2523608325    3.2493934195
 H   -0.8358338585    0.6342544931    3.8130964880