17

 O   -0.0204221896   -0.0805821283    0.0893967106
 C   -0.0328441461    1.1344593462    0.0574808873
 C   -1.3393335738    1.9220533699    0.1016499071
 N   -1.1393577037    3.3221694237    0.4627905088
 C   -0.1375222527    3.9475080440   -0.3851018691
 C    1.2227358657    3.3297757319   -0.0223007942
 N    1.1107169216    1.8713314550   -0.0804305602
 C    2.2880220089    3.7973847167   -0.9072260064
 C    3.1698227631    4.1853628596   -1.6247850468
 H   -1.8092324081    1.7843755379   -0.8901669575
 H   -1.9826873843    1.4307283496    0.8351891252
 H   -2.0168571989    3.8263089952    0.4115092603
 H   -0.3142285476    3.8048208357   -1.4662465361
 H   -0.1003468962    5.0210228149   -0.1854723952
 H    1.4571746451    3.6429485145    1.0060664459
 H    1.9643155885    1.3312824238   -0.0910306990
 H    3.9498446880    4.5280306197   -2.2593139907