19

 C   -0.0977998362    1.9252991939   -0.1312828447
 N   -0.1169545666    0.4712029017   -0.0061037984
 C    1.0996353346   -0.2621212185   -0.3423149913
 C    0.6295518530   -0.1752280269    1.0720593058
 C    1.3641225617    0.5439975462    2.1799324312
 C    0.5323924893    1.0027577071    3.3537159734
 N    1.4275981655   -0.1291032304    3.5059447350
 C    2.6144134200    1.3406879895    1.9654349314
 O    3.0313456398    1.7626478700    0.9154410506
 H    0.8850924082    2.3802696902    0.0436543978
 H   -0.4206178647    2.1841834510   -1.1444823875
 H   -0.8218132919    2.3558025302    0.5685276508
 H    0.9583173221   -1.1846964148   -0.9003885359
 H    1.9835874016    0.3112572855   -0.6010700477
 H    0.0924681739   -1.0378376850    1.4718621036
 H    0.8115787247    1.8950843695    3.9080443988
 H   -0.5378425330    0.8358798792    3.2625222138
 H    0.9154336527   -1.0066786604    3.4621241016
 H    3.1493467954    1.5271695220    2.9216030519