23

 C    0.0145723505    1.6003117255    0.0658970612
 C   -0.0688999573    0.0766656587   -0.0516631473
 C    0.7254045425   -0.4828248235   -1.2385918536
 O    2.1027154652   -0.1075368530   -1.1697981454
 C    0.5685085460   -2.0011747708   -1.3783386674
 C    1.3141620979   -2.5652410294   -2.6038450526
 C    1.2240071015   -4.0169654277   -2.7108542158
 C    1.1357496137   -5.2164632243   -2.7738620543
 C    1.0365168758   -6.6666673739   -2.8637194229
 H    1.0564965354    1.9251139350    0.1265102007
 H   -0.4326970181    2.0865528965   -0.8081302740
 H   -0.5130365593    1.9595203257    0.9544610586
 H    0.3059973802   -0.3922319570    0.8704155702
 H   -1.1152696067   -0.2390492282   -0.1473392518
 H    0.3669838448   -0.0028684321   -2.1598931497
 H    2.4656098348   -0.4891723189   -0.3618295469
 H    0.9446311358   -2.4900591113   -0.4691328608
 H   -0.4954755622   -2.2548362324   -1.4469041990
 H    0.9105982963   -2.1007005469   -3.5140445537
 H    2.3626938333   -2.2509561968   -2.5490863704
 H    0.5985749273   -6.9789292611   -3.8185135222
 H    2.0208354845   -7.1414323903   -2.7820878910
 H    0.4072238581   -7.0746261639   -2.0646069019