16

 O    0.0523919434    1.3738480873    0.1484291083
 C    0.0310727789   -0.0163847937    0.0214289394
 C   -1.4229466477   -0.5526162165   -0.0227173725
 O   -1.4427359448   -1.9532137370   -0.2091836710
 C   -0.8972101539   -2.3359355490   -1.4548851925
 C    0.5944414040   -1.9391498632   -1.5635597509
 C    0.7278047527   -0.4670696435   -1.2548910916
 O    1.2660898839    0.3477266097   -1.9746030147
 H    0.5598708284    1.6904392513   -0.6169782287
 H    0.5356529700   -0.5004808858    0.8739616162
 H   -1.9262639537   -0.3432604496    0.9236249632
 H   -1.9651317946   -0.0305292586   -0.8272078331
 H   -1.0107853131   -3.4201194047   -1.5299866916
 H   -1.4613465178   -1.8739046193   -2.2810832974
 H    1.1589296940   -2.5135943402   -0.8197967763
 H    0.9983974506   -2.1503459173   -2.5568943968