18

 C   -0.0715681197    1.3788252223    0.2530262643
 O   -0.0426557513    0.0450588785   -0.2350456861
 C   -1.2406932525   -0.6313537396   -0.0749930426
 C   -1.3374895700   -1.9929215106   -0.7451931046
 N   -0.4382483319   -2.9198717306   -0.0228258951
 C   -1.7851611619   -2.6350118645    0.5238379050
 C   -1.6041497907   -1.3417040845    1.3235008018
 C   -0.5256822183   -1.3564231682    2.3806714236
 O   -0.2475429781   -0.3955627082    3.0567442818
 H    0.9110789825    1.8101883881    0.0517014359
 H   -0.8363590004    1.9736344599   -0.2699355559
 H   -0.2657973013    1.4066435303    1.3310836495
 H   -2.0964751183   -0.0036616502   -0.3655179041
 H   -1.6250551543   -2.1916199191   -1.7698525369
 H   -0.4797867441   -3.8152405608   -0.5078493102
 H   -2.5168324801   -3.4180285231    0.6729966351
 H   -2.5175071960   -0.9164306876    1.7449317023
 H    0.0074960065   -2.3209860419    2.5014868459