17

 C    0.0335631769    1.5809621772    0.0124070657
 C    0.0049813768    0.0490405934    0.0926535154
 C    0.7300926844   -0.5940832140   -1.1061288950
 O    2.1170471175   -0.7045908379   -0.7210381712
 C    2.2351636138   -0.7126908319    0.6277316666
 O    3.2808187134   -0.8385962437    1.1967343331
 C    0.8438415195   -0.5379356487    1.2440765996
 C    0.8850591191    0.1609853021    2.5908022513
 O    0.0135488317    0.8769613246    3.0107954808
 H    1.0609460021    1.9558152843   -0.0594443732
 H   -0.5054909592    1.9175216481   -0.8785137735
 H   -0.4318366969    2.0275028080    0.8911355455
 H   -1.0307223987   -0.2954651823    0.1400691009
 H    0.3532929246   -1.5983526183   -1.3325058191
 H    0.6914178222    0.0132405934   -2.0124374789
 H    0.5005196231   -1.5612366903    1.4712159088
 H    1.7936697498   -0.0731489239    3.1823056331