16

 N   -0.0275697011    1.4169405643    0.0700984794
 C    0.0416225052    0.0044745374   -0.0303013336
 C    0.7090281095   -0.8908841244   -1.0721217272
 N   -0.3003260517   -1.9954003413   -0.7515625012
 C   -1.1170020197   -0.9943737654    0.0119866152
 C   -0.2555422479   -0.8498020151    1.2048659379
 O    0.4691982438   -2.0475400919    1.4195438693
 C    0.3292157642   -2.7962441696    0.2618512841
 N    0.7419770478   -3.9713276561    0.0971324159
 H    0.8437983553    1.8105426901    0.4112442629
 H   -0.2343532738    1.8460824750   -0.8265610550
 H    0.5438600847   -0.5466212380   -2.0967345536
 H    1.7580878402   -1.1775378822   -0.9426271205
 H   -2.1909635881   -0.9178346219   -0.0914490153
 H   -0.5689111680   -0.3536533953    2.1123196906
 H    1.1990624994   -4.3045291854    0.9466568511