21

 C   -0.0639293338   -1.2056283960   -0.1123943413
 C   -0.0224198144   -0.0059222861   -0.0311539023
 C    0.0220902785    1.4435251514    0.0610076648
 C   -0.3660640951    2.0506345493    1.4433342010
 C    0.7757672006    1.5436903172    2.3512372155
 C    2.0212593918    1.5654554859    1.4069881483
 C    1.4440513955    2.0822700847    0.0710299140
 C    1.0917939786    3.5773686595    0.2263151550
 C   -0.1547321665    3.5555797273    1.1713301422
 H   -0.1011889498   -2.2639362282   -0.1860385384
 H   -0.5924671005    1.8724371260   -0.7397182450
 H   -1.3654207647    1.7960331578    1.7999134967
 H    0.8990368819    2.1792746742    3.2328166259
 H    0.5704586479    0.5293496829    2.7019479260
 H    2.8225670086    2.2128842093    1.7745284549
 H    2.4367689061    0.5619620369    1.2870252011
 H    2.0625763422    1.8559384777   -0.7989605918
 H    1.9275761249    4.1472356687    0.6421787356
 H    0.8452014916    4.0245016700   -0.7415380478
 H   -1.0298462938    3.9916975890    0.6799475868
 H    0.0074426705    4.1137031427    2.0978387188