16

 C    0.2839408482    1.6512428351   -1.0362468069
 N    0.0468651344    0.2092790278   -1.1075335162
 C    1.2501189333   -0.5850876938   -1.1086208267
 C    1.7443557452   -0.9804870409    0.2956504015
 O    1.1653024555   -0.6508999325    1.2964581896
 C    1.1602607691   -1.8875683630   -1.9295883142
 O    2.1485891742   -2.5633695316   -2.1188624605
 C   -0.1468584571   -2.2709105884   -2.4180598464
 C   -1.2097342876   -2.6539226878   -2.8335136808
 H    0.8747606049    1.9692448172   -0.1631556621
 H    0.8037813253    1.9809474983   -1.9423200533
 H   -0.6792570317    2.1672730801   -1.0024358755
 H   -0.5169313359   -0.0680755943   -0.3094095117
 H    2.0757812667   -0.0304186533   -1.5751013928
 H    2.6543842131   -1.6127594333    0.3111230115
 H   -2.1510285675   -2.9849904594   -3.2003873854