23

 C   -0.1477397260    1.5008550066    0.0233031445
 C    0.0118087538    0.0047611894    0.0351492713
 C   -0.8761239419   -0.9003338696    0.8500747149
 C    0.6117127838   -0.8089071502    1.1495054064
 C    1.5109997683   -1.8466076063    0.4885371337
 C    1.6136927821   -1.3636079583   -0.9866977566
 C    2.8607261416   -0.4944573608   -1.1989654481
 C    1.5513228419   -2.4989052392   -2.0035637207
 O    0.4376655424   -0.5448142239   -1.1922683061
 H    0.7961847167    1.9961702032   -0.2272055752
 H   -0.8935918123    1.8026678991   -0.7198188074
 H   -0.4797638056    1.8625788250    1.0010375066
 H   -1.5579488442   -0.4445121878    1.5612084188
 H   -1.2466112012   -1.8014316234    0.3720248961
 H    0.9254640511   -0.3467698208    2.0786398253
 H    2.4966178616   -1.8887322001    0.9603413566
 H    1.0797566181   -2.8522830265    0.5421930960
 H    3.7756913421   -1.0907616581   -1.1154827030
 H    2.8348627288   -0.0342501274   -2.1907832085
 H    2.9068086646    0.3038386298   -0.4514267730
 H    0.6315511307   -3.0763363447   -1.8748929446
 H    1.5673977685   -2.1042362328   -3.0238860500
 H    2.4056087450   -3.1728821532   -1.8834504769