18

 C   -0.0458101108    1.4961333756    0.0768113061
 C    1.3642590761    2.1220326562   -0.0103905275
 C    2.1837116668    1.4279916060   -1.0596740589
 C    3.2318705183    1.8419245453   -1.8399132877
 N    3.6700475298    0.7544922892   -2.5665508644
 C    2.9166622139   -0.3500214924   -2.2591615052
 C    1.9789540349    0.0343015248   -1.3235406586
 C    0.9135924732   -0.6904895800   -0.6552676650
 C   -0.0264946486   -0.0169865327    0.0236633439
 H   -0.5446274368    1.8388348668    0.9898692241
 H   -0.6598604223    1.8680882002   -0.7586793082
 H    1.2892339965    3.1985922098   -0.1964117521
 H    1.8556963808    2.0094671668    0.9674328901
 H    3.7109818086    2.8031509608   -1.9401917268
 H    4.4159335377    0.7741038182   -3.2386329765
 H    3.0944413519   -1.2987663914   -2.7402582221
 H    0.8837459310   -1.7745480577   -0.7222559213
 H   -0.8384837608   -0.5496723355    0.5098681402