15

 N   -0.0768590151    1.3818937720    0.1716536148
 C   -0.0302822994   -0.0037556300    0.0513659175
 N   -1.0715240383   -0.8078161574    0.0583766262
 C   -0.5342996655   -2.0766742686    0.0145983646
 N   -1.4096727854   -3.1634931531    0.0102615217
 C   -1.0432639791   -4.4730036543   -0.0356140289
 O    0.1014245667   -4.8751782661   -0.0812949482
 C    0.8299441910   -2.0520347248   -0.0331289042
 N    1.1404537484   -0.6905989636   -0.0104075236
 H    0.4708869711    1.8709369971   -0.5263011988
 H   -1.0382721368    1.6962418343    0.1369027522
 H   -2.3893679576   -2.9258583007    0.0454441466
 H   -1.9237411948   -5.1435747750   -0.0268008508
 H    1.5665333794   -2.8290991917   -0.0961610694
 H    2.0623821754   -0.2985794080    0.0735918803