16

 C   -0.0446821228    1.5439556932   -0.0195219095
 C    0.0052105743    0.0430092286   -0.0243821691
 C   -0.0933237495   -0.7343393359   -1.1690138866
 N   -0.0515405114   -2.0699448553   -1.1933920160
 C    0.1013462526   -2.6587242780   -0.0022697229
 N    0.2019805856   -4.0225843804    0.0126813310
 N    0.1979306872   -2.0331919821    1.1842516380
 C    0.1505675914   -0.7110471727    1.1511573681
 O    0.2451070275   -0.0608148001    2.3256532694
 H    0.8717387224    1.9775960295    0.3959470654
 H   -0.1701621851    1.9275111183   -1.0360840838
 H   -0.8742455302    1.9191643033    0.5899657360
 H   -0.2170378109   -0.2463320897   -2.1351014338
 H   -0.1126508027   -4.4968383223   -0.8172889666
 H    0.0466880513   -4.4789635744    0.8956775493
 H    0.3411712703   -0.7445258421    3.0040459011