18

 C   -0.3828155377    1.3252913375    0.0184367103
 C    1.0804198404    0.9770833158   -0.0890227596
 C    0.0523193680   -0.1109453241    0.0315616649
 C   -0.1148368696   -1.1411679113    1.1665415106
 C   -0.5863137907   -2.1798728492    0.1074900480
 N   -2.0426215490   -2.3735712771    0.0573657580
 C   -2.4547593285   -1.6784875200   -0.9204200616
 O   -1.5800294299   -0.9653227648   -1.6771751694
 C   -0.2983547014   -1.1517372131   -1.0323060113
 H   -0.7418640685    1.7493232436    0.9506546553
 H   -0.8965884494    1.6841861385   -0.8667835342
 H    1.5715228629    1.1096456174   -1.0481093842
 H    1.7177612116    1.1654464899    0.7692097668
 H    0.8205379649   -1.4144544757    1.6639422519
 H   -0.8682394691   -0.9084532727    1.9230285690
 H   -0.0708473417   -3.1424360136    0.1089105169
 H   -3.4877417476   -1.5984395586   -1.2411675913
 H    0.4426008554   -1.3563449425   -1.8066524402