15

 O    0.1473632958    1.4192191527   -0.1190506217
 C    0.1089495660    0.0460802119   -0.0486798340
 C   -0.0070564736   -0.6471576528    1.3479270961
 N   -1.4182329281   -0.0726562925    1.4021564601
 C   -1.2970483467   -0.6736639063    0.0131028659
 C   -2.3734244164   -0.6701294887   -0.9396970580
 N   -3.2231854424   -0.7031766849   -1.7240064099
 C   -0.5597751247   -1.9076675535    0.6515231871
 O    0.3415616111   -2.6674571593   -0.0863547329
 H   -0.5042481694    1.7410517684    0.5216636447
 H    0.8242029099   -0.3783026189   -0.7479321671
 H    0.6678816194   -0.5817153023    2.1996248401
 H   -2.0240951290   -0.6541019552    1.9897926409
 H   -1.2253220239   -2.5133718264    1.2810293054
 H   -0.1391977178   -3.3553611122   -0.5587582267