23

 C   -0.0785634564    1.5633616021    0.1072095407
 C    0.0453037601    0.0472450573    0.0695817207
 C   -1.1671483618   -0.5972472806   -0.5919959803
 C    1.3375164227   -0.6882183705   -0.2355965652
 C    2.5760479745   -0.0373570685    0.3534807445
 O    2.9757711674    1.1700156917   -0.2674483798
 C    1.8934111002   -0.0040255495    1.7636596002
 C    0.6914465726   -0.7625516595    1.1722287408
 C    0.0541461422   -1.9069592610    1.9132519998
 H    0.8214046436    2.0571268402    0.4686851041
 H   -0.2694539821    1.9485693696   -0.9009388442
 H   -0.9248013541    1.8621102778    0.7386166225
 H   -1.3189650966   -0.1724262451   -1.5904507594
 H   -1.0571457073   -1.6783448998   -0.7104633783
 H   -2.0797456845   -0.4129103613   -0.0130644945
 H    1.3630901498   -1.4402245671   -1.0176168102
 H    3.4097891554   -0.7528103891    0.3621825884
 H    3.7843909265    1.4712729132    0.1592248569
 H    2.4413798073   -0.5907533993    2.5064405428
 H    1.6920136646    0.9864034192    2.1812810468
 H   -0.4702656729   -1.5439855319    2.8065270189
 H   -0.6731804898   -2.4519011377    1.3072526552
 H    0.8103017285   -2.6251878803    2.2518325297