18

 C   -0.2517908200    1.5704127976   -0.4053278993
 C   -0.0380034761    0.1001344803   -0.1146699616
 N    1.2391169079   -0.5989252137   -0.6562782875
 C    1.9880955687    0.0379624348    0.5253800641
 C    0.6605572959   -0.4442376969    1.1492563906
 C    0.8902143679   -1.7249491180    0.3332408281
 O    0.1702983058   -0.3600692518    2.4689137812
 C    0.9474046043    0.2008161688    3.4201824064
 O    0.5985493602    0.3055404854    4.5566350407
 H    0.5658334395    2.2168422756   -0.0798900384
 H   -0.3903144600    1.7175393651   -1.4809914945
 H   -1.1632216099    1.9084968684    0.0981709013
 H   -0.9262420335   -0.4673283084   -0.4096015928
 H    2.9011285108   -0.4997316143    0.7900400261
 H    2.1783491077    1.1045130816    0.4154383143
 H    0.0180072243   -2.3124297640    0.0402187223
 H    1.7443747170   -2.3543219288    0.5902559462
 H    1.9223220296    0.5444793482    3.0295927329