25

 C   -0.1184314129    1.5536598968   -0.1606787913
 C   -0.0254701427    0.0299505157   -0.0442671448
 C    0.7237774951   -0.4341192861    1.2117092878
 C    0.8045560656   -1.9627041576    1.3066701769
 C    1.5453775475   -2.5482596774    2.5463272398
 C    3.0250012259   -2.0991203161    2.5797059944
 C    0.8477563310   -2.1356562212    3.8636188117
 C    1.5029247694   -4.0118166965    2.4327054249
 C    1.4639033412   -5.2097385159    2.3331534823
 H    0.8771458229    2.0097063189   -0.2006159361
 H   -0.6575287197    1.8531294080   -1.0649373420
 H   -0.6441054969    1.9855639473    0.6983193310
 H   -1.0356199710   -0.4004245107   -0.0423578429
 H    0.4736468154   -0.3764465563   -0.9338483806
 H    1.7312597924    0.0004617390    1.2030880550
 H    0.2197641275   -0.0238402826    2.0957840439
 H   -0.2114191105   -2.3765511864    1.2970344423
 H    1.2972331695   -2.3520183297    0.4070788175
 H    3.0988919271   -1.0173662361    2.7234657030
 H    3.5541498635   -2.5872787627    3.4027574387
 H    3.5344083740   -2.3608491765    1.6477235133
 H   -0.2074722512   -2.4237315614    3.8543301202
 H    1.3241307961   -2.6246596957    4.7178193657
 H    0.9107854839   -1.0540834852    4.0137785658
 H    1.4302337868   -6.2674876617    2.2478269235