21

 C   -0.3613440976    1.4346503780   -0.1447639626
 C   -0.0205945663   -0.0359059663   -0.0058232109
 C    1.3308840160   -0.6244842670   -0.3461079821
 C    2.5242751970    0.3107532816   -0.4155015015
 C    2.5790297596    1.0066164551    0.9529750452
 O    3.1836141998    2.0175503330    1.2045184547
 C    1.7281779554    0.2085639505    1.9567670271
 C    1.0864901853    1.0788438471    3.0387792619
 C    0.8216390144   -0.6531888725    1.0926584154
 H    0.4534794125    2.0995950418    0.1512523915
 H   -0.6092987082    1.6712656606   -1.1857403849
 H   -1.2320425723    1.6928377733    0.4674470087
 H   -0.8457931552   -0.6802810461   -0.3012232261
 H    1.3615393447   -1.5324695566   -0.9375580673
 H    3.4562502637   -0.2539246844   -0.5480494886
 H    2.4911165959    1.0578704452   -1.2141887108
 H    2.4481785665   -0.4684457540    2.4460325577
 H    0.3051208608    1.7192017371    2.6213429269
 H    0.6346990263    0.4619322756    3.8209834826
 H    1.8430472749    1.7235594078    3.4942077942
 H    0.4670389367   -1.5839440400    1.5222461490