20

 C   -0.0269753160    1.3547019965   -0.5631713087
 N   -0.0605566246   -0.0843299415   -0.7284239526
 C    1.0679111645   -0.8406199601   -0.8161948782
 O    2.1928911369   -0.3701414489   -0.7450517008
 C    0.8503357378   -2.3268156669   -0.9766208156
 C   -0.3349994728   -2.9230678268   -1.7149735272
 C    1.0220348229   -2.9628426241   -2.3414576617
 O    1.2034829939   -2.1554490237   -3.4536194890
 C    2.5752657790   -1.8690522271   -3.7065096790
 H    1.0206330912    1.6571915505   -0.5765818296
 H   -0.5593127741    1.8602020213   -1.3764667886
 H   -0.4736485825    1.6592766879    0.3902325850
 H   -0.9489344438   -0.5550011037   -0.7409379055
 H    1.2530392440   -2.8892860373   -0.1393760902
 H   -0.7780372680   -3.8411670120   -1.3459912204
 H   -1.0328104819   -2.2386250967   -2.1863245195
 H    1.5510104492   -3.9165493914   -2.3807107925
 H    3.0341622376   -1.3526562363   -2.8567530390
 H    3.1357618992   -2.7915934046   -3.9201242437
 H    2.6036797776   -1.2278178154   -4.5902414930