19

 O   -0.0862948905    1.3746695176    0.0058927175
 C   -0.0016890364   -0.0263987186   -0.0261197701
 C    0.6959647034   -0.6923932023    1.2132026813
 C    0.1828048686   -2.1586370342    1.1457786929
 C   -0.7422047946   -2.1414657087   -0.1232036645
 O   -1.6815862374   -3.1818259505   -0.2031258637
 C   -1.3677195505   -0.7388925647    0.0034718905
 C    0.1773456287   -1.9265243205   -1.3226476161
 C    0.6181187568   -0.6684297582   -1.2647151210
 H    0.8056362231    1.7296790108    0.0803830245
 H    1.7858938879   -0.6147692970    1.1594991894
 H    0.3639200880   -0.1860715791    2.1243371349
 H    0.9885141972   -2.8930629232    1.0546081361
 H   -0.4179749192   -2.4206086385    2.0216847570
 H   -1.2072244142   -4.0195107326   -0.1834442223
 H   -1.9135802242   -0.5907771451    0.9399232433
 H   -1.9962219455   -0.4796813683   -0.8497991217
 H    0.4724338422   -2.7117465907   -2.0093958676
 H    1.3575823067   -0.1850982662   -1.8930955005