15

 C   -0.1467639723   -1.2314077539   -0.1147594998
 C   -0.0546019194   -0.0358246243   -0.0362349742
 C    0.0234279742    1.3895849113    0.0362480292
 C    0.5211591982    2.0970130334    1.3005424636
 C    0.9261366975    1.3581933713    2.4552120637
 C    1.2541578721    0.7600794324    3.4445281513
 C    1.3725475168    2.1151428545    0.0272371169
 C    2.6039580403    1.3939293407   -0.0539460655
 C    3.6513709349    0.8111950200   -0.1401533240
 H   -0.2175499940   -2.2888721059   -0.1773469589
 H   -0.7694366956    1.9169604917   -0.4863649565
 H    0.0177527622    3.0357748029    1.5130452510
 H    1.5486273864    0.2223616689    4.3113070193
 H    1.3641945452    3.0644389890   -0.5005981220
 H    4.5722657735    0.2873869479   -0.2089793541