18

 C   -0.0531213567    1.5339082463   -0.0642710570
 C   -0.0056209063    0.0374773755    0.0479388356
 O    0.8259859873   -0.6001989285   -0.9507136816
 C    1.5911830913   -1.3251947564    0.0369576797
 C    0.7120759238   -0.8243074883    1.1845215752
 O    1.3866387476   -0.3500369548    2.2967451820
 C   -0.5856727860   -1.6004945104    1.3546234144
 N   -1.5859772073   -0.5701084456    1.7422844262
 C   -1.2648950245   -0.7852904515    0.3075829288
 H    0.9448791985    1.9631161452    0.0650213344
 H   -0.4246678919    1.8295425769   -1.0518862861
 H   -0.7177513464    1.9475925730    0.6989480541
 H    1.6066583424   -2.4050152706   -0.1505330055
 H    2.6191265970   -0.9496478982    0.1064854299
 H    0.7139984167   -0.0304639152    2.9114960995
 H   -0.7209591013   -2.6419497657    1.6235967443
 H   -2.4631838895   -1.0513223917    1.9350763358
 H   -2.0203193948   -1.0936149502   -0.4044489599