17

 O   -0.1325993126    1.3306338542   -0.0732501794
 N    0.0302520623   -0.0701047953   -0.0386331528
 C   -1.0965429109   -0.6519264599    0.0325469324
 C   -2.4917853719   -0.0588124334    0.1225069957
 N   -3.3690174649   -1.1729792004    0.5309271546
 C   -3.3891057060   -2.3816298142   -0.3124388504
 C   -2.1377556876   -2.5413559791   -1.1838745855
 C   -1.2716163228   -2.1390050294    0.0659019358
 C   -2.5613884508   -2.3179049330    0.9313712867
 H    0.7792045371    1.6402474052   -0.0837871937
 H   -2.5321805704    0.7281261507    0.8817755252
 H   -2.8186487526    0.3860527303   -0.8231668320
 H   -4.3571745237   -2.8372989835   -0.4872831982
 H   -1.9816376328   -3.5911452130   -1.4437880530
 H   -2.0382238897   -1.9284964910   -2.0854753065
 H   -0.3749245696   -2.7196585305    0.2649520882
 H   -2.6657539231   -2.7686163478    1.9107221529