19

 C   -0.6270741551    1.1634506446    0.2766514205
 C   -0.3489680996   -0.2549675710    0.1096137899
 C   -0.1236172167   -1.4298635150   -0.0326033012
 C    0.1545384130   -2.8449761401   -0.1976904671
 C    0.7103300110   -3.6149879847    1.0335057071
 C   -0.6018023106   -4.4172385255    0.9619096455
 C   -1.6075829460   -4.2239972660    2.0850677475
 O   -2.8941970516   -4.6313270824    1.6672535482
 O   -1.0407774628   -3.6808035706   -0.2131391557
 H   -0.3299155836    1.5147844858    1.2707866837
 H   -0.0905109003    1.7647473863   -0.4652514866
 H   -1.6968020941    1.3682442131    0.1587553199
 H    0.7321895046   -3.0097157955   -1.1156034913
 H    1.6210672151   -4.1810877400    0.8379523736
 H    0.8387514323   -3.0082853560    1.9308770996
 H   -0.4990050101   -5.4830284179    0.7257891021
 H   -1.3354671864   -4.8370308600    2.9521980587
 H   -1.5989141221   -3.1671605916    2.3988709464
 H   -3.0560370069   -4.1654411036    0.8369281393