20

 C    0.1695827787    1.5197496619    0.1641452785
 C   -0.0966636828    0.0242407474   -0.0547336270
 C    0.5942490372   -0.5217441577   -1.2748487944
 C    0.2084693793   -0.2103055145   -2.7325687588
 C    0.5706915088   -1.6808052257   -3.1260831939
 C    0.9611454762   -1.9480440104   -1.6700188059
 C    2.0456438618   -0.9802755758   -1.2231012933
 C    3.0580140867   -0.4855274660   -2.1164706951
 N    3.8565546199   -0.0801231893   -2.8498541721
 H    1.2376791107    1.7135311792    0.3051943340
 H   -0.1637193849    2.1100762797   -0.6955308489
 H   -0.3610013968    1.8868710982    1.0474896750
 H    0.2219053095   -0.5435660025    0.8286189464
 H   -1.1767083471   -0.1461657363   -0.1550265575
 H   -0.8591782431   -0.0040306374   -2.8375535156
 H    0.7734837532    0.5861963431   -3.2234381845
 H   -0.3044674463   -2.2548429319   -3.4354356130
 H    1.3625706063   -1.8123623311   -3.8680583896
 H    0.8201834527   -2.8733891989   -1.1229046737
 H    2.4069286800   -1.1629229820   -0.2152207607