15

 O   -0.1811480523    1.3841106933   -0.1210679675
 C   -0.0539320011    0.0392853717   -0.1566001073
 C   -0.0259368083   -0.8896439329   -1.1770591141
 C    0.1349015765   -2.1190058980   -0.5001183936
 N    0.1994026239   -1.9731536198    0.8159608220
 N    0.0769331833   -0.6289270683    1.0148032439
 C    0.1332360529   -0.0936155668    2.3506885629
 C    1.4973726102   -0.3092994314    3.0055447394
 O    1.6893224659   -0.1370517992    4.1778386198
 H   -0.2757967373    1.7118704122   -1.0206083311
 H   -0.1110208516   -0.7060188137   -2.2355100362
 H    0.2049313557   -3.1076027939   -0.9304187370
 H   -0.0646967101    0.9813242901    2.3030981160
 H   -0.6342994482   -0.5528482130    2.9806846393
 H    2.2996015205   -0.6277276803    2.3054902933