23

 C    0.0141177184    1.5405051477    0.0325487293
 C    0.0079167230    0.0393337117   -0.0445093099
 C    0.0410626416   -0.6315940676   -1.1955814856
 C    0.0623754930   -2.1309660805   -1.2592088445
 O    0.2910677596   -2.7514276632   -0.0095369690
 C   -0.4279534443   -2.1906632030    1.0980399090
 C   -1.9461687083   -2.3265695207    0.8913487741
 C    0.0182958512   -3.0182227599    2.3029136622
 C   -0.0191547200   -0.7122716007    1.2666822249
 H    0.8671801359    1.9017567662    0.6219059253
 H    0.0703054337    1.9969983260   -0.9594932997
 H   -0.8880308986    1.9161342714    0.5327452091
 H    0.0471699529   -0.1061544522   -2.1480397005
 H   -0.8734821937   -2.5000828608   -1.7177515342
 H    0.8761950595   -2.4722250867   -1.9118501370
 H   -2.1982859703   -3.3621548149    0.6443438810
 H   -2.4812800217   -2.0520653027    1.8057484842
 H   -2.3065581240   -1.6784438151    0.0878916662
 H    1.1082525300   -2.9991472747    2.3890121567
 H   -0.4136127144   -2.6210610765    3.2267423845
 H   -0.2975779163   -4.0594383046    2.1905961946
 H    0.9724813846   -0.6583354056    1.7376090141
 H   -0.7087108519   -0.2187566137    1.9647299152