18

 C   -0.0965176070    1.3699978039    0.1911842548
 C    1.4168668347    1.4907300380   -0.1641082685
 C    2.3240718216    0.2332146925   -0.0291529804
 C    2.2607437456   -1.0054342842    0.8822046308
 C    1.1831055699   -2.0097905917    0.3387473761
 C   -0.0658313376   -1.1671185427    0.2957480286
 C    0.0295042114   -0.0280526644   -0.3946529734
 C    1.3157407970    0.3295857982   -1.1334681639
 H   -0.4194126648    1.4536211688    1.2342048604
 H   -0.6489841234    2.0894722956   -0.4244282594
 H    1.9025940699    2.4459611444   -0.3399572309
 H    3.3380616809    0.5051871439   -0.3185393583
 H    3.2498717396   -1.4794316164    0.9004928047
 H    2.0178705798   -0.7495352252    1.9193151673
 H    1.4968489711   -2.3644710834   -0.6483177898
 H    1.0849725164   -2.8814992841    0.9906677638
 H   -0.7854978906   -1.2627116585    1.1063520209
 H    1.5102464855    0.2837094753   -2.1973955129