17

 C   -0.1516598362    1.5063964009   -0.0523474804
 N    0.1116473721    0.0834614953    0.0085414337
 C    0.7691277491   -0.5241162878   -1.1744079735
 C    1.3270918096   -1.8976575817   -0.6927273014
 C    1.4832198410   -1.6249666132    0.7755626969
 N    2.0785557025   -2.1776974966    1.7929394934
 O    1.7597019452   -1.3513057544    2.8719933711
 C    0.9703818731   -0.3159116774    2.4470003624
 C    0.7624867217   -0.4534837833    1.1154573029
 H    0.7698161719    2.1116600325   -0.1073019635
 H   -0.7622992689    1.7282274080   -0.9324665594
 H   -0.7151936861    1.8149810894    0.8326291069
 H    0.0563130826   -0.6183416672   -1.9983659477
 H    1.6007400139    0.1146760291   -1.5162439372
 H    0.5992408301   -2.6992485911   -0.8600708174
 H    2.2523270996   -2.1724299696   -1.2024803670
 H    0.6811892688    0.3883890270    3.2082661500