15

 N   -0.1137063062   -1.1596323079   -0.2638412558
 C   -0.0579465106   -0.0168213375   -0.0952717717
 C    0.0300426370    1.4228609582    0.0758625419
 C   -0.4219102580    2.2947741790   -1.1354785256
 N    0.7898250889    3.1502151382   -1.0045853078
 C    1.3512905327    2.2795285146    0.0521934073
 C    0.9618621159    2.7766613760    1.4613200269
 N   -0.2512575968    1.9097922717    1.4365489220
 H   -0.4733229780    1.7207029709   -2.0668225799
 H   -1.3682254725    2.8298489669   -0.9967074188
 H    1.3502222336    3.1619605883   -1.8478010808
 H    2.3466606914    1.8687578913   -0.1155291455
 H    1.6415719226    2.4970511833    2.2732569898
 H    0.7799705274    3.8550069977    1.4862298449
 H   -1.1454099474    2.3737912893    1.5531129732