12

 N    0.0136719099    1.3268699194    0.0524573951
 C    0.0659948689   -0.0208989418    0.0143028419
 N    1.1882365417   -0.6475391433   -0.0019517075
 C    1.1475570007   -2.0203390596   -0.0124842745
 N    2.2604080817   -2.7573920192   -0.0468265760
 N    1.7503598293   -3.9834901469   -0.0451174088
 N    0.4286666001   -4.0442162343   -0.0120624108
 N    0.0230058433   -2.8043793767    0.0093829623
 H    0.8721316038    1.8508731564   -0.0040835121
 H   -0.8591286259    1.8133116931   -0.0368746749
 H   -0.9073231159   -0.5189318541    0.0134056855
 H    2.3247253326   -4.8118930031   -0.0656562701