20

 N    0.3391576471   -1.1807262314    0.0990552153
 C    0.1781207903   -0.0356911387    0.0488418954
 C   -0.0386719125    1.3883363625   -0.0310189044
 C   -1.1253454698    1.8144866852   -1.0175392429
 C   -2.4924508005    1.2400036850   -0.7092037488
 C   -3.4399481099    1.9496562246    0.2257175975
 C   -3.7315993657    1.9006804512   -1.2543722828
 C    0.1734949437    2.1817716706    1.2501318052
 C    1.1884943963    2.2701221347    0.1501653413
 H   -1.1743167048    2.9101413763   -1.0143385875
 H   -0.8173873528    1.5182884149   -2.0284142156
 H   -2.5141479005    0.1543047130   -0.6695215791
 H   -4.0497711438    1.3523726710    0.8941017600
 H   -3.1282704927    2.9008994931    0.6450550602
 H   -3.6100011344    2.8167427282   -1.8239001964
 H   -4.5409687571    1.2689668026   -1.6026200404
 H   -0.4929841916    3.0212314225    1.4111281151
 H    0.4346552024    1.6331384951    2.1468981226
 H    2.1447388991    1.7813865896    0.2923343256
 H    1.2240730074    3.1698209200   -0.4542266003