18

 O   -0.0337112086    1.4465311948   -0.0402458697
 C    0.0368166937    0.0339807380    0.0083721236
 C    0.6426827230   -0.5492669703    1.3255162690
 C   -0.5609473384   -1.3187192871    1.9244144071
 C   -1.6099532088   -0.3152783258    2.4387882461
 C   -2.1813198642    0.2214656857    1.1130806411
 O   -3.0534889445    1.0291443984    0.9632503315
 C   -1.4067005807   -0.5530107919    0.0331666106
 N   -1.2778805306   -1.8487492716    0.7323602298
 H    0.8606762328    1.7969228987   -0.0909203898
 H    0.5691022733   -0.3561668700   -0.8709578239
 H    1.4727263507   -1.2316712975    1.1183452441
 H    1.0151526169    0.2514820743    1.9713346527
 H   -0.2993930535   -2.1030262591    2.6353657781
 H   -2.4042242991   -0.8145827980    3.0010185156
 H   -1.2086988837    0.4964343897    3.0500986350
 H   -1.9115948609   -0.5959082483   -0.9297261776
 H   -0.6795649074   -2.4819943099    0.2057486666