23

 C    0.0450346725    1.5548602560   -0.0773924319
 C    0.0025222090    0.0384675114    0.1286031717
 C   -1.3608200038   -0.5764163583   -0.2111349067
 C   -1.4078269289   -2.0851396220   -0.0014118625
 C   -1.4578008564   -2.6072155240    1.4552985263
 O   -2.7179305414   -3.2763348442    1.2242665784
 C   -2.7609279272   -2.7912029768   -0.1184962825
 C   -4.0396576906   -2.3350974627   -0.7427842276
 C   -3.3439967407   -3.6036872974   -1.2242263072
 H    1.0290052155    1.9645706178    0.1708503618
 H   -0.1729568934    1.8188237483   -1.1182977868
 H   -0.6951840386    2.0606292276    0.5523948341
 H    0.7770133830   -0.4385680508   -0.4866390492
 H    0.2577825428   -0.1958649877    1.1706521113
 H   -2.1426537726   -0.1025118133    0.3973802404
 H   -1.6086776026   -0.3481814581   -1.2571473445
 H   -0.6280610536   -2.5730118153   -0.5958484893
 H   -0.6721422576   -3.3117738499    1.7498916841
 H   -1.5484699074   -1.8272248474    2.2227909472
 H   -4.9420474381   -2.4557672870   -0.1528189676
 H   -4.0301170090   -1.4600377484   -1.3846942267
 H   -2.8538495329   -3.5920852282   -2.1929961653
 H   -3.7942279078   -4.5528791794   -0.9536083075