21

 C    0.0618534103    1.4796015922   -0.0604076140
 C    0.0948091345   -0.0540011989    0.0614718110
 C    0.7237488922   -0.4414893723    1.3845683246
 O    1.7043848896   -1.1255412548    1.5225440428
 C   -1.3212420013   -0.6493395640   -0.0108840256
 C   -2.1355530830   -0.5283316016   -1.3492870449
 C   -2.3410989413   -2.0482501155   -1.3369447682
 C   -1.0115499354   -2.7418839301   -1.3736483729
 C   -1.4958753346   -2.1756319247   -0.0668935912
 H    1.0712460439    1.9013083224   -0.0706966085
 H   -0.4411024357    1.7802341789   -0.9840311685
 H   -0.4839847533    1.9298917050    0.7769248594
 H    0.7215819134   -0.4791911477   -0.7289626831
 H    0.1835493769   -0.0304193654    2.2735440264
 H   -1.9176249176   -0.2348493110    0.8101121116
 H   -3.0547077952    0.0482393542   -1.2281916162
 H   -1.5913439806   -0.1371726889   -2.2163039458
 H   -3.2637229350   -2.5550035720   -1.5909220261
 H   -1.0489589275   -3.8244357589   -1.4387580425
 H   -0.1729043748   -2.2988692655   -1.9055694385
 H   -1.6539961556   -2.8120605414    0.7956294803