13

 O   -0.2540169989    0.6364792625    0.9911659441
 C    0.0104698862    1.2215589505   -0.0222149717
 C    1.4239371033    1.6902742934   -0.3684850665
 N    1.4242292370    2.8452301119   -1.2371050216
 C    1.1730045112    4.1447834326   -0.9401392722
 C    1.2414166156    4.7852782126   -2.1528503109
 N    1.5196904288    3.8646169749   -3.1169181677
 N    1.6267907232    2.6917343408   -2.5658418493
 H   -0.7496780996    1.4527018570   -0.8000173188
 H    1.9806901044    1.8870146420    0.5507822757
 H    1.9263404797    0.8852002215   -0.9153937379
 H    0.9858334020    4.4847996153    0.0646733929
 H    1.1148982668    5.8302017449   -2.3843412662