14

 N   -0.0134657860    1.2837751582   -0.0231761910
 C   -0.0290976233    0.0257007138   -0.0051914900
 O    1.0710953821   -0.8159233981   -0.0271451785
 C    0.4783284650   -2.1104003625    0.0089889861
 C   -0.7987356888   -2.1415703117   -0.8706972835
 N   -1.3823461346   -3.1536229597    0.0804224792
 C   -0.7425507344   -2.1160393963    0.9656133878
 C   -1.1891887338   -0.9202538802    0.0434607748
 H    0.9464323637    1.6334110542   -0.0574148629
 H    1.2174389173   -2.9056777576   -0.0025693222
 H   -0.8818747532   -2.2239765203   -1.9545998125
 H   -2.3984578760   -3.0383106883    0.1099085850
 H   -0.7592135141   -2.1682385615    2.0544408166
 H   -2.2019104239   -0.5263340500    0.0689710011