19

 O    0.0094110273    0.0496619530    0.0410157364
 C   -0.0213625084    1.2508661066    0.0251237729
 C   -1.2310027712    2.1823015490    0.0422693826
 C   -0.8136565006    3.2155811234    1.1188015417
 C    0.7549185587    3.2389090311    1.0909772179
 C    1.1586141138    2.2353548160   -0.0028865371
 O    1.1894607480    2.7988588807   -1.3223950722
 C    0.0352388960    3.5578936381   -1.6653034476
 C   -1.2743045394    2.8126105295   -1.3748967932
 H   -2.1596116544    1.6552064706    0.2657884779
 H   -1.2419637152    4.2020682554    0.9197252994
 H   -1.1763289333    2.9005713555    2.1004946055
 H    1.1639953687    4.2314942409    0.8871140806
 H    1.1652150106    2.9096960599    2.0496838695
 H    2.1281344019    1.7600550953    0.1443346257
 H    0.0419823796    4.5224712912   -1.1358889773
 H    0.1342132309    3.7752212024   -2.7323298423
 H   -1.4267821599    2.0196029909   -2.1151337005
 H   -2.1184673631    3.5079589705   -1.4560199099