17

 N   -0.1157409792   -0.9433791126   -0.6065725412
 C   -0.0091178332    0.1211042206   -0.1702980897
 C    0.1471707561    1.4672652394    0.3705413854
 C    1.4964546269    2.0890383875   -0.0098058277
 O    1.5218985961    3.3758156362    0.5688270493
 C    2.7100975746    4.0670404137    0.3227627004
 C    2.8693392734    4.8176484252   -0.9748611703
 C    2.6223115117    5.5565207000    0.3264874176
 H   -0.6626164843    2.1044333356    0.0000392699
 H    0.0577634563    1.4345248002    1.4613061819
 H    2.3198171498    1.4664104981    0.3717750853
 H    1.5991218857    2.1424812190   -1.1029953261
 H    3.5939715295    3.5954510963    0.7536150939
 H    3.8514350120    4.8686108028   -1.4314458365
 H    2.0425328617    4.7697798871   -1.6747990632
 H    1.6354341405    5.9801191794    0.4727194340
 H    3.4322789224    6.1203450214    0.7745574370