18

 C   -0.0706530483    1.5252127728   -0.1014343965
 C    0.0666781387    0.0133147755    0.0413368230
 N    0.5868911673   -0.5731297320   -1.1766311552
 C    0.7245862170   -1.9079260141   -1.3495208596
 N    0.3646726013   -2.7571073036   -0.4527957054
 C    1.3434854594   -2.2478662862   -2.7064549559
 C    1.5240027333   -3.7076613481   -3.0597268284
 O    1.6756804767   -1.3569748256   -3.4580152793
 H    0.8978932868    1.9929214332   -0.3099146629
 H   -0.7569812963    1.7846348397   -0.9141011132
 H   -0.4597181428    1.9600988274    0.8228305453
 H    0.7235599963   -0.2374196002    0.8859828457
 H   -0.9023206800   -0.4472836664    0.2690486178
 H    0.9481623872    0.0083321590   -1.9165309820
 H    0.5316099886   -3.7087669524   -0.7681640885
 H    0.5630884033   -4.2323831912   -3.0413352389
 H    1.9617611761   -3.7792839217   -4.0553745596
 H    2.1797147256   -4.2020855063   -2.3352331561