17

 C    0.0854546624    1.4134909131    0.1355786562
 N    0.0096986666   -0.0360752140    0.0489418212
 C    0.4645585655   -0.6153958388   -0.9766513455
 C    0.4409712965   -2.1164731700   -1.2146460675
 C    1.4433447578   -2.3384246317   -2.3540326355
 O    1.0354402741   -3.3153081140   -3.2762610326
 C    1.5452362215   -0.9598206902   -3.0171804310
 O    1.9582142791   -0.7437946726   -4.1324243586
 N    1.0647108903   -0.0389037806   -2.1129317239
 H    1.0536809989    1.8222314245   -0.1930833992
 H   -0.7031691385    1.8891913883   -0.4642887731
 H   -0.0678966376    1.7197538316    1.1731140390
 H    0.6595786419   -2.6636814535   -0.2982986446
 H   -0.5540870683   -2.4132809326   -1.5633657051
 H    2.4410179081   -2.5702825286   -1.9430943568
 H    1.4227533608   -3.0618871949   -4.1257045853
 H    1.0706893406    0.9501186239   -2.3110754375