17

 C   -0.0767877045    1.4463457595   -0.1431296543
 C   -0.0257843148   -0.0928293048    0.0625783293
 C    0.7205800856   -0.3536965179    1.3828031040
 O    0.2778011501   -0.9117475861    2.3460672885
 C   -1.3721274189   -0.6496927916    0.0897011496
 C   -2.4906225092   -1.0857030848    0.1174982171
 C    0.8361458886   -0.6916041278   -1.0615003416
 C    0.5401443034   -1.9597549983   -1.7332814872
 O    0.2745793910   -0.6980772183   -2.3639350932
 H    0.9303381101    1.8742975529   -0.0982613757
 H   -0.5027613350    1.6616968447   -1.1250773813
 H   -0.6946622585    1.9175237208    0.6244394736
 H    1.7580697013    0.0549233197    1.3722094969
 H   -3.4787331194   -1.4743016250    0.1482245004
 H    1.8747606382   -0.3553332023   -1.0246008817
 H    1.3532856459   -2.5356044504   -2.1716332348
 H   -0.3434834538   -2.5206502802   -1.4407581294