20

 C    0.0968630933    1.5834615568   -0.0412480746
 C    0.0453596365    0.0730683319    0.0226915890
 C   -1.3432880988   -0.5749525620    0.3294891491
 C   -0.7670275922   -1.2172829907    1.6261549312
 C    0.6541979367   -0.8031550714    1.1905800585
 C    1.2879685757   -1.7410635762    0.1226114184
 C    0.8804165253   -0.7329059033   -0.9940655223
 O    0.1523408424   -1.1983457952   -2.1098173647
 H    1.1293068180    1.9495520645   -0.0831011459
 H   -0.4248813168    1.9524528181   -0.9329192006
 H   -0.3830045569    2.0372101677    0.8333477978
 H   -2.1485468315    0.1460788691    0.4896835725
 H   -1.6635569267   -1.2836757758   -0.4360723278
 H   -1.0954746349   -0.6923663482    2.5278839880
 H   -0.9385408048   -2.2882861702    1.7731932573
 H    1.3350157937   -0.3997721085    1.9420013643
 H    2.3613698059   -1.9211531871    0.2198183024
 H    0.7780236355   -2.7054257354    0.0330451063
 H    1.7501859692   -0.1403797259   -1.3178627605
 H    0.7411408402   -1.7284394681   -2.6560144585