16

 C   -0.0339828643    1.4581739261   -0.0218983949
 N   -0.0186513826    0.0035395073    0.0326721779
 C   -0.0208470089   -0.6420156661    1.2499184559
 N   -0.0358949297   -0.0154179190    2.3593912965
 C   -0.0020428803   -0.6891511178   -1.1720795239
 C    0.0022057202   -0.1645981539   -2.4333584030
 O    0.0194631898   -1.1554686736   -3.3483583114
 N    0.0270950114   -2.3712292987   -2.6998992249
 C    0.0145310532   -2.0979518270   -1.4192353356
 H    0.8572354192    1.8302651040   -0.5406820745
 H   -0.9248332054    1.8107983975   -0.5547193076
 H   -0.0460325200    1.8321735106    0.9998179519
 H   -0.0084238204   -1.7299488513    1.1473225976
 H   -0.0347988470   -0.6717773400    3.1353981813
 H   -0.0051036569    0.8395303095   -2.8211206249
 H    0.0176059217   -2.9188268975   -0.7182844005