16

 N    0.0170332831   -1.1390646551    0.1307404368
 C    0.0249665423    0.0156121527    0.0788069091
 C    0.0133323080    1.4630999869   -0.0214518002
 C   -1.1910059649    2.0921111207   -0.7163154802
 C   -0.7533462807    3.2560930800   -1.6128678848
 O    0.1461864922    4.1218119645   -0.9443713342
 C    1.4013497902    3.5211527547   -0.7234736072
 C    1.3062722807    2.1917272768   -0.0055950420
 O    0.4827254785    2.1428740599    1.1515733282
 H   -1.7163895217    1.3401286998   -1.3122057745
 H   -1.8783668231    2.4427592986    0.0596741543
 H   -0.2890900568    2.8662893198   -2.5338328700
 H   -1.6142953739    3.8644751444   -1.9001561540
 H    1.9373233964    3.3565792497   -1.6746551758
 H    1.9848668661    4.2258144885   -0.1224307643
 H    2.2317982435    1.6197370280    0.0608951389