20

 C   -0.0159729750    1.3057736621   -0.1323131902
 C   -0.2761194267   -0.2025738266   -0.1835394919
 C   -1.7667429553   -0.5188898397   -0.3239150989
 O   -2.0500334940   -1.8983285906   -0.4924028776
 C   -1.9541863135   -2.6722641009    0.6774334741
 C   -2.5038191337   -4.0832057473    0.4524609608
 C   -3.1780275220   -4.3672502114   -0.8696644664
 O   -2.3902626871   -4.9048936143    1.3314371318
 H    1.0520793393    1.5190876123   -0.0337405056
 H   -0.3715983019    1.8014472287   -1.0424018493
 H   -0.5266402429    1.7705325310    0.7183963757
 H    0.2535526374   -0.6520761216   -1.0316306345
 H    0.1224473380   -0.6739917115    0.7225542212
 H   -2.3219247989   -0.1236109559    0.5434762670
 H   -2.1646817060   -0.0281457915   -1.2192889948
 H   -0.9197300617   -2.7758469538    1.0367145772
 H   -2.5338848279   -2.2228617376    1.5024340245
 H   -2.4776467076   -4.1883689209   -1.6916397236
 H   -3.5325438179   -5.3982319124   -0.8844676424
 H   -4.0094444525   -3.6720866782   -1.0254067073