15

 O   -0.0871073580    1.3126590604   -0.0663225469
 N    0.0200875611   -0.0858316595   -0.0525531936
 C   -1.1215673598   -0.6391248950    0.0536921688
 C   -2.4955856765   -0.0128018368    0.1888540737
 C   -3.3706829763   -1.1136694037    0.8474187397
 C   -2.6208628560   -2.4108078420    0.5955290288
 O   -2.2670733421   -2.6042853505   -0.7741296873
 C   -1.2534274903   -2.1145790091    0.1328918664
 H    0.8346490592    1.5875882566   -0.1177229258
 H   -2.4491680825    0.9086797183    0.7722849816
 H   -2.8716906589    0.2564715562   -0.8030014132
 H   -3.4520579471   -0.9533112051    1.9282892122
 H   -4.3860705507   -1.1430513845    0.4421779098
 H   -2.8623879518   -3.3136571668    1.1511009719
 H   -0.3907555502   -2.7534860084    0.2851247138