22

 C    0.0631006844    1.6150161173    0.1668004898
 C    0.0431731459    0.0866167680    0.0301717118
 C    0.7752626102   -0.5897566761    1.1984869096
 C   -1.3893542908   -0.4439924762   -0.0781481028
 C   -2.2017539051   -0.1317429606   -1.3745993803
 N   -2.2743672545   -1.5753241848   -1.6046454009
 C   -2.8525447387   -2.3633874166   -2.6599814276
 C   -1.5462639939   -1.9281509639   -0.4971906236
 O   -1.1832469427   -3.0003907019   -0.0796631782
 H    1.0914248227    1.9879286599    0.2158192031
 H   -0.4304358495    2.1079494220   -0.6775396908
 H   -0.4482309264    1.9308437519    1.0839352596
 H    0.5652421438   -0.1808048865   -0.9003174848
 H    0.7385421184   -1.6779973936    1.1071649752
 H    1.8227940711   -0.2735818218    1.2352958650
 H    0.3126420592   -0.3167587848    2.1547190596
 H   -1.9487985584   -0.2174284723    0.8362226320
 H   -3.1757680404    0.3484673629   -1.2272181463
 H   -1.6441631903    0.4104356505   -2.1483547320
 H   -2.4159210105   -2.1153484013   -3.6356873476
 H   -2.6461419877   -3.4134741221   -2.4389052690
 H   -3.9387026569   -2.2218150101   -2.7214782017