17

 O    0.0156740010    1.4008670209   -0.1406289133
 C    0.1194593629    0.0231840685   -0.0198183937
 C    0.0121381288   -0.6021941298    1.3762553201
 O   -1.4453492491   -0.1608527988    1.3907465774
 C   -1.2088274248   -0.8111056576    0.0647394493
 C   -1.9759620085   -1.3485868965   -1.1179046596
 C   -0.9875647643   -2.4862481806   -1.4513521241
 C   -0.1100375928   -2.7694992157   -0.4710626765
 C   -0.4751260814   -1.9517857943    0.7456617908
 H   -0.6903579881    1.6512384941    0.4740101154
 H    0.9045934165   -0.3346994156   -0.6855694710
 H    0.5584491449   -0.4063411275    2.2997806247
 H   -2.9665039867   -1.7453071566   -0.8602818717
 H   -2.0969337744   -0.6347899868   -1.9386384486
 H   -1.0288005925   -2.9990873298   -2.4064840936
 H    0.6374314180   -3.5526333873   -0.5219193200
 H   -1.0837373895   -2.5045337765    1.4679162244