25

 C   -0.2787767435    1.6143632375    0.0041795731
 C    0.0424244259    0.1121622970    0.0389664861
 C    0.7572745087   -0.3582406319   -1.2399246263
 C   -0.0591175807   -0.2271221860   -2.5205757739
 O    0.6871183187   -0.8346406304   -3.5672513751
 C    0.8891667659   -0.2619383079    1.2734500283
 C    0.2144174035   -0.0314012262    2.6104090541
 C   -0.7690955827   -1.0431788574    3.1469690314
 C    0.5816336472   -0.8808017874    3.8008898373
 H    0.6406422311    2.2071192186   -0.0785902276
 H   -0.9184644524    1.8748782796   -0.8440591839
 H   -0.8012374837    1.9336236650    0.9103905289
 H   -0.9081740936   -0.4361381195    0.1169917861
 H    1.6991059671    0.1920528026   -1.3663988230
 H    1.0298916851   -1.4157031296   -1.1366712495
 H   -1.0355794706   -0.7235414942   -2.3894126312
 H   -0.2595779720    0.8306793816   -2.7479015934
 H    0.2004695645   -0.7186675842   -4.3883466502
 H    1.1609958992   -1.3235050873    1.2008468130
 H    1.8364260124    0.2956704578    1.2387408620
 H   -0.0114381159    1.0063014568    2.8391364180
 H   -1.6461437682   -0.6895628144    3.6778938841
 H   -0.9400890317   -1.9400581989    2.5598551894
 H    1.3131253264   -1.6688376069    3.6531707539
 H    0.6283730793   -0.4120213144    4.7777590083