18

 N    0.6366672013    0.7268892188    0.5062894721
 C    0.2353335569   -0.0410524980   -0.5463141853
 O    0.8783388790   -0.1227953657   -1.5767538162
 C   -1.0584603210   -0.8085137410   -0.3206626315
 C   -1.7647443352   -1.3277008297   -1.5860683794
 O   -1.7221855952   -2.6964990337   -1.1188186905
 C   -0.9409130919   -2.3236471028    0.0415799772
 C    0.4197481737   -3.0028634475   -0.0154633616
 O    0.2379123294   -4.4052539925   -0.0687733347
 H    1.5067005303    1.2282158523    0.4296076146
 H    0.1044798799    0.8050254914    1.3546023048
 H   -1.7179007840   -0.2730572700    0.3657684809
 H   -2.7928251708   -0.9842887303   -1.7396995511
 H   -1.1739232365   -1.1812821321   -2.4951743477
 H   -1.4601824392   -2.6115463480    0.9638745687
 H    0.9850906128   -2.6295865247   -0.8800880257
 H    0.9963692761   -2.7853088035    0.8908678605
 H   -0.3470151456   -4.5632764831   -0.8205167551