19

 C    0.1840575009    1.4581119509    0.2199645838
 C    0.0125692355   -0.0524636992    0.0981640168
 O    0.5752567177   -0.7448950057    1.2118741672
 C   -1.4628068291   -0.4597954781   -0.1250247488
 O   -1.9498576530    0.1733187200   -1.2884824476
 C   -1.7141547498   -2.0001156975   -0.0015481417
 C   -2.3010265830   -1.8042217635    1.4324417597
 C   -2.3796789558   -0.3145368947    1.1077058290
 O   -3.0692421366    0.6025704696    1.4638425735
 H    1.2417640990    1.7067636575    0.3438890583
 H   -0.1914926881    1.9582679329   -0.6746980441
 H   -0.3719028869    1.8471411209    1.0822215262
 H    0.5620861229   -0.4112437691   -0.7814793933
 H    0.4703598209   -0.1889342502    1.9910511891
 H   -2.6179119940    0.8108189720   -1.0074020934
 H   -2.4638445749   -2.3218295629   -0.7257258425
 H   -0.8259339432   -2.6276313255   -0.0671838843
 H   -3.2451550613   -2.2881767866    1.6914798967
 H   -1.5573062413   -2.0090657507    2.2071163354