19

 C   -0.0358421164    1.3600712751    0.2289356737
 C   -0.0018203939   -0.0862312899    0.0673311633
 C    0.0334497436   -1.2838060433   -0.0561372000
 C    0.0651150457   -2.7473413781   -0.2194512232
 C    0.7485913691   -3.1267306066   -1.5420442435
 O    0.8064946053   -3.3577398464    0.8576557420
 C   -0.0663746256   -4.0798466204    1.7198966025
 C   -1.3955746137   -4.0839521817    1.0193994519
 C   -1.3280598762   -3.3347582412   -0.0720208951
 H    0.6542642227    1.6836843975    1.0160014837
 H    0.2535476442    1.8723091829   -0.6953277052
 H   -1.0376457915    1.7088343959    0.5032620926
 H    1.7806298199   -2.7675823247   -1.5399613277
 H    0.7488267678   -4.2140461833   -1.6551243145
 H    0.2251344509   -2.6754070590   -2.3897670676
 H    0.3394970920   -5.0897235236    1.8770447402
 H   -0.1261202058   -3.5955437228    2.7085680430
 H   -2.2622639713   -4.6155133483    1.3917062612
 H   -2.1191757067   -3.1143822420   -0.7761992473