19

 C    0.0107624143    1.4911351092   -0.0632866195
 C   -0.0316865698   -0.0148968407    0.0190285219
 C   -0.8389438858   -0.7225933853    1.0561578615
 C    0.6941878933   -0.7411104951    1.1451491738
 C    1.4765876298   -1.9751778927    0.8462008399
 O    2.2759699714   -2.4328993486    1.6331114264
 C    1.2731102215   -2.5508519232   -0.5481911578
 C    1.1162344927   -1.4008442912   -1.5515689138
 O   -0.0348329474   -0.6299816783   -1.2476175431
 H    0.9367398964    1.8287072418   -0.5401110634
 H   -0.8316358548    1.8583315271   -0.6578569843
 H   -0.0467584291    1.9408578748    0.9319712284
 H   -1.3537287511   -0.1497934064    1.8193709270
 H   -1.3391848411   -1.6330550571    0.7476773012
 H    1.1252065732   -0.1439265885    1.9414899371
 H    2.1237354630   -3.1958357097   -0.7832508107
 H    0.3627470202   -3.1623959681   -0.5738047255
 H    2.0207599548   -0.7730371002   -1.5544439832
 H    0.9659890585   -1.7783587777   -2.5664464060