20

 C    0.0075469250    1.4962732959    0.0338688773
 C    0.0038884829   -0.0007449692   -0.0095711344
 C   -0.0738699301   -0.7663717904   -1.1038105563
 C    0.0617649290   -2.2451758951   -0.8531144037
 C    1.4188221156   -2.3974477559   -0.0944695820
 N    0.7227462966   -2.1626659240    1.2000955404
 C   -0.5692487864   -2.6448095313    0.5418761840
 C   -1.3480854012   -1.5778100295    1.3031322248
 C    0.0009537669   -0.7959863221    1.2782807140
 H    0.9267650487    1.8777044020    0.4968096262
 H   -0.0706683387    1.9250499565   -0.9692604648
 H   -0.8254376562    1.8843156694    0.6347885713
 H   -0.1191808009   -0.3703484997   -2.1134251967
 H   -0.1487931465   -2.8739107021   -1.7200603746
 H    1.7931140990   -3.4267818119   -0.0814696270
 H    2.2252317301   -1.7080339968   -0.3589805328
 H   -0.8272896323   -3.7025523387    0.6455292503
 H   -2.2173219111   -1.1003402561    0.8484173178
 H   -1.5850779745   -1.9440394659    2.3051280261
 H    0.2894066242   -0.2168470351    2.1572853001