21

 C   -0.0591253133    1.5510598005   -0.0406458132
 C   -0.0757772990    0.0506162947    0.1060885250
 O    1.1425251495   -0.6485430141   -0.1700242858
 C    0.6304091167   -0.6661192483    1.1818073537
 C    1.4527533955   -0.0007841421    2.2918164717
 C    1.6181961614   -1.0788234230    3.4030549212
 C    1.2605700138   -0.5729698387    4.8075055351
 C    0.7283713932   -2.2061177525    2.9250564832
 C    0.1937989859   -1.9780532892    1.7266371778
 H    0.8342100489    1.9854810249    0.4139018504
 H   -0.0731971925    1.8308127766   -1.0993751916
 H   -0.9430546368    1.9920588630    0.4334995643
 H   -0.9604360505   -0.4346581030   -0.3151606535
 H    2.4095611712    0.3484674998    1.8975759610
 H    0.9245594534    0.8719958991    2.6911570296
 H    2.6578019234   -1.4349347269    3.4331719096
 H    0.2283957579   -0.2069221933    4.8388282229
 H    1.3569832709   -1.3698458726    5.5526661056
 H    1.9204320810    0.2473389100    5.1086577404
 H    0.5704733789   -3.0995718966    3.5207850353
 H   -0.4543743594   -2.6458504481    1.1713427573