18

 C    0.0314889999    1.6260737323    0.1635354268
 C   -0.0597645937    0.0992211340   -0.0051762026
 C    0.6913727980   -0.6087848885    1.0344578377
 C    1.3183376959   -1.1572734025    1.8998827149
 C   -1.4936637311   -0.3785941801   -0.0326955879
 N   -2.5228746840    0.3203341621    0.2119952666
 C   -3.6806720153   -0.5719065975    0.0461661592
 C   -3.0654336414   -1.9503919705   -0.3122669161
 O   -1.6455020917   -1.6866653485   -0.3724429751
 H    1.0785326560    1.9371628250    0.1527902781
 H   -0.5029351537    2.1268627240   -0.6464324569
 H   -0.4203674101    1.9319065449    1.1084573410
 H    0.3725256837   -0.1811480553   -0.9763550409
 H    1.8706271980   -1.6534871021    2.6589647738
 H   -4.2651500719   -0.6012546478    0.9712340083
 H   -4.3374364104   -0.1858467038   -0.7407740451
 H   -3.2390979388   -2.7165430704    0.4486761030
 H   -3.3830359794   -2.3374359454   -1.2840424048