17

 C   -0.0618719488    1.0450145306   -0.8085643557
 C   -0.1463510769    0.3296138498    0.5523523385
 C   -1.3327167908   -0.5095662198    0.6804364322
 C   -2.3185896604   -1.1947800331    0.7620023444
 C   -3.5010000585   -2.0310228991    0.8518588621
 C   -3.8246397357   -2.8045757843   -0.4200855432
 O   -3.1977041963   -2.7704025416   -1.4484671588
 C   -5.0705557838   -3.7010554632   -0.3549418828
 O   -5.7646895204   -3.8062943793    0.6213739154
 H    0.8444702418    1.6553826051   -0.8617220831
 H   -0.0406680631    0.3200060831   -1.6262844073
 H   -0.9265921872    1.6969058207   -0.9588128866
 H    0.7502365090   -0.2859623895    0.6996760800
 H   -0.1375100393    1.0725084176    1.3602747791
 H   -3.4214445197   -2.7673738995    1.6644794915
 H   -4.3973594638   -1.4493625872    1.1109781747
 H   -5.2592140261   -4.2401726303   -1.3069626706