20

 C    0.0012115244    1.4434184680    0.1081170932
 N   -0.1664543994    0.0253303121   -0.1278134347
 C    0.5427213513   -0.6385034093   -1.1201279844
 C    1.2000954650    0.0428826126   -2.1534705089
 C    1.8577536076   -0.6780168565   -3.1482444253
 C    1.8844579547   -2.0656652745   -3.1353186154
 C    1.2387660859   -2.7644583136   -2.1057199080
 C    1.2593623592   -4.2739722611   -2.0776543951
 C    0.5798271083   -2.0453762455   -1.1165654603
 H    1.0495008389    1.7403597122    0.2711553848
 H   -0.3840486569    2.0259608099   -0.7364217819
 H   -0.5781925148    1.7243430712    0.9905702927
 H   -0.3238420455   -0.5233727869    0.7023229425
 H    1.1995409840    1.1253097433   -2.1855347406
 H    2.3619039536   -0.1373906131   -3.9436025234
 H    2.4046566886   -2.6112386100   -3.9161630023
 H    2.2856611837   -4.6578847032   -2.0599772237
 H    0.7393021904   -4.6670505583   -1.1999321417
 H    0.7774964993   -4.6941119320   -2.9679639341
 H    0.0719601818   -2.5796729251   -0.3166792534