27

 C    0.1076293197    1.5138922810    0.0519582044
 C   -0.0582558542   -0.0163300964   -0.0056761064
 C   -1.5530352262   -0.3568856085   -0.0666914526
 C    0.7125664571   -0.5895331743   -1.2235419508
 C    2.1407992009   -0.8090850980   -0.7134338454
 C    1.9659732054   -1.3630740229    0.7248078201
 C    1.7947743083   -2.8932594212    0.6843267114
 C    3.1642468184   -1.0158366080    1.6179075612
 C    0.6472336129   -0.6838069485    1.2200709876
 H    1.1621238285    1.8079740121    0.0763750257
 H   -0.3520280997    1.9930234758   -0.8200286301
 H   -0.3687292407    1.9250422733    0.9490229496
 H   -2.0222167631    0.0755842010   -0.9581531839
 H   -1.7107442595   -1.4405013557   -0.0988088691
 H   -2.0863199499    0.0321885900    0.8083001937
 H    0.2708039909   -1.5465423388   -1.5266989849
 H    0.6625693195    0.0712227404   -2.0954847421
 H    2.7275305826   -1.4807692337   -1.3490181634
 H    2.6791328591    0.1459503962   -0.6815129641
 H    2.7002080738   -3.3810093110    0.3055103177
 H    1.5951029437   -3.2907370734    1.6857418315
 H    0.9610821295   -3.1922420255    0.0404262887
 H    3.3111140123    0.0680691112    1.6787906080
 H    3.0229211446   -1.3912815100    2.6379327520
 H    4.0895336382   -1.4570440451    1.2292589316
 H    0.8616442051    0.0651878112    1.9898265654
 H   -0.0088573273   -1.4243715710    1.6897508241