13

 N    0.0565157503    1.3536121832   -0.1005914293
 C   -0.1014646036   -0.0165430963    0.0085204465
 C   -1.1740597299   -0.8236878601    0.1593531638
 N   -0.7719248649   -2.1569484604    0.2466369237
 C    0.5109441274   -2.0810203178    0.1289916711
 O    1.4226065554   -3.0711969391    0.1391300051
 C    0.9740745343   -4.3578434537   -0.1079813359
 O    1.7181187276   -5.2782758071   -0.0242535984
 O    1.0285768356   -0.8597969928   -0.0151992512
 H    0.5398288989    1.7663472875    0.6904482113
 H    0.5284149020    1.6344312843   -0.9535797044
 H   -2.2113303594   -0.5373691758    0.2201939047
 H   -0.0906167438   -4.3790714520   -0.3749674571