20

 C   -0.0301316506    1.5109125136    0.0166936341
 C    0.0226013687   -0.0018484472    0.0437740953
 C    0.7125906276   -0.6847572377   -1.1882506876
 C    0.9482416442   -2.1541471865   -0.7196026051
 C    0.3449774797   -2.1308598909    0.7095005268
 C    0.7448466442   -0.7276269457    1.2015799560
 N   -1.1081954581   -1.9419676114    0.6071023039
 C   -1.3592789134   -0.6836246529    0.0953481290
 O   -2.4231475990   -0.2496417813   -0.2858288607
 H    0.9688471459    1.9400005226   -0.1133991631
 H   -0.6661483299    1.8523604221   -0.8051881018
 H   -0.4548820071    1.9077393431    0.9440948609
 H    0.0951783316   -0.6128042971   -2.0870916037
 H    1.6587014503   -0.1761806251   -1.3973552708
 H    0.4470705061   -2.8905602841   -1.3530090675
 H    2.0122585266   -2.4080546065   -0.6937575810
 H    0.6012101316   -2.9761350944    1.3484290323
 H    1.8267448171   -0.5654115002    1.2016900933
 H    0.3343337931   -0.4931148394    2.1868120111
 H   -1.7433465086   -2.6990608310    0.4005232584