21

 C    0.0706302693    1.5470894309    0.0198206173
 C   -0.0423940354    0.0470640552   -0.0700284574
 C    0.3266390774   -0.7350154558   -1.3248162378
 N   -0.5988179665   -1.8387722128   -0.8893632264
 C    0.2064406859   -2.7595061567   -0.0652632557
 C    1.0622496084   -1.9360960516    0.9468138611
 N    0.3851973711   -0.6597317033    1.2403750389
 C   -1.0630048404   -0.9930581089    1.4894301312
 C   -1.3293940838   -0.8253212211    0.0041640450
 H    1.1241021533    1.8450052804    0.0669396817
 H   -0.3832611327    2.0275085873   -0.8536577752
 H   -0.4181315304    1.9316591726    0.9200121384
 H   -0.0603807981   -0.2470402096   -2.2269064498
 H    1.3650988760   -1.0321445076   -1.5053984254
 H   -0.4660737547   -3.4552101012    0.4449421081
 H    0.8368255613   -3.3590843549   -0.7309643421
 H    1.2045256801   -2.4782527457    1.8882873505
 H    2.0596874774   -1.7212225275    0.5520193948
 H   -1.2452750545   -1.9563044201    1.9754256681
 H   -1.5432128313   -0.2066639800    2.0814749414
 H   -2.3126686425   -0.5617053795   -0.3943628466