15

 O   -0.0192307649    0.5337344287    0.2266851714
 C    0.4678709246    1.3601366276   -0.4938129061
 C    1.9668054199    1.6282827480   -0.5432155904
 O    2.2895162617    2.7785267729   -1.3313797666
 C    1.9147031714    3.9550611049   -0.7943761271
 O    1.3135565065    4.0559663799    0.2433945077
 C    2.2929683973    5.1388561835   -1.6802707487
 C    3.5565279443    5.0174758616   -2.3911157117
 C    4.6025221473    4.9451743867   -2.9756531536
 H   -0.1342149362    1.9658416018   -1.2068132481
 H    2.3478187774    1.7284928704    0.4761418459
 H    2.4655184067    0.7901230399   -1.0374904438
 H    1.4693080683    5.2665995312   -2.3966516615
 H    2.2798873139    6.0227804907   -1.0363239923
 H    5.5280336319    4.8718181923   -3.4912198950