15

 C   -0.7264930653    1.3631092902    0.2525625393
 C    0.0448332438    0.0863761591    0.0013716497
 N    0.4589912305   -0.5603106691    1.1217481874
 N    0.3656062168   -0.4505494978   -1.1291428452
 C    0.1022201505    0.1184823725   -2.3386020512
 N    0.2653921635   -0.5984034054   -3.4368659923
 O   -0.0610384290    0.2971471560   -4.4667365091
 C   -0.3755460246    1.4469578462   -3.8783550129
 N   -0.3042522268    1.4317836478   -2.5897706047
 H   -0.1387641381    2.2256239632   -0.0675536936
 H   -1.6417482842    1.3782616415   -0.3406305468
 H   -0.9776856886    1.4727346361    1.3107250059
 H    0.1113395077   -0.3082599613    2.0285229972
 H    0.9111915104   -1.4529863402    1.0057516825
 H   -0.6526430265    2.2703644410   -4.5216862162