20

 C   -0.5211640165    1.3880475904   -0.1208975127
 C   -0.0439597622   -0.0716677130    0.0390332686
 C    0.9076586492   -0.1877935028    1.2503550661
 C   -1.2626783808   -1.0297061990    0.2129944315
 N   -2.0643529378   -0.7719971050    1.3966808609
 C   -3.2732123671   -0.1454943306    1.3535632903
 O   -3.7847141100    0.3203336235    0.3584596941
 C    0.6603635948   -0.4978577757   -1.1738416340
 C    1.2259133213   -0.8653415741   -2.1692599009
 H    0.3329043570    2.0505788162   -0.2850662910
 H   -1.2064223579    1.4861695809   -0.9656175885
 H   -1.0444608489    1.7153133063    0.7815769989
 H    0.3949783689    0.1241783787    2.1660317759
 H    1.2633590946   -1.2149914873    1.3773438848
 H    1.7805176197    0.4562427089    1.1161621592
 H   -1.9258670140   -0.9284006482   -0.6480674866
 H   -0.8988647441   -2.0617407516    0.2459966165
 H   -1.7626508669   -1.1458988692    2.2817991795
 H   -3.7494975230   -0.1066790333    2.3536937089
 H    1.7280136138   -1.1791235053   -3.0508778515