14

 N    0.0820530921    1.2562404263    0.4485389263
 C   -0.0783841497   -0.0285381348    0.0376524966
 N   -1.2575663364   -0.5698765610    0.1100065684
 C   -1.4696704828   -1.9216546630   -0.0928260115
 N   -2.4843640096   -2.4624080932   -0.6436592922
 C   -0.4724168823   -2.8286436741    0.5555984789
 N    0.7928558337   -2.7756623682    0.3789440646
 C    1.3776512940   -1.8024482305   -0.4062970369
 N    1.0925896190   -0.5543705009   -0.5128247066
 H    0.8998486926    1.7496470273    0.1345003530
 H   -0.7462121697    1.7815238008    0.6728022388
 H   -3.0898986379   -1.7342433873   -1.0325444273
 H   -0.8640795061   -3.5915910715    1.2305544187
 H    2.2719294434   -2.1476871798   -0.9253626208