15

 O    0.0430456091    0.0124318788   -0.1564649255
 C    0.0138776827    1.1931133967    0.0246425412
 C   -1.0856439988    2.2789327959    0.0375021417
 C   -1.2880940202    2.8727057853    1.4398713102
 C    0.0623981295    3.1471889920    2.0630598111
 C    1.1769960411    2.8878337788    1.3785546476
 C    1.0256433818    2.3592184477   -0.0328363591
 N   -0.0846428461    3.1505154834   -0.6954934370
 H   -2.0226169159    2.0745100039   -0.4849920730
 H   -1.8860058205    3.7914213824    1.3772878649
 H   -1.8601957478    2.1677221150    2.0578604540
 H    0.0937602137    3.5496413818    3.0710863877
 H    2.1686963826    3.0275600306    1.7938187448
 H    1.9566875904    2.2593077617   -0.5905254541
 H   -0.1081875615    2.8835180058   -1.6796894546