9

 O   -0.0162164399    1.3181617678    0.0093419115
 N    1.3367527238    1.7727196296   -0.0010315471
 C    2.0840005471    0.7121031240   -0.0140759627
 N    1.3115337935   -0.4218843032   -0.0130007507
 N    1.3211464381   -1.7892039738   -0.0206143745
 N    0.0651375481   -2.1109308828   -0.0107202216
 N   -0.7896190793   -1.0360395149    0.0035431801
 C    0.0276853069   -0.0143945617    0.0014668591
 H    3.1614633819    0.7424839850   -0.0241441307