23

 C   -0.0726194735    1.5636392019   -0.0290269586
 C   -0.0303823778    0.0319290062   -0.0019624501
 C    0.6590721122   -0.5459624452    1.2365974662
 C   -0.0310643282   -0.2449428208    2.5920324117
 C    0.4566166681   -1.3479175134    3.5332976757
 C   -0.2599189319   -2.6689653264    3.4761308023
 C    1.0072549000   -2.4784329625    2.6813398538
 C    0.8534383642   -2.0904629852    1.2133602888
 O   -0.2567114608   -2.7923694256    0.6530926724
 H    0.9367650633    1.9881294457    0.0119923959
 H   -0.5509638208    1.9305202598   -0.9425306675
 H   -0.6341679438    1.9626604116    0.8216196436
 H   -1.0527628630   -0.3621985110   -0.0555882656
 H    0.4901011455   -0.3236640507   -0.9036591426
 H    1.6737701427   -0.1259747338    1.2952633796
 H    0.2315740464    0.7482145896    2.9664604574
 H   -1.1229477782   -0.2652166091    2.4853662275
 H    0.9480579308   -1.0647166681    4.4573943103
 H   -0.2015918842   -3.3161540407    4.3449608154
 H   -1.1930917330   -2.7316152885    2.9283563072
 H    1.8914187807   -3.0314166583    2.9756317408
 H    1.7643036853   -2.3477551246    0.6533764207
 H   -0.3148179741   -2.5542517012   -0.2775224451