17

 C   -0.1333807334    1.4870249278    0.0719132286
 C    0.0134588644   -0.0456018291    0.0124328523
 C   -1.3891262210   -0.6438238050    0.0378693999
 O   -1.9802413846   -0.9241914690    1.0453955297
 C    0.7963149285   -0.5159055066   -1.2424005012
 C    2.2446921964    0.0083004066   -1.3018696393
 C    0.7960575127   -1.9832413969   -1.3131686507
 N    0.7995845043   -3.1381766010   -1.3591631286
 H    0.8396246104    1.9794160119    0.1365865195
 H   -0.6518798827    1.8719679920   -0.8137051994
 H   -0.7135347929    1.7681687173    0.9543237721
 H    0.5264053734   -0.3946415636    0.9146793306
 H   -1.8662595464   -0.7627819337   -0.9637046464
 H    0.2589772128   -0.1579572180   -2.1316892821
 H    2.7622767912   -0.3980372692   -2.1739119607
 H    2.2566081884    1.0974305736   -1.3763061165
 H    2.8006585085   -0.2875227770   -0.4077662577