16

 C    0.0418386464    1.4682849795   -0.2697346594
 N    1.4438756519    1.5723807900    0.2657775381
 C    1.4507927630    0.1748818022    0.6722257994
 C    1.0255225746   -0.4734020509    2.0294739780
 C    0.9302209975   -1.7632439890    1.2566001644
 C   -0.2943990108   -0.8423920673    1.3546361872
 C    0.0421331225   -0.0252180942    0.0963050749
 O    0.5130049387   -0.9001036461   -0.9713034248
 C    1.5871580436   -1.2014713406   -0.0574972348
 H   -0.6573428924    2.1036411186    0.2831395846
 H   -0.0773760296    1.6425558795   -1.3432033639
 H    2.1678779336    1.8813387134   -0.3707012086
 H    1.2772467516   -0.2975848116    3.0650862352
 H    0.9402886052   -2.7739780162    1.6363056634
 H   -1.2403360857   -1.1640878717    1.7723040373
 H    2.4489604299   -1.6967031459   -0.5096879311