18

 C    0.1439706868    1.3290299830   -0.0105830623
 N    1.3315203648    0.4481493867    0.0333379124
 C    0.0052731397   -0.1396949982    0.0071767399
 C   -0.6793337593   -1.0242318767    1.0629010364
 C   -1.8369890177   -1.1683376755    0.0308644722
 C   -0.7203281328   -1.0007899927   -1.0405018803
 O   -0.0519446341   -2.2542023763   -1.1997037813
 C    0.6652215186   -2.6070002112   -0.0263831258
 O   -0.0255019988   -2.2908936600    1.1654702322
 H   -0.0262981326    1.9063586559    0.8942715102
 H   -0.0856913019    1.8546995671   -0.9345460386
 H    1.7623566136    0.3874754858   -0.8872188176
 H   -0.8607248759   -0.6569789115    2.0732960735
 H   -2.3594364752   -2.1251692749    0.0318999321
 H   -2.5356608782   -0.3289248072    0.0489829082
 H   -0.9439215897   -0.6141224676   -2.0366178527
 H    0.8048357589   -3.6902058519   -0.0465539922
 H    1.6396785336   -2.0997367048   -0.0263436262