17

 C    0.0660413210    1.5680564275   -0.1236607593
 N    1.5420145184    1.2399599754   -0.1218626217
 C    1.2214094874   -0.0074537321    0.4054256932
 N    1.6273775574   -0.7958711514    1.3157549965
 C    0.4198970928   -1.5199991319    1.7526295119
 C   -0.1158565836   -0.9198341104    3.0668460254
 O   -1.0342944725   -0.0570377201    2.3511637951
 C   -0.8304615370   -0.7721646279    1.1176942795
 C   -0.2201276505    0.0307379407   -0.0226955749
 H   -0.2493829375    2.1087813369    0.7722967881
 H   -0.2675383962    2.0743260213   -1.0307668774
 H    2.2049682361    1.8288870155    0.3703222683
 H    0.5139254375   -2.6062034072    1.6918439376
 H   -0.6540442433   -1.6331356159    3.7051718105
 H    0.6074343854   -0.3531676452    3.6604644312
 H   -1.7059743283   -1.3710818995    0.8457084056
 H   -0.4272351272   -0.4110695958   -0.9998878196