19

 C   -0.0862609917    1.5530873541   -0.0577095152
 C    1.4371731593    1.4541593859    0.0919073243
 C    1.3496456161    0.0362739948    0.7416977149
 C    2.5999410504   -0.4363450422   -0.1323134243
 C    2.5982773649   -1.7401490997   -0.9893125746
 C    1.2028413770   -1.5989455271   -1.6001557761
 C    0.8063487991   -0.3286162001   -1.3826364712
 C   -0.0332496604    0.0164857415   -0.1889892971
 C    2.0085051316    0.6157634396   -1.0905197086
 H   -0.5609986508    1.8745128755    0.8747284957
 H   -0.5051520770    2.1152802716   -0.8981193444
 H    2.0593656059    2.2536085159    0.4927082082
 H    1.2381805955   -0.1533743453    1.8102392191
 H    3.5379921385   -0.1893183135    0.3796632143
 H    3.4665830325   -1.7363860669   -1.6645620437
 H    2.6466506707   -2.6776513290   -0.4222034327
 H    0.5099341019   -2.4351954827   -1.5820137866
 H   -0.8695396528   -0.6298295414    0.0748194672
 H    2.5523616393    1.0393009591   -1.9350206492