12

 O   -0.0998186456    1.2848365616    0.0686610696
 C    0.0706572114   -0.0203408546   -0.0592601671
 N    1.1945139990   -0.5909619580    0.1479491493
 C    1.2609854022   -1.9762189816   -0.0167479248
 O    2.2577167800   -2.6291121419    0.1482994842
 N    0.0566334421   -2.5855459791   -0.3983695814
 C   -1.1434333794   -1.9596188282   -0.6174485559
 N   -2.1967572590   -2.5544093815   -0.9593448031
 O   -1.0954697227   -0.5790508971   -0.4248509735
 H    0.7584804289    1.6492014962    0.3315841285
 H    0.0706359122   -3.5870031065   -0.5257383890
 H   -2.9728751992   -1.9068412892   -1.0692800969