23

 C    0.1158035179    1.4507094540    0.0449229478
 C    0.0517736852   -0.0042924576    0.0302064585
 C    0.0011789152   -1.2080686029    0.0278502857
 C   -0.0671997887   -2.6701044175   -0.0063500302
 C   -1.5272916292   -3.1639023571    0.0339963356
 C    0.6790643445   -3.2244149015   -1.2286208515
 C    2.2111027603   -2.9976714795   -1.3447513003
 C    2.3435702327   -4.4410073311   -1.9016885685
 C    0.9413016149   -4.7559475102   -1.3140035532
 H    0.7015254226    1.8162966283    0.8959089667
 H    0.5823218465    1.8395335184   -0.8672429258
 H   -0.8837056141    1.8939908517    0.1181751828
 H    0.4436759237   -3.0568696690    0.8887363374
 H   -1.5612313083   -4.2578843872    0.0390470942
 H   -2.0393555416   -2.7982820686    0.9279552038
 H   -2.0786942195   -2.8060859483   -0.8411128376
 H    0.1778448562   -2.8748567288   -2.1385699166
 H    2.5569894563   -2.1703021152   -1.9677928821
 H    2.6718828258   -2.9014739235   -0.3559702177
 H    2.3360519140   -4.4563720474   -2.9953764704
 H    3.1852568857   -5.0447268736   -1.5543872736
 H    1.0144394963   -5.2012820899   -0.3154527092
 H    0.2575648237   -5.3619290134   -1.9134269257