18

 C   -0.0561009393    1.4888981437    0.0772807249
 C    1.4639541577    1.4908751868   -0.0140902962
 C    1.9751727918    0.4748155237    1.0774903372
 C    2.4920395762   -0.4981533937   -0.0272370641
 C    2.1760782491   -1.8865775402    0.4465287802
 C    1.1138734185   -1.8006482915    1.2529889223
 C    0.6748025811   -0.3590713501    1.2966547161
 N    0.0221896568   -0.0226692230   -0.0398793529
 C    1.3396302741    0.1856407602   -0.8365592396
 H   -0.5569329554    1.8480296489    0.9830078120
 H   -0.5451569171    1.9105029523   -0.8059237774
 H    2.0945145551    2.3397941473   -0.2791093961
 H    2.5872871114    0.7545523403    1.9343253764
 H    3.4781662064   -0.2938835023   -0.4454210146
 H    2.6716121318   -2.7890671533    0.1102337742
 H    0.5610395710   -2.6152614527    1.7026874295
 H    0.0162173573   -0.0756697467    2.1178387975
 H    1.2128622835    0.1061025304   -1.9144957392