24

 C   -0.0798787610    1.5966189924    0.0339481587
 C    0.0573693331    0.0716707577    0.0475834910
 C    0.6890562923   -0.4798474715   -1.2340053519
 C    0.8076529672   -2.0150873890   -1.2770080101
 C    1.3422850029   -2.5026313659   -2.6319663486
 N    1.5869942824   -2.5513054168   -0.1584048399
 C    2.9876094838   -2.1923473658   -0.0021277740
 C    1.0272993020   -3.4192822383    0.7346423302
 O    1.5916012702   -3.9313258828    1.6796054987
 H    0.8968602270    2.0817507656   -0.0725858837
 H   -0.7068682580    1.9328479677   -0.7993916340
 H   -0.5328169284    1.9629680846    0.9601701097
 H    0.6556190558   -0.2362334940    0.9130776426
 H   -0.9319513586   -0.3843622569    0.1875352901
 H    0.0888909192   -0.1712633383   -2.0995093297
 H    1.6790579895   -0.0292436217   -1.3848788868
 H   -0.2010142233   -2.4273924776   -1.1477426439
 H    1.4222324293   -3.5933455735   -2.6484309249
 H    0.6668849726   -2.1947917446   -3.4358355824
 H    2.3288056519   -2.0834261402   -2.8533765615
 H    3.1097349264   -1.1145427673    0.1514394703
 H    3.3603059104   -2.7217753987    0.8747831092
 H    3.5764684776   -2.4875472493   -0.8769726201
 H   -0.0373155346   -3.6151711657    0.4993229809