17

 C    0.1319567711    1.5595893227   -0.1350368971
 C    1.6193034189    1.5057322069    0.3209709881
 C    1.5227054869   -0.0454423789    0.4970950270
 C   -0.0060242865    0.0251208824    0.0785157013
 N    0.3578981832   -0.7935081260   -1.0997601922
 C    0.2339880188   -1.0925686214   -2.4390069434
 C    1.5345124175   -1.3504919501   -2.8315570359
 N    2.4543971527   -1.1291474661   -1.8161311817
 C    1.6845473517   -0.8020110826   -0.8058223744
 H   -0.5092071279    2.1372605656    0.5343715633
 H   -0.0522625412    1.8834863924   -1.1610421138
 H    2.3681753819    1.8385158849   -0.3987709416
 H    1.7884268883    2.0234455102    1.2674760697
 H    1.8789689203   -0.4869204885    1.4263993693
 H   -0.8387828618   -0.3582939240    0.6676651209
 H   -0.7057083917   -1.1860696270   -2.9565985283
 H    1.8584505779   -1.7113988104   -3.7972212214