23

 C    0.1356800294    1.6007431675    0.0614870478
 C   -0.0050777101    0.0811127940   -0.0635054429
 C    0.6922147173   -0.5407369265   -1.2862161701
 O    2.0761277670   -0.2091561130   -1.2220814932
 C    0.5707419923   -2.0775822015   -1.2041342477
 O    1.4648697034   -2.7171782121   -2.1094415477
 C    0.0782175394   -0.0450374121   -2.6000841824
 C    0.5665586402    1.2068345160   -3.2747512315
 C    0.8331518727   -0.1312067349   -3.9138321542
 H    1.1900907231    1.8885677078    0.0651655465
 H   -0.3566351962    2.1236669517   -0.7625443818
 H   -0.3156317054    1.9488588105    0.9958222247
 H    0.4198244744   -0.3918694745    0.8300170321
 H   -1.0673422355   -0.1955746173   -0.0904890010
 H    2.5396723822   -0.9646501549   -1.6099399898
 H    0.8720938699   -2.4143771691   -0.2074451568
 H   -0.4685132830   -2.3926201424   -1.3738662441
 H    1.1597041690   -2.5160764861   -3.0010238344
 H   -0.9912472458   -0.2321514612   -2.6680948321
 H   -0.1633106050    1.8650813549   -3.7324784122
 H    1.4175653944    1.7023747235   -2.8239901041
 H    1.8616353492   -0.4750516231   -3.8971017306
 H    0.2814562670   -0.4006657472   -4.8081029645