16

 O    0.2545274492    1.3025545256    0.3202892152
 C    0.1782937663   -0.0291867196    0.0479909482
 C    0.1073204131   -0.7568733055   -1.1153359273
 C   -0.0170247378   -2.1326529496   -0.7066549639
 C    0.0000181777   -2.1433030912    0.6454695154
 N    0.1274100045   -0.8772059937    1.1452785057
 O   -0.0025543549   -3.3350767524    1.2924513293
 C   -0.2566940170   -4.2861727241    0.2094621033
 C    0.0033339281   -3.5676683603   -1.1592839142
 H    0.2612678590    1.7771891281   -0.5160183474
 H    0.1219415642   -0.3500524857   -2.1147951551
 H    0.1042914313   -0.5790359599    2.1044142085
 H    0.3878280460   -5.1497275894    0.3829702898
 H   -1.3036827081   -4.5979619707    0.2896014529
 H   -0.7736442724   -3.8408514417   -1.8818020800
 H    0.9665230708   -3.8653659597   -1.5965035003