17

 C    0.2364164245    1.5801455366   -0.0250316513
 C    0.0645453129    0.0694866961    0.0231611226
 O    0.7011525764   -0.4995487718   -1.1202376807
 C    1.1939840091   -1.7979509416   -0.8156673676
 C    1.4239653250   -1.8005179466    0.6806087202
 O    2.1349512028   -0.6423741500    1.1575638956
 C    0.7174675406   -0.6170125360    1.2141615748
 C    1.6045133788   -3.0449878645    1.4710636709
 O    1.4034004360   -4.1506029286    1.0344261225
 H    1.2966583752    1.8358993163    0.0411018093
 H   -0.1611906793    1.9701542648   -0.9652800355
 H   -0.3004020971    2.0566149691    0.8010927230
 H   -1.0078401610   -0.1924994909    0.0395217203
 H    0.4742485743   -2.5906242380   -1.0657643922
 H    2.1076572074   -1.9578403804   -1.3953597460
 H    0.2691247307   -0.5756044683    2.2041289578
 H    1.9498446238   -2.8631806963    2.5117865961