19

 O   -0.0606652618    1.3704762649    0.0628183141
 C   -0.0038032499   -0.0224113349    0.0285231093
 C    0.9212055560   -0.7264382414    1.0284541462
 C    0.6019738367   -2.2002934770    0.6787703309
 C   -0.4277350972   -1.9792520413   -0.4356801686
 O   -0.9380738299   -3.1037183542   -1.0835020187
 C   -1.3613933587   -0.7708483930   -0.0481090363
 C   -1.4629316516   -0.4104915939   -1.5526124931
 C    0.0223401777   -0.8013337691   -1.3406897319
 H    0.8257475695    1.7114453289   -0.0975807329
 H    1.9736174496   -0.4691350571    0.8619987251
 H    0.6720753863   -0.4581590583    2.0594022402
 H    1.4685417536   -2.7607664431    0.3156923005
 H    0.1766282817   -2.7543481421    1.5235125784
 H   -1.3636771669   -3.6627618947   -0.4246790371
 H   -2.1466508997   -0.7600949637    0.7113724910
 H   -2.0516377027   -1.0874227370   -2.1722203087
 H   -1.6582098899    0.6375695935   -1.7810272888
 H    0.8336359072   -0.8244164365   -2.0720061294