17

 C   -0.0348858606    1.5637370453   -0.0183588657
 C   -0.0287461507    0.0702268242   -0.0302556976
 C    0.4371300949   -1.0001094598   -1.0068731988
 C    1.2531892625   -1.6065048874    0.1188680040
 N    0.5178230187   -0.7228568672    1.1341829255
 C   -0.5755233131   -1.5826984929    1.5963963920
 O   -0.6049507242   -2.1777757835    2.6398911171
 N   -1.4966092290   -1.6511589360    0.5671581402
 C   -1.0357968035   -0.8853559608   -0.5539152045
 H    0.9715714778    1.9593895983    0.1497075813
 H   -0.4044924584    1.9532634160   -0.9721238474
 H   -0.6832823116    1.9428773267    0.7791358027
 H    0.7161519230   -0.9033019734   -2.0495858878
 H    1.1788227667   -2.6818003680    0.3136055844
 H    2.3049486550   -1.3148232420    0.0918801996
 H   -2.1422447462   -2.4218386673    0.5137519251
 H   -1.7699007711   -0.5697606723   -1.2846553000