19

 C    0.0726979367    1.4975566920    0.1503310012
 C   -0.0527249193   -0.0247029079   -0.0207824346
 C    0.6913122026   -0.5424005586   -1.2108594150
 C    1.7508301082   -1.4017783536   -1.2519213238
 N    2.0676207527   -1.5457233172   -2.6003390214
 C    1.1862505791   -0.7693822276   -3.2820318071
 O    1.2653002579   -0.7235477810   -4.6179041116
 C    0.2954455571    0.1178903548   -5.2433454673
 N    0.3433570595   -0.1484642269   -2.5012590307
 H    1.1151957192    1.7875619319    0.3169798409
 H   -0.2777978783    2.0108622593   -0.7491449039
 H   -0.5198582704    1.8476708563    1.0016110080
 H    0.3126529503   -0.5351223030    0.8776977235
 H   -1.1144268943   -0.2851676560   -0.1193208465
 H    2.2997744899   -1.9173956727   -0.4820862289
 H    2.7953938735   -2.1075070872   -3.0065135269
 H    0.4900958935    0.0496449402   -6.3142117904
 H   -0.7184250312   -0.2241986435   -5.0159648677
 H    0.4003389934    1.1512442810   -4.9001534079