18

 C    0.0110886814    0.8264426168   -0.5330929001
 O   -0.3720388689    0.1669241788    0.6614839454
 C   -1.4583506565   -0.7211347756    0.5336025696
 C   -1.0643762464   -2.1217348128    0.0391317391
 O   -0.7216198268   -2.0539221853   -1.3297856221
 C   -0.6689516915   -3.3179698627   -1.9627477919
 C    0.1053563573   -2.6444939245    0.8779982956
 O   -0.0231376594   -3.1533910793    1.9594389549
 H    0.7721691218    1.5595582562   -0.2546422995
 H    0.4221786814    0.1336158972   -1.2752086847
 H   -0.8418481106    1.3551571154   -0.9847802423
 H   -1.8863416584   -0.8345790172    1.5349722615
 H   -2.2300301408   -0.3185493126   -0.1398068842
 H   -1.9254378029   -2.7911969372    0.1996848489
 H   -0.4032153346   -3.1449094939   -3.0076909689
 H    0.0848450322   -3.9798892719   -1.5113980856
 H   -1.6436172390   -3.8264985604   -1.9183066614
 H    1.1004458518   -2.4949281210    0.4024013956