20

 C   -0.3009591730    1.2454777961   -0.0704790664
 O    0.1940477896   -0.0642354592    0.0679556899
 C    0.7754231993   -0.5825951271   -1.1110748734
 C    1.3747118431   -1.9622358235   -0.8347440403
 C    0.4624990792   -3.0686863172   -0.3708436553
 C    0.8109220802   -2.9530028443   -1.8338042934
 C   -0.1598874441   -2.1911111556   -2.7176540984
 N   -1.3406310942   -1.6496946933   -2.0124554873
 C   -0.1895857269   -0.7680804787   -2.2960365406
 H    0.4825324941    1.9472908489   -0.4019685982
 H   -1.1368482806    1.3015859674   -0.7834192993
 H   -0.6600981197    1.5612314515    0.9122278058
 H    1.5792577048    0.0958290007   -1.4484579533
 H    2.4155288117   -1.9971689341   -0.5339122903
 H    0.9249489157   -3.8747518893    0.1884899319
 H   -0.5462649637   -2.8130065313   -0.0755795654
 H    1.4353216455   -3.7045895452   -2.3021648563
 H   -0.2616056459   -2.4815022281   -3.7579751736
 H   -2.0808677233   -1.4583002989   -2.6833193929
 H   -0.3156381817    0.0411932612   -3.0087462532