18

 C   -0.0870295462    1.5198038992   -0.0711931157
 C    0.0308103562    0.0166481064    0.0176692931
 C    1.3251260744   -0.6808213390   -0.2165626594
 C    0.7503661736   -0.6429484450    1.1976208833
 C    1.3488818448    0.0436646748    2.3647399150
 C    1.1273335311   -0.7226083320    3.4429456615
 N    0.4209181361   -1.8836881384    3.0941119209
 C    0.1531069721   -1.9173005825    1.7361643763
 O   -0.4388087904   -2.7897137163    1.1340679200
 H    0.8410871925    2.0154476649    0.2293017681
 H   -0.3058339455    1.8251792739   -1.1001542449
 H   -0.8914462095    1.8964480717    0.5688465304
 H   -0.8512165127   -0.5423985398   -0.2849855968
 H    1.3116357319   -1.6520881945   -0.6994374236
 H    2.2115213098   -0.0797204454   -0.3917650711
 H    1.8722662413    0.9865516478    2.3501245820
 H    1.4121252964   -0.5603406575    4.4719807264
 H    0.1357296541   -2.6134158484    3.7247914343