16

 O   -0.1642477963    1.4652286151   -0.0728617712
 C   -0.0759534469    0.0615778428   -0.2654302626
 C   -1.3600690309   -0.5490787812    0.2879287283
 C   -1.3971098919   -2.0587982582    0.1439728396
 C   -2.6572155549   -2.7393631518   -0.2219269623
 O   -1.6412599780   -2.5368511802   -1.1968773088
 C   -0.4018954256   -2.8006144640    0.8864152045
 C    0.4293888990   -3.3903859279    1.5237559174
 H    0.6320080499    1.8670920427   -0.4317816076
 H    0.0181743175   -0.1962538274   -1.3309171259
 H    0.7929255112   -0.3634933539    0.2590319334
 H   -1.4578028163   -0.2790939287    1.3452625787
 H   -2.2146315225   -0.1218732815   -0.2453746945
 H   -2.8134840426   -3.7713019231    0.0864773661
 H   -3.5586474316   -2.1401649474   -0.3453835857
 H    1.1626367799   -3.9208429452    2.0798097705