20

 C   -0.1853361692    1.4411699451   -0.1255517364
 N    0.0542013423    0.0117819381    0.0310999106
 C    1.4161543057   -0.4827130886   -0.1711287937
 C    0.7968682996   -0.4865615505    1.1826064673
 C    1.3380917174    0.4189917165    2.2792169059
 O    2.2283630182   -0.3147914511    3.1129790933
 C    1.6103823984   -1.4603451267    3.6402653706
 O    1.2079079025   -2.3654507023    2.6496892095
 C    0.2507637280   -1.7728691450    1.7790357839
 H    0.6715064466    2.0824356264    0.1321280792
 H   -0.4446472349    1.6366705451   -1.1706777985
 H   -1.0382221367    1.7383844397    0.4930332037
 H    1.5118433997   -1.4029888005   -0.7420928446
 H    2.2011982154    0.2503102360   -0.3559046850
 H    1.9063403354    1.2643049472    1.8879735126
 H    0.5025148989    0.8135422657    2.8842469661
 H    2.3540823306   -1.9667617056    4.2581638859
 H    0.7371823536   -1.1623465136    4.2544091868
 H   -0.6790797053   -1.5545666415    2.3327202139
 H    0.0212651237   -2.5022961845    0.9999412089