19

 C   -0.1217159471    1.5346741056    0.0037027303
 C    0.0241622090    0.0104552854    0.0371496783
 C    0.7869674082   -0.4712001193   -1.1953275644
 O    1.1000332938   -1.8814835918   -1.2098222886
 C    1.3765801065   -2.5441911140   -0.0744955954
 O    1.9992913155   -3.5761604375   -0.1050927944
 C    0.7990060947   -2.0191077691    1.2430389636
 O    1.5250535837   -2.5444759057    2.3208481391
 C    0.7463243531   -0.4951038331    1.2898052499
 H    0.8570824543    2.0259684669    0.0380788603
 H   -0.6341644530    1.8689516657   -0.9044554460
 H   -0.7007941439    1.8852828230    0.8628630484
 H   -0.9793031358   -0.4366987545    0.0121523989
 H    0.2169742550   -0.3006231536   -2.1118411525
 H    1.7377553051    0.0712445867   -1.2825785747
 H   -0.2433928011   -2.3934525581    1.2554915766
 H    1.9512228898   -3.3448817531    1.9787875102
 H    1.7685194986   -0.0973964938    1.3319503518
 H    0.2374049335   -0.1734044298    2.2037763986