19

 C   -0.0192312062    1.4550741585    0.2083994462
 C   -0.2587149312    0.0006412106   -0.1564988074
 O    0.8987493309   -0.4906299620   -0.8146736624
 C    0.8199947124   -1.8351055282   -1.1592063726
 C    0.0716407821   -2.2276442366   -2.4543208615
 O    1.2472182789   -2.8867405576   -2.9719744779
 C    2.0774906999   -2.3944907224   -1.8870035683
 C    3.0784001017   -1.4299343967   -2.3088303236
 C    3.9280273210   -0.6580636522   -2.6637417744
 H    0.8485895236    1.5455632845    0.8673828639
 H    0.1693696323    2.0489593294   -0.6900766070
 H   -0.8929514364    1.8671126463    0.7218400856
 H   -0.4589682423   -0.6017259481    0.7453215342
 H   -1.1398853649   -0.0935432006   -0.8114237225
 H    0.5341661781   -2.4504440820   -0.2940103643
 H   -0.7746753291   -2.9166684585   -2.3619988514
 H   -0.2165039512   -1.3602900878   -3.0622751440
 H    2.5628034645   -3.2293630880   -1.3668782134
 H    4.6718931958    0.0322482413   -2.9766731792