22

 C   -0.0775090727    1.6553759639   -0.0538870029
 C    0.0180744972    0.1339804723   -0.0118853562
 C    0.9404510288   -0.6006067466   -1.1010594492
 C    1.8451707001   -1.0063902419    0.0911989077
 C    2.4499263165   -1.9724364663    1.1634266365
 N    2.0785389037   -0.7083495118    2.0078381958
 C    2.6565627453    0.0987555421    0.8344236648
 C    4.1636244786    0.2499275167    0.7187776875
 C    0.7699790280   -0.7477413447    1.0967838293
 H    0.8867339332    2.1483587643   -0.1975479341
 H   -0.7217809125    1.9635003638   -0.8855409328
 H   -0.5210857677    2.0433057394    0.8689123326
 H   -1.0037412803   -0.2561010525   -0.0495904172
 H    0.4143172608   -1.4282115550   -1.5838928916
 H    1.3942474076    0.0315198150   -1.8707886110
 H    1.8566899862   -2.8539620305    1.4182206811
 H    3.5163775465   -2.2020344161    1.1854759033
 H    2.2127692541    1.0941421133    0.8261084067
 H    4.7023437819   -0.6904829520    0.5861168794
 H    4.4027104867    0.8901367816   -0.1373838663
 H    4.5547863924    0.7392972492    1.6176798021
 H    0.1294457557   -1.5685670741    1.4278223147