19

 N   -2.1678120611    1.3926132344   -0.1369046813
 C   -2.4162240810    0.0486082362    0.1298193720
 O   -3.5023038157   -0.3558013657    0.4919232560
 N   -1.2881890614   -0.7399743715   -0.0181561078
 C   -1.1981610304   -2.1195121739    0.1837573673
 C   -0.0497331660   -2.8057685928    0.2395764030
 C   -0.2856265542   -4.2752501237    0.4832991607
 C   -1.8086578186   -4.4289846221    0.2326473105
 C   -2.4088048456   -3.0077040861    0.3681578128
 H   -3.0214323995    1.9265286811   -0.2021967692
 H   -1.4947932170    1.6157026122   -0.8552234471
 H   -0.4087215133   -0.2581180949   -0.1252622406
 H    0.9399576652   -2.3663258489    0.1701814784
 H    0.3068877185   -4.9209411909   -0.1757790355
 H   -0.0110448951   -4.5566815362    1.5108738679
 H   -1.9715191007   -4.7944417289   -0.7862237471
 H   -2.2790624628   -5.1456966268    0.9104099766
 H   -2.8616675412   -2.8293612305    1.3494302253
 H   -3.1952224698   -2.8025015209   -0.3613464219