18

 C   -0.1694548131    1.5654798377   -0.0464504569
 C    0.0244141423    0.0562777504   -0.0655277718
 C    0.7820451181   -0.6383969178   -1.2427508223
 C    1.3607359624    0.1186323834   -2.4065271675
 O    1.1331576023    1.2659666120   -2.6956897675
 C    1.8116830642   -1.0901696437   -0.1536545530
 O    2.8181693023   -1.7478821702   -0.1365006749
 N    1.0963707842   -0.4483265076    0.8150411455
 C    1.2587612202   -0.4290584206    2.2467387690
 H    0.7678585510    2.0931811311   -0.2287568588
 H   -0.8814972179    1.8703506301   -0.8165364688
 H   -0.5665378395    1.8746148484    0.9269245431
 H   -0.9315410750   -0.4435849581    0.1418565055
 H    0.2639701932   -1.5189061065   -1.6413244035
 H    2.0575300631   -0.5007042196   -3.0137859569
 H    2.1836049630   -0.9602018446    2.4830709772
 H    1.3323811546    0.5952741025    2.6281839092
 H    0.4238408645   -0.9307771066    2.7520038625