21

 C   -0.0432870079    1.5136990864    0.0304918963
 C    0.0297771353    0.0037795997    0.0530762610
 C    0.8875819804   -0.8276650020   -0.9769778034
 C    0.7315194818   -1.9343262701    0.1199796232
 C    0.8360887010   -0.7707397779    1.1384908335
 C   -0.7852093651   -2.2011077186    0.0025883782
 O   -1.2063875114   -3.1335526834   -0.9465412146
 C   -1.7315907671   -1.7285794097    1.0795558245
 C   -1.2981077732   -0.7887977611   -0.0364181959
 H    0.9562822502    1.9606188079    0.0540059091
 H   -0.5486709280    1.8722336686   -0.8737934537
 H   -0.6019701901    1.8948658616    0.8929110624
 H    0.4474742504   -1.0309229583   -1.9567074522
 H    1.9117215653   -0.4568220532   -1.0815847276
 H    1.3854500107   -2.8062559320    0.1697171143
 H    1.8597958083   -0.3947014275    1.2106761113
 H    0.4263890538   -0.8849105651    2.1432917499
 H   -1.1359292900   -4.0095692546   -0.5520843266
 H   -2.7434416414   -2.1060131646    0.9664493511
 H   -1.4311570148   -1.5849371927    2.1108584450
 H   -2.0349246881   -0.4820456036   -0.7706880359