15

 C    0.1037242518    1.3212563470   -0.2661259764
 C    0.2670329530   -0.1351247565    0.0646823837
 O    1.5961623060   -0.6268492550    0.2638429029
 C    0.7179617078   -0.6272524277    1.3970796261
 C    1.0276366824    0.3280420425    2.4416097296
 N    1.2903371971    1.1043437303    3.2553483129
 C    0.2257021672   -1.9828852474    1.8963115756
 N    0.5862579394   -3.0101552069    1.0861980717
 O   -0.4522319699   -2.0703455312    2.8957395236
 H    0.7382397969    1.9460182190    0.3651637695
 H    0.3682228891    1.4941682688   -1.3139181439
 H   -0.9395180382    1.6201882872   -0.1254638420
 H   -0.3702790228   -0.8280035532   -0.4854178379
 H    1.2939221097   -2.8647499357    0.3844311593
 H    0.3549579104   -3.9459124311    1.3774386253