20

 C   -0.0244619121    1.5608746205    0.0317007318
 C    0.0164680782    0.0489447446    0.0322592825
 C    1.3315583365   -0.6868522291   -0.2122555447
 C    0.6843389332   -0.7094941240    1.1368400451
 N    1.2296454311   -0.1454711535    2.3597823472
 C    0.7930273972   -1.1628640486    3.1767166809
 O    0.8814956457   -1.3574050403    4.3596228013
 C    0.1596960366   -1.9036931697    1.9650648276
 C   -1.3416019426   -2.1421252820    2.0356698510
 H    0.8908631685    1.9855530042    0.4580282696
 H   -0.1235963451    1.9530899715   -0.9858902454
 H   -0.8674570227    1.9371920649    0.6210939748
 H   -0.8684270917   -0.4259960849   -0.3859969631
 H    1.3251892478   -1.5927825991   -0.8101337624
 H    2.2231258125   -0.0784204855   -0.3354879622
 H    1.7804109224    0.6783556317    2.5497651441
 H    0.6991534192   -2.8309118470    1.7478137520
 H   -1.8813366094   -1.2116561862    2.2367906717
 H   -1.7236509996   -2.5622363430    1.0994182448
 H   -1.5716628657   -2.8464828645    2.8404122133