18

 C   -0.0044150697    1.3619805681   -0.0415170772
 O   -0.0243484844   -0.0631234288    0.0408820082
 C   -1.2501128185   -0.6055192070    0.0340543024
 N   -2.3999688302    0.0121925825   -0.0366923331
 C   -3.3548581168   -1.0000178318   -0.0081970724
 C   -4.8142166104   -0.6939652901   -0.0706070225
 C   -2.7489044652   -2.2242006977    0.0805669548
 N   -3.1876493142   -3.5643376366    0.1437631074
 N   -1.3763738660   -1.9516354940    0.1072146488
 H    1.0487060757    1.6451195196   -0.0253925048
 H   -0.4785616937    1.7043380897   -0.9660980788
 H   -0.5334498068    1.8075911072    0.8060756390
 H   -5.0704483524   -0.1581612943   -0.9916557250
 H   -5.4058322280   -1.6137247555   -0.0363824490
 H   -5.1246230345   -0.0578771327    0.7661165702
 H   -3.7665645136   -3.7433777585    0.9567023111
 H   -3.7152504606   -3.8372825025   -0.6779554567
 H   -0.6406862107   -2.6344767276    0.1688219175