17

 C   -0.0083333136    1.3326992340    0.0141728892
 O   -0.0850033956   -0.1030767376    0.0056112199
 C   -1.3174842430   -0.6176651970    0.0038686471
 O   -2.3350578761    0.0353299078    0.0095359133
 C   -1.3193489344   -2.1436162229   -0.0122221319
 O   -2.6340898458   -2.6058807960    0.1170855043
 C   -0.6569195430   -2.6681786421   -1.3142560324
 C   -0.5562148146   -4.1198521094   -1.3358500076
 C   -0.4609018490   -5.3173358640   -1.3387927489
 H    1.0546949346    1.5706535307    0.0158969417
 H   -0.4946834152    1.7459451784   -0.8723660465
 H   -0.4944335144    1.7338072384    0.9063589872
 H   -0.7150144908   -2.4903543967    0.8377678406
 H   -3.1987112202   -1.8196921797    0.0697060449
 H   -1.2548632324   -2.3204731516   -2.1659403977
 H    0.3385596266   -2.2200373053   -1.4085209290
 H   -0.3850140430   -6.3762376471   -1.3473467941