27

 C   -0.1068264806    1.6186167812    0.1478987733
 C   -0.0052911111    0.0969751355    0.0039585116
 C    0.7751618563   -0.5553514638    1.1517710297
 C    0.8326825256   -2.0951484594    1.1249270714
 C    1.5781696844   -2.6209984524   -0.1107206990
 C    1.4512669827   -2.6193000061    2.4360459912
 C    1.3905559948   -4.1390630357    2.6228894827
 C    1.9029434423   -4.5820467995    3.9872364870
 O    1.8244045650   -5.9990186587    4.0481583484
 H    0.8862751277    2.0816877919    0.1627193936
 H   -0.6679739618    2.0627103317   -0.6803902552
 H   -0.6125084333    1.8961514626    1.0796022598
 H   -1.0146739084   -0.3343647434   -0.0375463631
 H    0.4668421824   -0.1408352039   -0.9563546748
 H    1.8010013500   -0.1580011567    1.1641425403
 H    0.3211350249   -0.2404653174    2.1015942059
 H   -0.2032471000   -2.4647516358    1.0782619822
 H    1.5873396180   -3.7138775406   -0.1432701515
 H    1.1153082326   -2.2746351424   -1.0388926249
 H    2.6206517352   -2.2785655377   -0.1103904302
 H    2.4969980310   -2.2836437688    2.4960049471
 H    0.9329853245   -2.1397497524    3.2779295151
 H    0.3579192079   -4.4926637364    2.5092393758
 H    1.9828968088   -4.6537648422    1.8587633740
 H    2.9406669160   -4.2350302627    4.1246958466
 H    1.2980583170   -4.1154713601    4.7824310985
 H    2.1480619380   -6.2810334464    4.9084757345