17

 C    0.0402802692    1.4486970774    0.0722407987
 N   -0.1546525158    0.0232024929   -0.1056326178
 C    0.5500263749   -0.6680551830   -1.0912052171
 C    1.2101260868   -0.0339523811   -2.1474356732
 N    1.8454835636   -0.6920482931   -3.1280277110
 C    1.8614750082   -2.0124473552   -3.0955558770
 O    2.5112694464   -2.6653962659   -4.0915147683
 C    1.2459224036   -2.7601724119   -2.0845702795
 C    0.5876027278   -2.0748544398   -1.0840822518
 H    1.0954191061    1.7366828393    0.2076496604
 H   -0.3485265991    1.9989195742   -0.7917945266
 H   -0.5233791132    1.7742271640    0.9493301751
 H   -0.2307973828   -0.4866903012    0.7612923950
 H    1.2311609848    1.0484586063   -2.2191958818
 H    2.8580778239   -1.9744768918   -4.6719227344
 H    1.2922735698   -3.8420286247   -2.1024820228
 H    0.0907587956   -2.6204970564   -0.2864809380