14

 N   -0.0077517536    1.3386216317    0.0098405451
 C    1.2423794998    1.8799416985    0.0005137634
 C    2.1316097328    0.8105775989   -0.0141035620
 C    3.5333720224    0.6412643020   -0.0288286047
 N    4.0764024936   -0.5528325693   -0.0407453306
 C    3.2263410202   -1.6317194337   -0.0383172463
 N    1.9178207896   -1.6392425041   -0.0254701670
 C    1.3471162361   -0.4031814506   -0.0130554268
 C    0.0097575830   -0.0316374101    0.0021755453
 H   -0.8536285278    1.8851403026    0.0211656330
 H    1.3944493535    2.9465799738    0.0048850308
 H    4.2083438883    1.4972935222   -0.0307714261
 H    3.7239455889   -2.5986312090   -0.0485191460
 H   -0.8956807070   -0.6138129030    0.0078953819