14

 C   -0.0379629884    1.4646172228   -0.1169414827
 C    0.0788734759   -0.0486062700    0.0170081879
 O    0.7149021432   -0.4351890870    1.2336328867
 C    2.0505214876   -0.6329262152    1.2076488142
 N    2.6731361179   -0.8698380238    2.2767159649
 C   -1.2790600730   -0.7484543932    0.0046615346
 O   -2.2143153817   -0.3735941005   -0.6496452545
 H    0.9471789567    1.9216958883   -0.2404089084
 H   -0.6581484175    1.7032890362   -0.9838582047
 H   -0.5088040664    1.8842023353    0.7758443339
 H    0.6408814677   -0.4616881533   -0.8378421451
 H    2.4783711140   -0.5750364478    0.1961863992
 H    3.6612108258   -1.0161682971    2.0818973010
 H   -1.3188210117   -1.6526408247    0.6491070630