17

 C    0.0350331533    1.5135091155    0.0265815149
 C    0.0469638331   -0.0145564766    0.0106409179
 O    0.7653188404   -0.5661955776    1.1080472070
 C   -1.3609506773   -0.5690165498   -0.0512501111
 C   -2.1676272830   -1.0722171832    1.1597696764
 C   -1.9344861963   -1.9610778518   -0.0045358581
 O   -2.9033508495   -1.6452322625   -1.0489588837
 C   -2.3420030565   -0.3836081159   -1.1856381310
 O   -2.5957211934    0.4407747163   -2.0039021738
 H    1.0579082888    1.8995956583    0.0254488557
 H   -0.4958836346    1.9006538863   -0.8475711431
 H   -0.4808923504    1.8851055635    0.9208296976
 H    0.5870895139   -0.3560432114   -0.8810252563
 H    0.5754150080   -0.0269818900    1.8834467717
 H   -1.5439480547   -1.2681266931    2.0264879107
 H   -3.1667107594   -0.7002993742    1.3629819301
 H   -1.4669855025   -2.9341879939   -0.0378342150