23

 C   -0.0383545944    1.5710642663    0.0947756078
 C   -0.1450244324    0.0448564597    0.1108613314
 C    0.8566861382   -0.6055262720    1.0686054706
 C    0.8025451701   -2.1198519055    1.0736156980
 O    0.2398808004   -2.7535187075    0.2030221309
 C    1.4740465161   -2.8843665101    2.2196352147
 O    1.2555686255   -4.2604165448    2.0566910787
 C    2.9821238748   -2.5777179609    2.3151114546
 C    3.6543693381   -3.3610880297    3.4446095427
 H    0.9578455251    1.8985873201   -0.2236370915
 H   -0.7670300411    2.0084290831   -0.5942324943
 H   -0.2233659287    1.9966311454    1.0875450862
 H   -1.1592475378   -0.2576398767    0.3957647054
 H    0.0142464005   -0.3589541679   -0.8935958724
 H    1.8832187936   -0.3173405619    0.7974562393
 H    0.7216361850   -0.2427716862    2.0962076790
 H    0.9955132056   -2.5398707849    3.1550466480
 H    0.7518862907   -4.3375042296    1.2292534422
 H    3.4462246243   -2.8348174060    1.3547165133
 H    3.1250302659   -1.5014990681    2.4679533263
 H    4.7299230685   -3.1623056269    3.4715905488
 H    3.2365484661   -3.0845394510    4.4191224478
 H    3.5026791660   -4.4337026648    3.3049101724