19

 C    0.1489356187    1.6564633950   -0.3400902586
 O   -0.3233763504    0.3382466517   -0.5231582524
 C    0.6135313390   -0.5276191566   -1.1103884076
 C    1.7705277618   -0.9876943737   -0.2130891349
 C    2.0534769462   -2.4013746145   -0.7083514913
 O    3.0224159156   -3.0756583492   -0.5192365365
 O    0.9984216668   -2.8349198155   -1.4512867472
 C   -0.0719003846   -1.8655862569   -1.4831389790
 C   -1.1922382416   -2.2911428638   -0.5439164488
 H    0.9901902791    1.6998394518    0.3663374181
 H    0.4711566696    2.1052367151   -1.2920911265
 H   -0.6803116277    2.2406733311    0.0644871362
 H    1.0241234604   -0.0698430276   -2.0247012031
 H    2.6768516858   -0.3837959887   -0.2619376686
 H    1.4481269104   -1.0374750159    0.8332098174
 H   -0.4358931923   -1.8466901438   -2.5137137940
 H   -0.8529750168   -2.3225127412    0.4955069007
 H   -2.0238406725   -1.5866267190   -0.6090310655
 H   -1.5431706875   -3.2879079085   -0.8227303983