22

 C   -0.0161901868    1.5016667295   -0.0923451729
 C    0.0023270686   -0.0295524779   -0.0057930472
 C    0.8288329887   -0.5052672244    1.1968830041
 C   -1.4216727064   -0.5926423491    0.0537183387
 O   -2.1477495452   -0.1245936072   -1.0893949295
 C   -3.1104753320   -1.0862808007   -1.5010055573
 C   -2.6080363329   -2.4167689454   -0.9840186250
 N   -1.1912609401   -2.6552637881   -1.3291960615
 C   -1.5480577298   -2.1067659791   -0.0020379807
 H    1.0007250042    1.8963459760   -0.1883840361
 H   -0.6014186137    1.8365175289   -0.9509712645
 H   -0.4578695944    1.9402571805    0.8113233739
 H    0.4489295648   -0.4301740482   -0.9232801536
 H    1.8404982333   -0.0896238412    1.1558942590
 H    0.3788939960   -0.1785031871    2.1426911713
 H    0.9211994917   -1.5955830431    1.2273306561
 H   -1.9133542108   -0.2434523293    0.9807628802
 H   -4.1029809074   -0.8742977331   -1.0703368333
 H   -3.1842961271   -1.0356576423   -2.5925216327
 H   -3.2897646027   -3.2526488389   -0.8688869017
 H   -0.9910371829   -3.6480402144   -1.2325076689
 H   -1.3927314351   -2.6997969655    0.8921497813