17

 C   -0.1582560378    1.5624244524    0.0058086751
 C    0.0753663310    0.0410322482    0.0379975641
 C    0.7512828495   -0.4784431442   -1.1976522521
 C    2.0286061343   -0.9074758813   -1.2153150315
 N    2.5853613240   -1.3615807520   -2.3858968714
 N    1.9276766563   -1.4193417026   -3.5636770511
 N    0.7260136749   -1.0415363811   -3.6124714357
 C    0.0253340538   -0.5472187778   -2.4642188367
 N   -1.1997854280   -0.1893583053   -2.5669523780
 H    0.7899031494    2.1049380205   -0.0674600421
 H   -0.7817248574    1.8301362094   -0.8491708054
 H   -0.6651438530    1.8862922126    0.9196891628
 H    0.6734331136   -0.2271758764    0.9170036016
 H   -0.8945357820   -0.4601635698    0.1300532724
 H    2.6758724169   -0.9237779284   -0.3456506341
 H    3.5353914686   -1.6890142152   -2.4423537259
 H   -1.5039266243   -0.3306927091   -3.5328576820