18

 C    0.0311446177    1.4544508679   -0.8186114287
 C   -0.0010084384    0.1112972274   -0.1184326941
 C    1.1000748862   -0.8654908429   -0.3461908748
 N    0.9637864089   -0.1737323064    0.9468397005
 C   -1.3920122702   -0.4172449051    0.1018603549
 O   -1.5693189160   -1.5160355361    0.9767791643
 C   -2.1555154154   -0.2589304296    1.3624772196
 C   -1.6529179863    0.4167638431    2.5274337253
 C   -1.3336850581    1.0185743010    3.5177164246
 H    1.0600741686    1.7500310630   -1.0458219277
 H   -0.5240513191    1.4273730671   -1.7631832948
 H   -0.4178966340    2.2313644887   -0.1897384720
 H    0.8907971784   -1.9304407089   -0.3047650008
 H    1.9034188563   -0.5775894337   -1.0199186763
 H    1.6316875395    0.5901022879    1.0152039362
 H   -1.9867454884   -0.4719816573   -0.8145457704
 H   -3.2430484972   -0.2507891729    1.2802903987
 H   -1.0215310723    1.5347099268    4.3916908055