23

 C   -0.3894443926    1.4863934797   -0.1399474407
 C   -0.2601251762   -0.0259727505   -0.3343047007
 C    1.1087530227   -0.4435694108   -0.8915541966
 C    1.2139894395   -1.9387561242   -1.0686420658
 O    0.4855693236   -2.5273137470   -2.1556165454
 C    1.9179408201   -2.6278696842   -2.1638608298
 C    2.6541356109   -1.9510209001   -3.2931471054
 C    2.4642679174   -2.6933593000   -4.6130903864
 O    3.2245972493   -2.0144864007   -5.6007583421
 H    0.3653330297    1.8637828818    0.5592946981
 H   -0.2567975620    2.0202450670   -1.0875328129
 H   -1.3736785190    1.7535805243    0.2569634376
 H   -0.4332501661   -0.5367183757    0.6221780190
 H   -1.0388509217   -0.3837359183   -1.0179410803
 H    1.2831043451    0.0624590100   -1.8461429426
 H    1.9031991007   -0.1157078383   -0.2067456445
 H    1.1124364338   -2.5000062955   -0.1353115228
 H    2.2747360797   -3.6385193449   -1.9460376193
 H    2.3156588118   -0.9201383144   -3.4229173089
 H    3.7254359001   -1.9173171607   -3.0587928160
 H    2.7944891150   -3.7397726731   -4.5035845287
 H    1.3938171851   -2.7111492500   -4.8662334106
 H    3.0673144530   -2.4423045044   -6.4473409951