17

 C    0.1437782453    1.5695426392   -0.0303637207
 C    0.0479477708    0.0686939324   -0.0063401036
 C    0.5888518475   -0.9407629199   -1.1554223700
 C   -0.0731208138   -1.7715192915   -0.0277079636
 C    0.6561356603   -0.9083690280    1.0255190266
 O   -0.8464278755   -2.9184413846    0.4396230407
 C   -1.8469559853   -2.0019247102    0.8531319949
 O   -2.7955763271   -2.2519404669    1.5139115506
 C   -1.2573228414   -0.8460551772   -0.0205662443
 H    1.1893830979    1.8887951844   -0.0989281822
 H   -0.3975913825    1.9877892311   -0.8844763443
 H   -0.2818721330    1.9934196904    0.8843121940
 H    0.0720430615   -0.9016203170   -2.1153648574
 H    1.6748737886   -0.9916340724   -1.2674237273
 H    1.7450857894   -0.9772120194    1.0611825796
 H    0.2109234596   -0.8923703987    2.0232509872
 H   -1.8328997223   -0.8022574519   -0.9499016603