14

 O   -0.0104415275    0.0065908616    0.3079166890
 C   -0.0298076822    1.1926254989    0.1001426151
 C   -1.3146645722    2.0004299785   -0.0040047246
 C   -1.1941108602    3.2523569614   -0.8300327912
 C   -0.0472198958    3.7415267871   -1.2960716236
 C    1.3032658317    3.1210883674   -1.0606376360
 C    1.3006638231    1.9766899220   -0.0583391743
 O    2.2680195885    1.6605107615    0.5854626302
 H   -2.1039457592    1.3360149216   -0.3748282188
 H   -1.6146889024    2.2555171773    1.0255315680
 H   -2.1240703723    3.7710118607   -1.0472469992
 H   -0.0561220122    4.6521636517   -1.8890914057
 H    1.7019245742    2.7161476153   -2.0051571788
 H    2.0443208066    3.8588150448   -0.7312133701