15

 O   -0.0064050356    1.3913567998   -0.0430191430
 C   -0.0516424264    0.0127207715   -0.0044975538
 C   -0.4177856483   -0.8136238618   -1.2107726938
 C   -1.3133598045   -0.8162351328    0.0242410106
 C   -1.0627795484   -1.9339636380    0.9863752711
 N   -1.9289872932   -2.7789024791    1.3611397901
 N    0.2881036260   -1.8244392494    1.3747611506
 C    0.8937501882   -0.6521205116    0.9593654315
 O    1.9581417195   -0.2072438682    1.3220877814
 H    0.8871792720    1.6326183909    0.2401372218
 H   -0.7957660068   -0.2386563888   -2.0488038600
 H    0.1444009709   -1.7043577342   -1.4705415177
 H   -2.3089148189   -0.4002986450   -0.0377428245
 H   -1.5465856067   -3.4528388028    2.0269185578
 H    0.7350530321   -2.4492527304    2.0292765578