16

 O   -0.1131557393    1.5029191247   -0.2278540382
 C    0.0330372867    0.1069994674   -0.1658449712
 C   -1.3119782402   -0.6057476094    0.0621748505
 C   -1.2828921078   -2.1381596514    0.1064967649
 C   -2.2195657454   -2.4875048160    1.2400801656
 N   -2.7177931148   -3.6086834376    1.4970694304
 O   -2.4513637028   -1.3425591142    2.0058316588
 C   -1.8978958125   -0.2340876380    1.4154991952
 O   -1.9024350327    0.8355553501    1.9551818782
 H   -0.5600798707    1.7750271180    0.5857815729
 H    0.4524002607   -0.2158598422   -1.1243654021
 H    0.7401804907   -0.2041747145    0.6220911810
 H   -2.0153704282   -0.2420879158   -0.6966421494
 H   -1.5937618582   -2.6281813042   -0.8160093378
 H   -0.2800227077   -2.5070421435    0.3537465511
 H   -3.3096058478   -3.5740867036    2.3283566200