18

 C    0.0571662339    1.5579526038   -0.1703486143
 C    0.0755061480    0.1038793550   -0.1119607457
 C    0.0804534164   -1.0994705175   -0.0738887628
 C    0.0892772096   -2.5454858673   -0.0259271724
 C    0.3308422145   -3.2688802588    1.3411625364
 C    0.4164105310   -2.4399393202    2.5994756163
 O   -0.9716531659   -3.9347721438    1.2036608277
 C   -1.2516305363   -3.2792398102    0.0279251938
 N   -2.2592960880   -3.3117821621   -0.7132678880
 H    0.6799419036    1.9310588408   -0.9906363610
 H   -0.9600289301    1.9329867699   -0.3270281779
 H    0.4339067786    1.9977459623    0.7596123903
 H    0.7221255458   -2.9562669783   -0.8196028611
 H    1.1235570976   -4.0213457110    1.2965234937
 H   -0.3704961843   -1.6822000018    2.6223881483
 H    0.3179740592   -3.0818859205    3.4797267612
 H    1.3845201214   -1.9317309934    2.6477691964
 H   -2.9720787550   -3.9434828069   -0.3438073111