19

 C   -0.2185961573    1.4584990700   -0.1666078640
 C    0.0750426289   -0.0219268213   -0.0485435126
 C    1.4355976757   -0.6916713297   -0.3368338076
 C    2.6717568003    0.1472334132   -0.2977926140
 O    3.4955978128    0.2384159431   -1.1744095929
 C    2.7742451352    0.8232072203    1.0805625232
 C    1.7118327027    0.1504263015    1.9756423259
 C    0.8281908240   -0.6979836734    1.0515372822
 O    0.3515661425   -1.9051117880    1.5658529057
 H   -0.3173781888    1.7511803661   -1.2169611353
 H   -1.1632011336    1.6990600932    0.3339298814
 H    0.5554329493    2.0865589135    0.2784800638
 H   -0.7243892338   -0.6517157671   -0.4335015214
 H    1.4298931356   -1.5585889214   -0.9853707881
 H    3.7932412553    0.6993701291    1.4562114447
 H    2.6215749761    1.9010147222    0.9612981350
 H    2.1832032871   -0.5372161526    2.6831353929
 H    1.1296557017    0.8711120549    2.5601863695
 H   -0.4362296837   -1.7195571736    2.0885135715