18

 O    0.1320616270    1.3416557629   -0.2923917594
 C    0.0580399863   -0.0246734737    0.0534100155
 C    0.1616448279   -0.9981616000   -1.1504254902
 O   -1.2502087497   -1.2925018484   -1.0891175950
 C   -1.4035922625   -0.5332720242    0.1280455291
 C   -1.4994470762   -1.3573264667    1.3989865661
 N   -0.5432077262   -2.4846941491    1.4194122922
 C   -0.2103125906   -1.2517456422    2.1475234847
 C    0.7630073706   -0.3626802898    1.3878629549
 H    1.0473376145    1.5470170121   -0.5128621925
 H    0.4365071819   -0.5098689658   -2.0931520059
 H    0.7690668405   -1.8937285902   -0.9839577855
 H   -2.1899248497    0.2238712768    0.0495483941
 H   -2.4502866081   -1.4691085941    1.9087759094
 H   -0.8763409126   -3.1931289717    2.0676947432
 H   -0.1811688193   -1.2706270115    3.2327858133
 H    1.7343251608   -0.8489556628    1.2464237684
 H    0.9206748553    0.5725689184    1.9349186878