15

 C   -0.0136449769    1.5118815382    0.0023963015
 C    1.4107143385    2.0712307528    0.0385972172
 O    2.1338752260    1.6951731782    1.2311193442
 C    1.9642512710    0.4138719013    1.5708635243
 N    2.6747961756   -0.2035325272    2.4727935210
 O    2.1330753819   -1.4715497127    2.5182211519
 N    1.0918591288   -1.6162635108    1.6380208698
 C    0.9713608274   -0.4656284473    1.0424987912
 C   -0.0107962460   -0.0316621983    0.0035358982
 H   -0.5630417356    1.8859225150    0.8734812254
 H   -0.5166965698    1.8955755046   -0.8900449362
 H    1.9824202830    1.7308644375   -0.8354344450
 H    1.4098974388    3.1621512226    0.0462286131
 H   -1.0059839275   -0.4355396594    0.2065638108
 H    0.2924087445   -0.4093027345   -0.9805878775