23

 C   -0.1512952698    1.5275259389   -0.0065511138
 C   -0.1122259546   -0.0063221318    0.0175317444
 C    0.9538503291   -0.5006874544    1.0056413482
 C   -1.5137282677   -0.5720453034    0.3263550068
 C   -1.6257877111   -2.0730968420    0.1610894942
 C   -2.9270888697   -2.8454280166   -0.0023645483
 C   -3.8704427706   -2.1061406473   -0.9448784058
 O   -2.8254900056   -1.9566761112   -1.9435931476
 C   -1.9357474324   -2.7445659265   -1.1432963127
 H    0.8287952926    1.9464401504   -0.2581163105
 H   -0.8736761408    1.8964718769   -0.7420783695
 H   -0.4398714999    1.9275763837    0.9733245249
 H    0.1667067226   -0.3536202293   -0.9870632230
 H    1.0560065634   -1.5900770816    0.9956097024
 H    1.9355109825   -0.0789235592    0.7653798073
 H    0.7063170453   -0.1977926055    2.0306489799
 H   -1.7975518552   -0.2919766443    1.3507327803
 H   -2.2325266504   -0.0898547453   -0.3433848524
 H   -0.9195316246   -2.6556573900    0.7499150109
 H   -3.1969583334   -3.6846011669    0.6247620016
 H   -4.6759377646   -2.7404209692   -1.3319460067
 H   -4.2835233504   -1.1436194835   -0.6209220567
 H   -1.3190411248   -3.4758007718   -1.6543187039