18

 C    0.1477019350    1.3318743082   -0.1260944126
 O    0.1496272721   -0.0877171072   -0.0583098778
 C    0.6518829784   -0.5930228377    1.1322584292
 C    0.5826344564   -2.1285753356    1.0784625407
 N    1.9608862613   -2.4677081448    0.8231359163
 C    2.4395864190   -3.8134562052    0.6259026912
 C    2.8018929297   -1.4028901195    0.9958844849
 O    4.0007862444   -1.3821772270    0.9318485767
 O    2.0410589698   -0.2922951292    1.2867014959
 H    1.1654769716    1.7341075247   -0.0920955672
 H   -0.3204041947    1.5999585618   -1.0746961806
 H   -0.4360053679    1.7652427387    0.6993317135
 H    0.1380899423   -0.1478779761    1.9943062569
 H    0.2191345819   -2.5579634905    2.0225630765
 H   -0.0835447627   -2.4410724141    0.2684443956
 H    1.9985770913   -4.2612840888   -0.2722547753
 H    3.5231839657   -3.7641415036    0.5084411692
 H    2.2016695665   -4.4545289740    1.4853046969