21

 C    0.0901782532    1.5788140919   -0.0118422181
 C    0.0486540170    0.0379571786   -0.0293262084
 C    0.5182609335   -0.5306864968   -1.3471387532
 C    1.6000280028   -1.2990317215   -1.4699023080
 C    2.4624215792   -1.6088711674   -0.2785302525
 C    3.1802690270   -0.3521818874    0.3475297951
 C    2.2365759699   -0.4345295738    1.5479945853
 C    1.6732548154   -1.7634664353    1.0451730136
 C    0.7732058876   -0.5741018675    1.1704392997
 H    1.1168410583    1.9456313341   -0.1013565281
 H   -0.4929780756    1.9993598702   -0.8380722999
 H   -0.3262296692    1.9648705450    0.9248953365
 H   -1.0113992654   -0.2439142785    0.0716003864
 H   -0.0864773335   -0.2859793591   -2.2178574832
 H    1.8983843609   -1.6795433349   -2.4431557648
 H    3.1545260808   -2.4278011414   -0.4776472482
 H    4.2100340954   -0.5837006503    0.6343515531
 H    3.1768111904    0.5620201919   -0.2531165096
 H    2.5074176025   -0.1603867106    2.5613527579
 H    1.5119543247   -2.6984105853    1.5680542093
 H    0.1528683152   -0.6019405221    2.0642177970