24

 C    0.1243001257    1.5105877830   -0.1038364702
 C    0.0269792317   -0.0115169491    0.0850582834
 C    0.6720743453   -0.3865970225    1.4299927112
 C   -1.4250429863   -0.5545185573   -0.0289659431
 C   -2.2103377865    0.0898137580   -1.1843500137
 C   -1.4237851459   -2.1010470238   -0.1578449142
 C   -2.7917435426   -2.7474663167    0.0735804930
 O   -0.8566583907   -2.5256315249   -1.3981328617
 H    1.1559457011    1.8459974651    0.0458659746
 H   -0.1804787383    1.8294024820   -1.1036433884
 H   -0.5009536230    2.0426118539    0.6243435827
 H    0.6022521184   -0.4904732920   -0.7182532294
 H    0.1336251810    0.0825177150    2.2629575546
 H    0.6887577103   -1.4646145234    1.6104749980
 H    1.7087380533   -0.0366662383    1.4704397895
 H   -1.9479826052   -0.3121300409    0.9085164402
 H   -1.6801959124   -0.0236044898   -2.1370739276
 H   -3.2044080057   -0.3543900226   -1.2952608570
 H   -2.3586303856    1.1592070957   -1.0210528839
 H   -0.7396500636   -2.5074282160    0.5931292379
 H   -3.5284141921   -2.4265673987   -0.6716790921
 H   -2.7032014216   -3.8354036707    0.0073748954
 H   -3.1862367394   -2.4917628232    1.0624987053
 H   -1.4839308778   -2.3098578930   -2.0961667943