19

 C    0.0032628444    1.5294980694   -0.0405643846
 O    1.4307486837    1.7764332081   -0.0295744950
 C    1.9525864250    0.4472426799    0.0371142330
 C    1.1181790527   -0.3386686409   -1.0160215220
 C    1.4457917636   -1.8282105766   -1.1510349078
 C    1.5829266519   -2.4718343846    0.2032051592
 C    1.4108073051   -1.7166385816    1.2864425833
 C    1.0848611471   -0.2588866296    1.1229620013
 C   -0.0092169003    0.0037664661    0.0236616051
 H   -0.4664310289    2.0122397883    0.8250266286
 H   -0.4417196969    1.9343721242   -0.9579767328
 H    3.0415385027    0.4693354375    0.0646462659
 H    1.0372692593    0.1473070277   -1.9931019731
 H    0.6674585133   -2.3331418448   -1.7420276007
 H    2.3733905861   -1.9506726827   -1.7287354079
 H    1.8162255438   -3.5303751525    0.2647249769
 H    1.5027450152   -2.1201985212    2.2899669469
 H    0.9772299703    0.2757076518    2.0691385700
 H   -0.9709037480   -0.5094415086    0.0380262937