15

 O   -0.4133185410    1.2378101260    0.6825390534
 C   -0.2000891822    0.0047993787    0.1940785333
 N   -0.9016017011   -0.6110435978   -0.7185335166
 C   -0.2756278819   -1.8430607230   -0.8648457925
 C    0.7956032201   -1.9458177357   -0.0245384665
 N    0.8382031662   -0.7332842222    0.6572359070
 C   -0.7771702011   -2.8485504771   -1.8211036246
 C    0.0424424350   -3.3492996844   -2.9410739302
 O   -0.1539280369   -4.1340320073   -1.7649483917
 H   -1.1924377275    1.5782640469    0.2252615170
 H    1.4951055616   -2.7407415790    0.1636643852
 H    1.4861295396   -0.4571119052    1.3747594579
 H   -1.8600890360   -2.8648509471   -1.9440709583
 H   -0.4416572459   -3.7269453194   -3.8412201725
 H    1.0466261509   -2.9506637632   -3.0745302608