17

 C   -0.0640323024    1.4075608489    0.0995744706
 N    0.0260058830   -0.0334539454   -0.0025514755
 C    0.0648717121   -0.7869200166   -1.1340419162
 C    0.0654615846   -2.1099249576   -0.7501581894
 C    0.1157869638   -3.3331179452   -1.6087822832
 C    0.0194126716   -2.0467298018    0.6713291952
 N   -0.0076168470   -0.7782785881    1.1097602731
 C    0.0114739087   -3.1463956775    1.5647767064
 C    0.0052711666   -4.1153477870    2.2795650704
 H    0.3783171052    1.8610157461   -0.7897042623
 H   -1.1055921188    1.7339162938    0.1895115848
 H    0.4852353201    1.7294301317    0.9851509810
 H    0.0927629187   -0.3318297163   -2.1121029909
 H    1.0048455962   -3.9365976679   -1.3952761684
 H   -0.7532045858   -3.9776800332   -1.4374635134
 H    0.1352785736   -3.0703372453   -2.6698836061
 H    0.0002282798   -4.9590047086    2.9238797841