14

 N    0.0121655628    1.2132584774    0.1395330139
 C    0.0153094486   -0.0344541645    0.0740341169
 N    1.0838757597   -1.0346295580   -0.1578423307
 C    1.0036943004   -1.8220811957    1.1508696271
 C   -0.3597044832   -2.3310000046    0.7033473620
 C   -0.0232369793   -1.9640590204   -0.6892776942
 C   -1.0443826132   -1.0835744744    0.0381443982
 C   -2.4527416398   -0.9932386160   -0.1396120493
 N   -3.5979296203   -0.9215418124   -0.2864609500
 H    0.9614173399    1.5813830396    0.0463125752
 H    1.7622227647   -2.6075232339    1.1513014122
 H    1.0849410924   -1.2059195600    2.0505572594
 H   -0.9746120316   -3.1457960414    1.0648087617
 H   -0.0671185010   -2.4171798857   -1.6678784023