19

 C    0.0645438189    1.5594361841    0.1027794386
 O    1.4062066094    1.9739664612   -0.1663604283
 C    2.0400333231    0.9712536678   -0.9040459507
 C    2.5796202462   -0.2417096220   -0.1468646163
 C    2.5982965150   -0.2990756402    1.3318476565
 C    1.4937056456   -0.4844849992    2.0549097992
 C    0.1314455503   -0.6511929225    1.4259492457
 C    0.0322381607    0.0113574779    0.0380342301
 C    1.2411089037   -0.2947540798   -0.8631034902
 H   -0.2166092688    1.9534023370    1.0842822802
 H   -0.6106590316    1.9903433806   -0.6517357426
 H    2.5607553659    1.3265915285   -1.7878685637
 H    3.4065053488   -0.7395498713   -0.6474446709
 H    3.5616721243   -0.1803896669    1.8205537962
 H    1.5544834388   -0.5347648005    3.1386153221
 H   -0.1071668357   -1.7218681213    1.3426767232
 H   -0.6391355366   -0.2308280832    2.0838487028
 H   -0.8899980798   -0.3188462947   -0.4492975830
 H    1.1118932719   -0.9322054454   -1.7292284787