22

 C    0.0712614367    1.4967959585   -0.1453720275
 C   -0.0523671197   -0.0164240333    0.0350715800
 O    0.7147198045   -0.4682908215    1.1449793983
 C   -1.5199634811   -0.5351985820    0.1138710000
 C   -2.2725874308    0.0252815787    1.3224323322
 O   -2.2411098844   -0.0970053762   -1.0427967727
 C   -1.5001708779   -2.0659525235    0.1913106695
 C   -2.7081351038   -2.8575852132   -0.1254943487
 N   -1.5356516417   -2.8924540334   -1.0264277232
 H    1.1168026929    1.7634877696   -0.3202486361
 H   -0.5309625173    1.8530848856   -0.9846918141
 H   -0.2678380530    2.0300089974    0.7503774000
 H    0.4049649873   -0.5156231836   -0.8318687715
 H    0.5108802905    0.1012178797    1.8945175606
 H   -2.2942403909    1.1179441237    1.3102743754
 H   -3.3044301522   -0.3331993523    1.3113793949
 H   -1.8102284284   -0.3131622382    2.2545317254
 H   -1.6507037631   -0.1355179701   -1.8032241055
 H   -0.8117349154   -2.4394105881    0.9431499575
 H   -2.9115153756   -3.7836070775    0.4045398210
 H   -3.5858827551   -2.3167254917   -0.4678388162
 H   -1.7547417614   -2.2968101585   -1.8231310892