22

 C   -0.0607380866    1.5233839368    0.0773622392
 C   -0.0370005083   -0.0197655254   -0.0055312249
 C   -1.5027704524   -0.4497083058    0.2446134327
 C    0.7566732023   -0.6037142956   -1.2232522775
 C    2.0656414407   -0.1450908705   -0.4820433128
 C    1.2238794793   -0.6191379463    0.7505889693
 N    1.3593032832   -2.0892965156    0.5057182265
 C    0.1565699814   -2.8451728505    0.1294700626
 C    0.9097432488   -2.1077312531   -0.9246897662
 H    0.9093767752    2.0158164549    0.0365592197
 H   -0.6763864603    1.9322605226   -0.7320480794
 H   -0.5320016303    1.8221438575    1.0206337218
 H   -2.1700046204    0.4082090378    0.1179645013
 H   -1.8460424489   -1.2167197779   -0.4519721597
 H   -1.6590492191   -0.8177205770    1.2643980543
 H    0.5296067054   -0.3179358858   -2.2517709155
 H    2.9614161310   -0.7392868309   -0.6686493479
 H    2.2985461658    0.9132825670   -0.5452440045
 H    1.4585167109   -0.3432535579    1.7797842944
 H    0.3313640281   -3.9188240616    0.1702324154
 H   -0.8200696532   -2.5608542267    0.4787334453
 H    1.5200774174   -2.6789463262   -1.6212513042