16

 O    0.1952088107    0.0770370962   -0.2651121223
 C    0.1412795992    1.2559937020   -0.0588374969
 N   -0.9597511288    2.1299459794    0.0858053532
 C   -0.1055960356    3.3151567341    0.1615725495
 C    1.1254273723    2.4004182177    0.0805822223
 C    0.7858436795    3.4059940290   -1.0269058127
 C    0.5531346313    3.2316520485   -2.5249455354
 C    1.5244488699    4.4280370527   -2.6380624592
 O    1.6458742456    4.5166458919   -1.1929842940
 H   -1.7912614896    2.0643366552   -0.4917537828
 H   -0.3017228920    4.1211581732    0.8565774069
 H    2.0670443736    2.4450188629    0.6078613741
 H    0.9057685585    2.2906655917   -2.9481241560
 H   -0.4665077651    3.4268305696   -2.8611536330
 H    2.4902312831    4.2131421162   -3.1057616202
 H    1.1082039775    5.3482615495   -3.0592142435