18

 O   -0.1368058988    1.4696038460    0.0641774896
 C    0.0020069770    0.0606028440    0.1527014123
 C   -1.3663049361   -0.5555951179   -0.1338157003
 C   -1.3559434990   -2.0478964771   -0.0969250854
 C   -2.5150088658   -3.0352731372    0.1189236782
 C   -1.7572940721   -4.0851370055   -0.7293226708
 C   -0.6323333563   -3.1391637491   -0.9423964736
 N   -0.5933247517   -4.0888687646    0.2269381299
 C   -1.3284034743   -3.0318690708    1.0507347819
 H    0.7195965117    1.8691164789    0.2413747267
 H    0.7386587028   -0.3159083668   -0.5753875007
 H    0.3436348448   -0.2506618973    1.1521938154
 H   -2.0821342846   -0.1761958593    0.6059201873
 H   -1.7115573797   -0.1973513905   -1.1120891712
 H   -3.5604709965   -2.8241706652    0.2941189729
 H   -2.0663437193   -4.9728451548   -1.2683280715
 H    0.1550512451   -3.1091496050   -1.6871289911
 H   -1.2386724172   -2.9111724479    2.1234998202