23

 C   -0.9139253184    1.0447560281    2.9375392092
 C   -0.8413130817   -0.3135224203    2.2470612586
 C   -2.1305179889   -0.7079663077    1.5306827486
 O   -3.1005458958    0.0281782034    1.5384385196
 C   -2.0897388023   -2.0290610993    0.8472360680
 C   -3.3157776882   -2.9550001430    0.7697488799
 C   -4.6346295229   -2.6220554473    1.4324113965
 C   -2.8243209158   -2.2943478322   -0.4781281618
 C   -3.5912570301   -1.2194728932   -1.2169156205
 H    0.0323731228    1.2783448010    3.4337551568
 H   -1.1331137346    1.8370704430    2.2172729795
 H   -1.7110293271    1.0599615882    3.6851908201
 H   -0.0274922455   -0.3424262968    1.5085905399
 H   -0.6000361904   -1.1122715099    2.9627873044
 H   -1.1367195949   -2.5380764855    0.9530698549
 H   -3.0413952137   -4.0033565261    0.8642084665
 H   -4.8368971376   -1.5515076695    1.4285199964
 H   -5.4543148433   -3.1380681346    0.9199219302
 H   -4.6344240621   -2.9570041659    2.4752336497
 H   -2.2528491006   -2.9433269120   -1.1380573219
 H   -4.0630037969   -0.5111353303   -0.5366900049
 H   -2.9215388127   -0.6543929618   -1.8740535030
 H   -4.3650752393   -1.6739010381   -1.8458040367