19

 C    0.1357114463    1.3163371438    0.1823794338
 O    0.0506616796   -0.0812447779   -0.0427731936
 C    0.5997952540   -0.5551668643   -1.2365898471
 C   -0.1630074734   -0.0763804103   -2.4761057721
 O    1.9747148450   -0.1526563627   -1.3301582957
 C    2.8051973344   -1.2270513564   -1.7533676142
 C    2.0110015985   -2.4881953748   -1.4976581191
 O    1.5237755708   -2.5630803834   -0.1559784143
 C    0.6472687755   -2.0763655859   -1.1688443253
 H    1.1698936600    1.6681502064    0.1126537435
 H   -0.4887585555    1.8912179109   -0.5153220838
 H   -0.2347441119    1.4831228076    1.1961081322
 H   -0.0353289920    0.9997139435   -2.6109322100
 H    0.2213874711   -0.5724271183   -3.3725150389
 H   -1.2296736269   -0.2996052993   -2.3813285447
 H    3.0462235759   -1.1455785668   -2.8249132012
 H    3.7397416848   -1.1868144776   -1.1831110197
 H    2.2656937284   -3.4272700564   -1.9810576635
 H   -0.2446692344   -2.6621541780   -1.3705715764