21

 C   -0.0642037355    1.4724461049    0.0477613868
 C    0.0764612562   -0.0175241912   -0.0343597133
 O   -0.5248718938   -0.7969423659    1.0220220825
 C    0.8946133323   -0.8945588990    0.8018361012
 C    1.3518223067   -1.9807972480   -0.2067535213
 C    2.2521300832   -3.0901085942    0.2860746690
 C    0.0348188718   -2.2463931461   -0.9965374875
 C    0.1873654698   -0.7556304346   -1.3953878435
 C    1.7301940545   -1.0324189607   -1.4077148052
 H    0.6667411029    1.9662867008   -0.6016727372
 H   -1.0625295265    1.7879030380   -0.2761499113
 H    0.0858235739    1.8201029796    1.0730994991
 H    1.5308741832   -0.5722489432    1.6216160877
 H    1.7473870606   -3.6991517883    1.0443114931
 H    2.5490251678   -3.7535530231   -0.5328209721
 H    3.1674332358   -2.6898097433    0.7380820405
 H    0.2096543920   -2.9121557089   -1.8446719078
 H   -0.8503770223   -2.5439064699   -0.4373094577
 H   -0.3337164169   -0.3236479486   -2.2499179401
 H    2.4031258760   -0.1930561122   -1.2021207047
 H    2.0686292883   -1.5772768862   -2.2939018383