17

 C   -0.3584549805   -1.1142404474   -0.6848213808
 C   -0.1637278933   -0.0011299496   -0.2731735396
 C    0.0846349130    1.3369347140    0.2409743906
 C   -0.3677989928    1.5587358240    1.7041617628
 C    0.3445479234    2.8619732783    2.1274472050
 C    1.6022115051    2.9801332618    1.2134864950
 C    1.5779019486    1.7393168427    0.2946673129
 H   -0.5340615463   -2.0942881014   -1.0530653289
 H   -0.4435789633    2.0615251135   -0.3955252856
 H   -1.4549857076    1.6066768400    1.8038838471
 H   -0.0221550335    0.7122841732    2.3074475944
 H   -0.3149009612    3.7225728304    1.9783142169
 H    0.6041022875    2.8484766642    3.1892171928
 H    1.5527481395    3.8965004885    0.6171414056
 H    2.5296338482    3.0328182587    1.7896882625
 H    2.1450215984    0.9142267819    0.7391342290
 H    1.9977325849    1.9255905473   -0.6969339697