22

 C    0.1049416984    1.5858799240    0.0961413102
 C    0.0620869608    0.0660557983    0.0490920589
 C    1.0452261306   -0.6749339644   -0.9019879881
 C    1.3241314250   -1.7191426445    0.2249403486
 C    0.5166086384   -3.0066495439    0.0460743187
 C    2.8030895997   -2.0183616770    0.4621975272
 O    3.0547542717   -2.7332846419    1.6641488178
 C    0.6639985272   -0.7334294299    1.2392128222
 H    1.1230556955    1.9439358523    0.2884907088
 H   -0.2287750690    2.0249099077   -0.8510945767
 H   -0.5402134522    1.9783479799    0.8904132071
 H   -0.9647776714   -0.2627576936   -0.1443953108
 H    0.6456614808   -1.0567749386   -1.8459583140
 H    1.9303408194   -0.0675132398   -1.1235658647
 H    0.8960082951   -3.6000621465   -0.7949890751
 H    0.5521490381   -3.6275396627    0.9491937940
 H   -0.5386195977   -2.7921739250   -0.1510432248
 H    3.2197225829   -2.5473961691   -0.4121999399
 H    3.3550527084   -1.0773182120    0.5631347757
 H    2.7118078757   -3.6251913116    1.5561382596
 H    1.4134601769   -0.1533929858    1.7874087437
 H   -0.0348988644   -1.1600963259    1.9637333815