19

 C    0.2187845212    1.4408055517   -0.1393878412
 C   -0.1906349527   -0.0221531498   -0.0440082908
 O   -1.0538640618   -0.3991487366    0.7285404091
 N    0.4803111166   -0.8674291812   -0.8820644423
 C    0.1925077252   -2.2901334213   -0.9686072262
 C   -0.1247371660   -2.7248171778   -2.3814884902
 C    0.9940445850   -3.0419414628   -3.3476611413
 C    0.1255938649   -4.1483012189   -2.8019186126
 H    1.0142530442    1.6326632738   -0.8644297932
 H   -0.6594896856    2.0333200861   -0.4092552577
 H    0.5477118439    1.7778079848    0.8470613958
 H    1.1595139970   -0.4861638445   -1.5197553401
 H    1.0438576296   -2.8733979571   -0.5888820526
 H   -0.6512415363   -2.4660627197   -0.2968270731
 H   -1.0007039383   -2.2421023849   -2.8060152691
 H    0.8766530959   -2.7581950329   -4.3874943073
 H    2.0154165998   -2.9811535676   -2.9837507509
 H    0.5645157874   -4.8218704700   -2.0730056038
 H   -0.5888098200   -4.6205818713   -3.4663361526