13

 N   -0.0182395133    1.3336174749    0.0985679115
 C   -0.0306264650   -0.0139318666    0.0328856198
 N   -1.1580643763   -0.6667019798    0.0282990969
 C   -1.0802272588   -2.0277057231    0.0043171398
 O   -2.0338139651   -2.7838087836   -0.0358702205
 C    0.3120294359   -2.6128863859    0.0168288431
 N    0.3493444718   -3.9602129016    0.0635300525
 N    1.4085271296   -1.9223807142   -0.0114809739
 O    1.2058423157   -0.5132709622   -0.0076555429
 H    0.8410345951    1.8313366483   -0.0573819737
 H   -0.8982014866    1.8061295258   -0.0162177445
 H   -0.5394765294   -4.4146263448   -0.0822978202
 H    1.2110664563   -4.4527218372   -0.0965970980