14

 O   -0.0158292268    0.0059010924   -0.1035683221
 C   -0.0285797564    1.1878518503    0.0454212078
 C   -1.0861163982    2.3066545617   -0.0020021403
 C   -1.2650598274    2.9286697743    1.3758996781
 O   -0.0028418962    3.1772434959    2.0256945748
 C    1.1713388413    2.9035315786    1.4000009364
 O    2.2167135151    3.0868731843    1.9496596130
 C    1.0157036125    2.3298923692   -0.0027974242
 N   -0.0470021228    3.1481815689   -0.7002826743
 H   -2.0379717462    2.1464889883   -0.5112964815
 H   -1.7743632600    3.8928298694    1.2855159705
 H   -1.8443933684    2.2708639233    2.0311735903
 H    1.9805350273    2.2080039973   -0.4903321481
 H   -0.0328854538    2.8978069560   -1.6877665405