20

 N   -0.3076837359   -1.3431739150   -0.1244997427
 C   -0.1882297980   -0.1960371264   -0.0340091332
 C   -0.0235564223    1.2467019675    0.0942029529
 C   -0.0741548478    1.7941372982    1.5677847402
 C    1.2083960911    2.6190817779    1.2837749527
 C    1.4625472352    1.7562866979    0.0200010895
 C   -0.9494581144    2.0076611516   -0.8436798931
 C   -1.2823069350    1.5107574465   -2.2263257332
 C   -2.3463092682    1.5369847775   -1.1546168613
 H   -0.9855291420    2.3351637793    1.8299281697
 H    0.0912440867    1.0017884027    2.3002406119
 H    0.9915298990    3.6626339599    1.0429422092
 H    1.9823751298    2.5996230212    2.0526886877
 H    2.1766309623    0.9504224966    0.1998123495
 H    1.7310089706    2.2682535437   -0.9062009786
 H   -0.8231294854    3.0826228303   -0.7445726553
 H   -1.3339007863    2.2363641082   -3.0301746932
 H   -0.9026682632    0.5386612926   -2.5216730729
 H   -2.6624849516    0.5820368945   -0.7491116818
 H   -3.1325335248    2.2806976154   -1.2185115281