21

 C    0.4295238250    1.0788675111    0.5509572304
 C    0.1263771546   -0.3040084818   -0.0554794655
 C   -1.3363673331   -0.6327564940   -0.1045391474
 C   -2.1292032886   -0.8492900200   -1.1591768626
 C   -1.8109804746   -0.8053158828   -2.6207309093
 O   -2.6424238525    0.1157498596   -3.3271683203
 C   -3.5227019986   -1.1756301181   -0.6835101873
 O   -3.4817338500   -1.0625743532    0.7347677150
 C   -2.1495708440   -0.8089073934    1.1567525680
 H    1.5070910975    1.2677058607    0.5573071374
 H   -0.0509735263    1.8741107934   -0.0276352896
 H    0.0724460639    1.1551966734    1.5822710638
 H    0.5569045459   -0.3605960084   -1.0603379349
 H    0.6436318094   -1.0696570621    0.5399101897
 H   -0.7462280060   -0.5872793253   -2.7840358081
 H   -2.0155225941   -1.7784752700   -3.0841556755
 H   -2.5160911625    0.9808697629   -2.9232177754
 H   -4.2780442199   -0.4888843618   -1.0902296336
 H   -3.8239263027   -2.1952240144   -0.9805899020
 H   -1.7688414377   -1.6477898544    1.7660188460
 H   -2.1355401057    0.0828785589    1.8021683313