16

 C    0.0371732673    1.4516878915    0.0235312412
 C   -0.0313426692   -0.0454729613   -0.0082692641
 O    0.9460014059   -0.6439708997   -0.8378528406
 C    0.4545385535   -1.9268830421   -1.2423487098
 C   -0.6773283855   -2.2063385976   -0.2669811637
 O   -0.0828312856   -2.2104096185    1.0707535919
 C   -0.4593156435   -0.8424103039    1.2180924159
 C   -1.3206179895   -0.8213090758   -0.0248205078
 H    1.0300514662    1.7806586841    0.3451864610
 H   -0.1583458757    1.8726064976   -0.9678205350
 H   -0.7001520500    1.8568800302    0.7229767623
 H    0.1014256234   -1.8990394227   -2.2853127490
 H    1.2618203632   -2.6596301239   -1.1516726511
 H   -1.2946972701   -3.0854286336   -0.4544021653
 H   -0.6001899035   -0.4532230255    2.2209312497
 H   -2.3224255870   -0.4794039188   -0.2481922156