17

 C   -0.1009126247    1.5050108477   -0.2381647281
 O    1.1509775090    1.7030922382    0.4659868862
 C    1.4128668636    0.2627609870    0.5143513550
 C    1.7759903319   -0.3156218239    1.8417158075
 C    1.0199199142   -1.2486842829    2.4217198962
 C   -0.3031903738   -1.7589902126    1.8905592970
 C   -0.9048254353   -0.8817525165    0.8067583151
 O   -0.5032512905   -1.1205987257   -0.5676103152
 C   -0.0186850858    0.0214752491    0.0852955779
 H   -0.9228618547    2.0804828476    0.2005614617
 H   -0.0143175011    1.7389230180   -1.3078848279
 H    2.1581604339   -0.0023478931   -0.2505378666
 H    2.7113618745    0.0010320524    2.2944852658
 H    1.3541384443   -1.7011460007    3.3524892522
 H   -0.1897376388   -2.7839232670    1.5112951049
 H   -1.0123059842   -1.8303929329    2.7242467847
 H   -1.9595500224   -0.6312733548    0.9030845935