19

 C   -0.0121049333    0.9258892010    0.6129657574
 C   -0.1713901325   -0.5184157396    0.1828798147
 O    0.6337672512   -1.3678222032    0.4941822840
 C   -1.4091691233   -0.8105393075   -0.6681923816
 O   -1.6130067143   -2.1426059004   -1.0298664885
 C   -2.1818764583   -2.9502729697   -0.0314199985
 C   -2.3468294995   -4.4028671700   -0.3627556771
 C   -1.3199415517   -3.9819800429    0.6666408688
 O    0.0096477710   -4.1041933080    0.3053748285
 H    0.9959264091    1.0883007590    0.9954929423
 H   -0.2196299555    1.6154163696   -0.2115870968
 H   -0.7340015641    1.1486807880    1.4077257507
 H   -2.2860487173   -0.3822111922   -0.1509308776
 H   -1.2942698696   -0.2395824642   -1.5999900524
 H   -2.9706161869   -2.4520339076    0.5337786741
 H   -3.2552852395   -4.9096480343   -0.0570129436
 H   -1.9272982285   -4.7186745007   -1.3113197403
 H   -1.5432587306   -4.1822822023    1.7163697668
 H    0.3866196037   -3.2087178250    0.2972143691