21

 C    0.7631097808    1.3847712158    0.1333039496
 C   -0.0713060335    0.1169680769   -0.0489104643
 C    0.3246539287   -0.7065083495   -1.2807019110
 C    1.2330440215   -1.7880777062   -0.7065141611
 O    2.0004975788   -2.4915154456   -1.3097055062
 C    0.9900194256   -1.8349611215    0.8101109067
 C    0.3246846054   -3.1633084174    1.1902999195
 C    2.3082674827   -1.6379439751    1.5704738106
 O    0.0732862984   -0.7719349659    1.0757082576
 H    1.8361969608    1.1719901076    0.0807735005
 H    0.5256082591    2.1147881097   -0.6481414833
 H    0.5503030700    1.8363488610    1.1058306792
 H   -1.1307064248    0.3923724527   -0.0744044570
 H   -0.5433142881   -1.2052096237   -1.7280993366
 H    0.8278456661   -0.1434343785   -2.0690459847
 H    0.9843007997   -4.0003712229    0.9464732361
 H    0.1111949627   -3.1768097034    2.2629380202
 H   -0.6194792670   -3.2913651016    0.6532879164
 H    2.7684763988   -0.6768261800    1.3264914091
 H    2.1224080483   -1.6640241039    2.6479457121
 H    3.0123660259   -2.4325314886    1.3087909766