16

 C   -0.2213095043    1.5202547830    0.1799224039
 C    0.0586467863    0.0177260731    0.0660398755
 N    0.7110461371   -0.4588732028    1.2749557704
 C    0.1625754618   -1.3189578338    2.0241159603
 N    0.8184672385   -1.7841315644    3.1749664873
 C    0.0462123787   -2.2367786528    4.0867870344
 N   -1.3175747139   -2.3037943315    3.9276515260
 N   -1.8306748255   -2.3676300991    2.6361208223
 N   -1.1180345051   -1.9196123189    1.7175833756
 H    0.6951244749    2.0656550013    0.4214539426
 H   -0.6218723346    1.9049972633   -0.7630409640
 H   -0.9530746785    1.7207526905    0.9689726311
 H   -0.8634107674   -0.5229717998   -0.1745027382
 H    0.7661994403   -0.1466535649   -0.7567649263
 H    0.4429529122   -2.6209921657    5.0256918786
 H   -1.8932909207   -2.8084434776    4.5852738405