21

 C   -0.0382705044    1.5787003759   -0.0084756333
 C   -0.0281789498    0.0675432088   -0.0162234895
 C    0.3761215915   -0.7946099062   -1.2631368925
 C   -0.3472195199   -1.9391499570   -0.4704629179
 C   -0.8038038674   -3.2357651632   -1.0982212941
 C    0.5414878292   -1.9785895562    0.7854067595
 C    0.7463955786   -0.6892745388    1.0773130426
 C   -1.3507061597   -0.7971555374   -0.0389796518
 O   -2.1532849202   -0.9251989079    1.0902450039
 H    0.9765414072    1.9886344027   -0.0641058736
 H   -0.6047544424    1.9744301031   -0.8576661117
 H   -0.5033362274    1.9608939742    0.9071461576
 H   -0.1450211036   -0.5036467901   -2.1825727637
 H    1.4450774796   -0.9232316008   -1.4456690223
 H    0.0459106168   -3.8643311009   -1.3878292103
 H   -1.4220416429   -3.8107260867   -0.3997040007
 H   -1.4029258799   -3.0508230499   -1.9957057475
 H    0.8974944295   -2.8696173868    1.2855315270
 H    1.3153673019   -0.2403923212    1.8807876816
 H   -2.0155709469   -0.5058619860   -0.8587593237
 H   -1.5651507500   -1.1825979956    1.8141939103