17

 C    0.0088047892    1.2284266738   -0.2243860934
 C    0.2308005372   -0.2538854810   -0.3602861615
 O    1.2772107110   -0.8348440942   -0.2359169240
 O   -0.9364815704   -0.8881002561   -0.6536246084
 C   -0.8104775324   -2.2797247359   -0.8948965239
 C   -0.1754773650   -2.5755090851   -2.2476674059
 O   -0.0017688254   -1.7239612396   -3.0880161805
 C    0.2377168821   -4.0134934066   -2.5219640133
 O    0.6516937527   -4.1782304038   -3.8443118147
 H    0.9102876623    1.6963628802    0.1687828017
 H   -0.2216607600    1.6462221320   -1.2091946227
 H   -0.8447338139    1.4318665790    0.4266940615
 H   -0.2321808066   -2.7675959564   -0.1037393468
 H   -1.8285517776   -2.6825074307   -0.8876535347
 H    1.0406060564   -4.2613392935   -1.8049766984
 H   -0.6031942295   -4.6859775205   -2.2889294129
 H    0.6975850099   -3.2810874417   -4.2110937521