19

 O    0.1785452838    0.1684325715   -0.6177132555
 C    0.1813531155    1.2877386513   -0.1821023763
 C    1.4426200453    2.1053347039    0.1552604757
 C    2.7333805720    1.2238380613    0.1095504233
 C    3.5812894953    1.7588728056   -1.0646754820
 C    2.5613270998    2.4314930777   -1.9955025186
 C    1.6177562183    3.1396512218   -1.0172641032
 C    1.2037458315    2.7644305668    1.4319010555
 C    0.9668241692    3.3006872429    2.4822750492
 H   -0.7621449166    1.8515402124   -0.0168416115
 H    3.2642867377    1.2576772064    1.0617365603
 H    2.4268115210    0.1907402913   -0.0715993861
 H    4.2980689065    2.5066667290   -0.7055501835
 H    4.1555232872    0.9687828442   -1.5557517328
 H    3.0140992615    3.1217025897   -2.7125938752
 H    2.0127173176    1.6724647107   -2.5652957625
 H    0.6584724787    3.4370397357   -1.4531713088
 H    2.0845225137    4.0428299606   -0.6129135873
 H    0.7771384019    3.7750659771    3.4133150891