19

 C    0.0080165399    1.4936355824   -0.2062597911
 C    0.0788887881   -0.0127577543    0.1209939278
 C    0.7797227234   -0.2483069979    1.3833058072
 C    1.3406788788   -0.4352404922    2.4297472226
 C   -1.3251617942   -0.6151926602    0.1512817916
 C   -1.9628975589   -1.1502239469   -1.0853213510
 C   -1.5934395350   -2.1130794083    0.0417539553
 C   -0.5010896526   -3.0870469020   -0.1832165703
 O   -0.4826721680   -4.2022624207    0.2758295951
 H    1.0101423555    1.9266952008   -0.2531512389
 H   -0.4874159535    1.6480921253   -1.1692795096
 H   -0.5565837377    2.0279791098    0.5636023034
 H    0.6508812073   -0.4983889951   -0.6800385993
 H    1.8427756744   -0.6123612709    3.3486204585
 H   -1.9828264169   -0.1148050641    0.8570716427
 H   -3.0172667818   -0.9784554264   -1.2675869602
 H   -1.3547538538   -1.2001389570   -1.9843351847
 H   -2.3998956482   -2.5064987278    0.6506980135
 H    0.3222127230   -2.7286115045   -0.8432380024