14

 O    0.4814026187    0.9678843340   -0.6658800974
 C    0.0603424655   -0.1651822261    0.0191712824
 C   -0.0213004143   -0.1867702782    1.5677417730
 C   -1.2895828678   -1.0719948277    1.4518108403
 C   -1.4606320466   -0.6025382853   -0.0307946390
 C   -2.3260837219    0.5549736964   -0.1731047272
 N   -2.9560569316    1.5201899257   -0.2782985023
 H   -0.0978732888    1.7046318360   -0.4337506678
 H    0.6693882653   -0.9936246585   -0.3527921896
 H    0.8380632574   -0.5777252596    2.1149196393
 H   -0.2658118505    0.8078062222    1.9537239794
 H   -1.0607366617   -2.1390587437    1.4856203730
 H   -2.1177733174   -0.8623728803    2.1280728392
 H   -1.7305535464   -1.3580746050   -0.7716461933