18

 C   -0.0624817317    1.4974832175    0.0281281615
 C    0.0376579193    0.0012280971   -0.0132329219
 C    0.7457397167   -0.8079529499   -1.1272881339
 C   -0.2959010916   -1.8302241741   -0.6331941536
 C    0.1863116915   -2.2059717163    0.7807147973
 C    0.4656616182   -0.7491170484    1.2740035751
 O    1.8225683724   -0.4544816763    1.5586704103
 O   -1.2006443600   -0.7156030797   -0.3409333220
 H    0.9062555013    1.9220499313    0.3077582734
 H   -0.3604636352    1.9013604108   -0.9430591507
 H   -0.8015923491    1.8097705399    0.7738459143
 H    0.5017233358   -0.4195986419   -2.1169405935
 H    1.8092417053   -1.0286379052   -1.0220991028
 H   -0.7300380737   -2.6012656816   -1.2693610265
 H   -0.5964833555   -2.7102802780    1.3515670541
 H    1.0939582559   -2.8165272338    0.7885128503
 H   -0.1837479256   -0.4640638134    2.1116437792
 H    2.0654623861   -0.9005185280    2.3751785194