19

 O    0.1978105090    1.3263772853    0.2063409847
 C    0.0626052462   -0.0417823898   -0.1615099608
 C   -1.3622117212   -0.5080105278   -0.1311280883
 C   -2.0240607379   -0.9943908995    1.1277793304
 C   -1.9073529638   -1.9597579166   -0.0347301269
 C   -2.9881191113   -1.6238250882   -1.0807342410
 C   -2.4372746758   -0.1650701927   -1.1707861079
 C   -1.1979633366   -3.1893734186    0.0586274475
 C   -0.6045737371   -4.2360338530    0.1137472988
 H   -0.1701774151    1.4230338930    1.0911161691
 H    0.4639569903   -0.1084521968   -1.1785797073
 H    0.6769843501   -0.6974559181    0.4756559056
 H   -1.3595295434   -1.2094928466    1.9586901385
 H   -3.0066749706   -0.6273610336    1.4172098421
 H   -2.8538445549   -2.1802059063   -2.0094624895
 H   -4.0205681719   -1.7477279817   -0.7400961774
 H   -3.1244340233    0.6404978447   -0.8955937179
 H   -2.0145251148    0.0595848249   -2.1525120076
 H   -0.0821970780   -5.1585766487    0.1688079579