13

 N    0.0576710741    1.3124364039   -0.1288348113
 C   -0.0386123258   -0.0573772021   -0.0590794410
 N   -1.1234821810   -0.7715669192   -0.0664658161
 C   -0.6576859165   -2.0857488178   -0.0797719494
 N   -1.5518918886   -3.1532204685   -0.1516554293
 C    0.6938585036   -2.0869077492   -0.0726006672
 O    1.6352905220   -3.0448602201    0.0364205026
 O    1.1142703949   -0.7465594599   -0.0545668513
 H    0.8623245402    1.6989205329    0.3437991868
 H   -0.8069068234    1.7711022389    0.1192689234
 H   -2.4372444924   -2.9125149894    0.2757374623
 H   -1.1797829671   -3.9998808961    0.2589555865
 H    2.0360688500   -3.2138479033   -0.8265739360