14

 N    0.1081033390    1.3463124523    0.2820736303
 C   -0.0319940910    0.0053724948    0.0257675714
 C   -1.1973810958   -0.6890095381    0.1590976442
 C   -1.2349300646   -2.1016392053   -0.0648464555
 O   -2.1691136663   -2.8480953396    0.0059641710
 O    0.0134060498   -2.6929896805   -0.4380200079
 C    1.1807973408   -2.0206623780   -0.5508108065
 N    2.2974163630   -2.5480166103   -0.8275840300
 N    1.1119204645   -0.6456879317   -0.3430465700
 H    0.8069344203    1.8442424406   -0.2496826075
 H   -0.7549776932    1.8582044433    0.3802102677
 H   -2.1225742061   -0.1975323073    0.4205995663
 H    2.1923992979   -3.5527276953   -0.9474016123
 H    2.0071400618   -0.1825224450   -0.3282474613