13

 C   -0.4341499678   -1.1160519984   -0.5118480850
 C   -0.1096842252    0.0007462999   -0.2094082969
 C    0.2627245026    1.3514905454    0.1615651935
 C   -0.1339241079    1.8393122226    1.5820103192
 C    1.3904984711    2.0188474098    1.7915697122
 O    1.6800372484    1.4936877950    0.4826979726
 C    1.8545715096    3.3994142444    1.9615630193
 N    2.2068236179    4.4903548102    2.1068914224
 H   -0.7161035176   -2.1031439070   -0.7858711578
 H   -0.0126614124    2.0526619254   -0.6349488177
 H   -0.7279580681    2.7510259742    1.6152174568
 H   -0.5795996481    1.0726786347    2.2133845489
 H    1.8314992875    1.3992082737    2.5801776225