18

 C   -0.0125042495    1.4823508924    0.0717712664
 C    1.5149039036    1.3953777158   -0.0409680821
 O    2.0674357358    1.1310208610    1.2558767478
 C    1.7764890972   -0.2035247391    1.6468578108
 C    0.2919063163   -0.5202348323    1.3762572242
 N   -0.0644008210   -0.0284212724    0.0191756202
 C    1.2520312664    0.0405778330   -0.7469253097
 C    2.2308967791   -1.0828430257   -0.4677075938
 O    2.5802154439   -1.1055364131    0.9191078283
 H   -0.4196178423    1.9327163306    0.9805838769
 H   -0.5030959682    1.9017172078   -0.8123090698
 H    2.1098032451    2.1873396899   -0.5034780747
 H    2.0721789308   -0.2992890718    2.6928529394
 H    0.1450015724   -1.6036103511    1.4328147186
 H   -0.3658733425   -0.0489686467    2.1123427014
 H    1.0487325085    0.1416002064   -1.8158602680
 H    1.7931489424   -2.0492791489   -0.7577796217
 H    3.1473016620   -0.9399898659   -1.0536049043