17

 C   -0.0116968828    1.5742486567    0.1077865103
 C   -0.0421028527    0.0508846039    0.2427095026
 C   -1.3948699138   -0.5495474856   -0.1960496212
 C   -1.4026222708   -2.0448305330   -0.0872282278
 C   -1.9209575887   -2.7434829645    1.0048355163
 N   -1.8678386897   -4.0637362108    1.0594885351
 N   -1.3022738389   -4.7143036829    0.0424830923
 N   -0.8178060737   -4.0703981146   -0.9944041249
 N   -0.8580807768   -2.7444453047   -1.0816834346
 H    0.9565252711    1.9747679261    0.4217190961
 H   -0.1810636117    1.8824427253   -0.9293658719
 H   -0.7842538797    2.0449373755    0.7255892972
 H    0.7498351826   -0.3991848133   -0.3661646680
 H    0.1615226814   -0.2372083447    1.2815792467
 H   -2.2028600315   -0.1324294811    0.4160091930
 H   -1.5884411114   -0.2791476683   -1.2390378586
 H   -2.3912376030   -2.2397516040    1.8458530073