19

 C   -0.0237422996    1.5503105306    0.0442097120
 O    1.3481920352    1.9808787681    0.0066286366
 C    2.1395767086    0.7935818827   -0.0802218967
 C    1.9870578033    0.1347907674   -1.4537397377
 C    1.7290458082   -1.3429033494   -1.2477797906
 C    1.8709236090   -1.6302607320    0.2418409829
 C    1.3736903610   -0.2725029694    0.7433543695
 C    0.0529549545    0.0170352440   -0.0259981257
 C    0.5600137206   -0.3962111408   -1.4139231732
 H   -0.4877016274    1.9034553478    0.9754337857
 H   -0.5745066423    1.9835922406   -0.8000686927
 H    3.1552935765    1.0394650470    0.2325638725
 H    2.4340853839    0.5415248618   -2.3503918279
 H    1.9757001036   -2.0683522587   -2.0121686466
 H    1.2434955055   -2.4636505288    0.5769000475
 H    2.9043913480   -1.8361724627    0.5417465765
 H    1.3514089656   -0.1020161637    1.8189919728
 H   -0.8419913023   -0.4991223614    0.3266224952
 H   -0.0773937420   -0.4003599633   -2.2883623700