18

 C   -0.0556852670    1.4860220745   -0.0090100761
 C    0.0181088071   -0.0246194349   -0.0037483253
 O    0.6996226740   -0.4396414430   -1.1659029848
 C    0.7654259610   -1.8551626954   -1.2596295085
 C    1.3238442861   -2.4531389486    0.0074272405
 C    0.8025124432   -1.8411307518    1.2857691478
 O    0.7012051671   -0.4286309062    1.1608009498
 N    2.1579502894   -3.4091727164   -0.1014777398
 O    2.5463884954   -3.9215158316    1.1456356140
 H    0.9562588898    1.8979114739   -0.0110477124
 H   -0.5830642356    1.8297905976   -0.9013991162
 H   -0.5824047083    1.8372776484    0.8807952647
 H   -0.9928747923   -0.4810214865   -0.0026432739
 H   -0.2468922715   -2.2616232711   -1.4353671501
 H    1.3922891299   -2.1089798931   -2.1157211169
 H   -0.1837823631   -2.2774636443    1.5231455175
 H    1.4749086995   -2.0466206956    2.1180405802
 H    3.2116815755   -4.5728464259    0.8995051595