16

 O    0.1216442491    1.4603087382   -0.0283338463
 C    0.0835946853    0.0572098369   -0.0318734844
 C    0.2350209454   -0.6168015431    1.3598856387
 N   -1.2409976363   -0.7037246312    1.4217508131
 C   -1.8270987912   -1.8572902377    2.0691442967
 C   -3.2933490297   -1.8039652045    2.0348444391
 N   -4.4469198101   -1.7701964544    1.9914687405
 C   -1.3354128747   -0.5730049970   -0.0507928861
 H   -0.5016773942    1.7701915360    0.6390063451
 H    0.7744005732   -0.2693901133   -0.8090562374
 H    0.7301615898   -1.5996163455    1.2948265627
 H    0.7011477180   -0.0255694144    2.1547584057
 H   -1.5099802814   -2.8165232116    1.6144503874
 H   -1.5068050181   -1.8802325258    3.1175858656
 H   -2.1580794376    0.0513721492   -0.4113037026
 H   -1.3553606774   -1.5425999418   -0.5740627578