19

 C   -0.2727059825    1.7532105676    0.5948753691
 C   -0.0298197315    0.2593473687    0.5582848484
 O    0.8497533713   -0.1897653018   -0.5184644165
 C    1.5756446495   -1.0057497302    0.3931116342
 C    2.3114213453   -0.2287440644    1.4402335287
 C    3.0429610609    1.0725886130    1.3023000065
 C    4.1442071839    1.2481852532    0.3417157355
 O    2.8788463693    1.8739921206    0.1365076417
 C    0.8191944061   -0.4773890892    1.6013607490
 H    0.6568993678    2.3170263917    0.6681672686
 H   -0.7894367013    2.0663476082   -0.3183817443
 H   -0.9166595400    2.0004856901    1.4464085618
 H   -0.9871179287   -0.2698283690    0.4512443242
 H    1.8305700280   -2.0109089706    0.0736289269
 H    2.8556103932   -0.9025249358    2.1046723025
 H    3.0932642817    1.6543394368    2.2260705894
 H    4.9691260864    1.9196080316    0.5767117126
 H    4.3763538424    0.4415601753   -0.3517450870
 H    0.4174674081   -1.0013117559    2.4588999687