16

 O   -0.0299689956    0.5976433693    1.1600059149
 C   -0.0913506157    1.4907811483    0.3696532038
 C   -1.2935400345    1.9549560660   -0.4519512776
 C   -0.8883243536    3.3513078372   -0.9396674165
 C   -1.3601676759    4.4446390366    0.0470214031
 C   -0.9544719687    5.7843489037   -0.3718165436
 N   -0.6172427259    6.8304321604   -0.7284798665
 C    0.6474048530    3.2179305518   -0.9689203696
 O    0.9784638046    2.2799931974    0.0668196207
 H   -1.4237801265    1.2587795209   -1.2873783341
 H   -2.2027616043    1.9189771477    0.1507166212
 H   -1.2767910328    3.5811535936   -1.9337112892
 H   -2.4515959831    4.4200848439    0.1362693089
 H   -0.9549480075    4.2522858835    1.0479322928
 H    0.9969706044    2.8243214892   -1.9299063731
 H    1.1734306021    4.1519650406   -0.7608288550