20

 C   -0.1035350108    1.5620200860   -0.0139758144
 C    0.0462927662    0.0638469543    0.1226896958
 N    1.2441297748   -0.7203594610   -0.2823067455
 C    2.4578582238    0.1038265822    0.1134963698
 C    2.0397015367    0.0859114093    1.6145883807
 C    0.7825527868   -0.6677922668    1.1773653076
 C    0.2365923743   -1.8658370676    1.8974242567
 C    3.7013889449   -0.5750089721   -0.1956437142
 C    4.7433276072   -1.1263673056   -0.4305434466
 H    0.6865519748    2.1301459467    0.4820475364
 H   -0.1201136853    1.8546028553   -1.0697338249
 H   -1.0549514036    1.8738415946    0.4293493956
 H   -0.8366708600   -0.4708689640   -0.2251730811
 H    2.4621374869    1.0932912341   -0.3557482028
 H    2.7110507994   -0.5319883817    2.2120811408
 H    1.9054276624    1.0500009162    2.1138531756
 H   -0.2607941930   -1.5667064765    2.8281087267
 H   -0.4945128596   -2.3923321610    1.2771871010
 H    1.0350246210   -2.5704510845    2.1535328475
 H    5.6595343332   -1.6160503479   -0.6498971145