21

 C   -0.4459455198    1.3320902056    0.0947002598
 C    0.1338524258   -0.0765372569   -0.1574843278
 C    0.9665919864   -0.1135384553   -1.3592355903
 C    1.6578007827   -0.1365153787   -2.3429606213
 C    0.9038931459   -0.6012797164    1.0643547295
 C    2.1066365487    0.2120477298    1.4956739818
 O    0.0548571426   -1.0308085208    2.1404561897
 C    0.8329853148   -2.0238874680    1.4514598304
 C    0.0986538512   -3.1224982233    0.7264006912
 H    0.3451554088    2.0793363181    0.1929266941
 H   -1.0873742651    1.6306352951   -0.7381552992
 H   -1.0413121434    1.3241011866    1.0118748935
 H   -0.7163974409   -0.7483017419   -0.3112376885
 H    2.2616502343   -0.1627889057   -3.2160261108
 H    1.8066330617    1.2117496218    1.8240717189
 H    2.6139898830   -0.2754453787    2.3312366678
 H    2.8135845876    0.3227143834    0.6682541581
 H    1.6773346632   -2.3863174862    2.0432412721
 H   -0.7495689181   -2.7511558133    0.1494424423
 H    0.7794600171   -3.6467394913    0.0474015942
 H   -0.2823832264   -3.8524877837    1.4484037344