18

 O   -0.0737676005    1.3682332752   -0.0822357606
 C    0.0156015977   -0.0348703949   -0.0374390898
 C   -1.2546942181   -0.6648400067   -0.5285721444
 C   -1.7159238018   -1.5740302360    0.3332667237
 C   -0.8500386889   -1.7354857350    1.5686763723
 C    0.2959631960   -0.7390853442    1.3202818329
 N    1.6488340206   -1.2476398188    0.8460665448
 C    1.4443749063   -2.0747621615   -0.3579393987
 C    1.3754156414   -0.6122313139   -0.5105920923
 H    0.7607090338    1.7317603279    0.2351602147
 H   -1.7127099889   -0.3929728453   -1.4725186230
 H   -2.6188325804   -2.1586756755    0.1872037760
 H   -1.4090086334   -1.5120887793    2.4856692148
 H   -0.4758319626   -2.7611666580    1.6818722396
 H    0.4675394111   -0.0544429473    2.1528197738
 H    2.3587995417   -2.5703365173   -0.6712593941
 H    0.5460580170   -2.6743416929   -0.4717513836
 H    2.1286553890   -0.0304874865   -1.0363825261