22

 C    0.0712627030    1.5351861616   -0.0380991232
 C    0.0951074910    0.0043457942   -0.0348251093
 C    0.7342544600   -0.5842690271   -1.2966893155
 C    0.7552644769   -2.1062937828   -1.2925812090
 O    1.3607380416   -2.5595423526   -2.4870800391
 C    1.4484858403   -3.9677296244   -2.5907267668
 C    2.2567633456   -4.2631096464   -3.8447453997
 O    3.5440113605   -3.6836958748   -3.7734004736
 H    1.0846751381    1.9465740490   -0.1007038362
 H   -0.4942243315    1.9198308987   -0.8939182871
 H   -0.3924288876    1.9284245871    0.8717928860
 H    0.6395289609   -0.3510937885    0.8500192147
 H   -0.9297809194   -0.3766330764    0.0667501898
 H    0.1919043339   -0.2434213394   -2.1872376889
 H    1.7640532580   -0.2199240929   -1.4008396347
 H    1.3128043788   -2.4829511149   -0.4178460275
 H   -0.2708763554   -2.5046281707   -1.2145983975
 H    1.9595817726   -4.3842902868   -1.7076157987
 H    0.4460287866   -4.4231436816   -2.6534009773
 H    2.3898985377   -5.3444385116   -3.9549883955
 H    1.6992166569   -3.8995787622   -4.7230273624
 H    3.3995205216   -2.7712602775   -3.4952571984