19

 C   -0.1792485325    1.5161428244    0.0494033953
 C    0.0278211215   -0.0043772162    0.0260569520
 C    0.7475593027   -0.4527263732   -1.2640210645
 C    1.0474201566   -1.9402086506   -1.2714673366
 O    0.7240667258   -2.6679060449   -2.1804727372
 C    1.7979610128   -2.4844304137   -0.0552270000
 C    1.6521687898   -1.6603209536    1.2073537641
 O    2.2202866222   -0.3437064155    1.1924299092
 C    0.7925535336   -0.4690854664    1.2509172972
 H    0.7850479887    2.0347441723    0.0532629489
 H   -0.7418293965    1.8485958391   -0.8282572174
 H   -0.7332960614    1.8254951020    0.9417333257
 H   -0.9582577372   -0.4897994418    0.0621759067
 H    0.1558605976   -0.2137452992   -2.1503966666
 H    1.7026457681    0.0837243451   -1.3263670020
 H    1.4604825282   -3.5114921615    0.1138312151
 H    2.8622844130   -2.5485762652   -0.3210648305
 H    1.8349579528   -2.2011611029    2.1360962658
 H    0.3605607643   -0.1764974982    2.2095092448