20

 C   -0.1649802321    1.5107189652    0.0471598107
 C    0.1012610432    0.0027832541    0.1184426583
 C    0.7386922222   -0.5367100640   -1.1595375304
 C    0.8862874244   -2.0558847565   -1.3631572835
 N   -0.4803783290   -2.5999854910   -1.3620971277
 C    0.0928539309   -2.0498266363   -2.6442192782
 C    0.1602555522   -2.8557992584   -3.9020042668
 C   -0.0736627929   -0.5485207541   -2.4934961051
 O   -0.5008832777    0.3111224983   -3.2099381256
 H    0.7673022038    2.0737891197   -0.0744248364
 H   -0.8099163372    1.7561054227   -0.8014274145
 H   -0.6512773231    1.8653894400    0.9609464963
 H    0.7626061214   -0.2189451494    0.9663252757
 H   -0.8315371126   -0.5401331913    0.2986383290
 H    1.6859656916   -0.0216360826   -1.3702237014
 H    1.7455098482   -2.6700564774   -1.1238035876
 H   -0.4129888322   -3.6150928244   -1.4504215276
 H    0.5603513533   -3.8570182564   -3.7086753674
 H   -0.8335491676   -2.9679035880   -4.3483001599
 H    0.8031966231   -2.3684362803   -4.6414735078