16

 O   -0.0909581457   -0.0018901262    0.1574159416
 C   -0.0349904170    1.1887871352    0.0557069095
 N   -1.0356882837    2.1791565622    0.0467661153
 C   -0.0674897069    3.2749375942   -0.0531385335
 C    0.9400796054    3.2440676885    1.0524100160
 C    1.0664287660    2.2485850800   -0.1065458170
 C    1.8840651455    2.6174764745   -1.2908532845
 C    1.3606331726    3.6843540252   -1.9111817246
 C    0.0682579777    4.1838058865   -1.2671725112
 H   -1.8554305717    2.1717233857    0.6440805273
 H    1.6962985324    4.0226313044    1.0679263337
 H    0.6356322753    2.8827589008    2.0296945867
 H    2.7847742776    2.0971675253   -1.5929102787
 H    1.7980276989    4.1734798109   -2.7762520809
 H   -0.7886573555    4.0627631252   -1.9403811221
 H    0.1188971193    5.2475413977   -1.0075863374