18

 C   -0.0258096594    1.4823190660   -0.2248278789
 C    0.1170067311   -0.0064814937   -0.0008560656
 C    1.3916793399   -0.7783793074   -0.1017059877
 N    2.5448770375    0.0076656666    0.4938940712
 H    3.4089947959   -0.5290170046    0.5373630422
 H    2.7422116108    0.9124677847    0.0609759553
 C    1.7958750247    0.0353252199    1.8517569647
 C    0.6225914574   -0.6994119387    1.2298383476
 C   -0.0647170640   -1.8980942561    1.9428229387
 O    0.3956232090   -2.0897654913    3.0825473188
 O   -0.9076541280   -2.4728666066    1.2408157005
 H    0.7869205220    2.0716676212    0.2189162619
 H   -0.0645658059    1.7218200969   -1.2924454237
 H   -0.9524176681    1.8401815305    0.2329656182
 H   -0.6905981513   -0.6210761390   -0.3991192635
 H    1.6344560512   -1.6023622087   -0.7597429267
 H    2.3076299016   -0.6027385242    2.5707994337
 H    1.6819631957    1.0558926845    2.2237112732