16

 N    0.1044145210   -1.1166034288    0.0308388281
 C    0.0666498840    0.0378980111    0.0022908485
 C   -0.0123302447    1.4881545239    0.0037841055
 C   -1.0260074667    2.1588762157    0.9932740863
 N   -1.5363330910    3.0642875948   -0.0859804594
 C   -0.3501497729    3.6002378772   -0.8271537427
 C    1.0247076105    3.5773180806   -0.1782308531
 N    1.3016571589    2.1327814112   -0.0086345607
 C   -0.8095903993    2.2308416921   -1.1027382514
 H   -1.8358216043    1.4950838778    1.3015037429
 H   -0.5960061567    2.6536547114    1.8707440640
 H   -0.6147162298    4.4160912321   -1.4891993702
 H    1.7725361281    4.0358903352   -0.8342563744
 H    1.0279460354    4.1368036945    0.7681347958
 H    1.8120360142    1.9391131031    0.8478513899
 H   -1.2544419966    1.8225380981   -2.0005048589