21

 C   -0.2137341365    1.5592926134   -0.0642759971
 C    0.0071099225    0.0484717599    0.0773546496
 O   -1.2222979453   -0.6510916250    0.1759441982
 C    0.8156750443   -0.5142432368   -1.0639808895
 O    0.0666388487   -0.8176920329   -2.2611647250
 C    0.8365339468   -1.8675985070   -1.6370439165
 C    2.2799984921   -1.7056143465   -2.1209436270
 C    2.2749357997   -0.2533079419   -1.5070904757
 C    2.5393319564    0.9204402905   -2.4393539028
 H    0.7347487434    2.1057760510   -0.0332940275
 H   -0.7102428238    1.7874155329   -1.0131912483
 H   -0.8468429172    1.9147595695    0.7525416859
 H    0.5444617789   -0.1492700534    1.0138683979
 H   -1.5460838904   -0.7342820176   -0.7313350916
 H    0.2960841589   -2.7607453859   -1.3470936822
 H    2.9851385607   -2.3751987470   -1.6232193718
 H    2.4124272945   -1.7730510874   -3.2038607275
 H    2.9333118113   -0.2150890062   -0.6327384150
 H    1.8355193596    0.9055344599   -3.2761875510
 H    2.4357747875    1.8794441983   -1.9208446136
 H    3.5548499879    0.8715812223   -2.8463750195