18

 C   -0.1029543472    1.5664267144    0.0399536182
 N    0.0008281872    0.1192987010    0.1607355231
 C   -1.2251312924   -0.6081167539   -0.0880431454
 C   -1.7545076624   -0.6988019033   -1.5146004051
 C   -2.1636874914   -1.9270279155   -1.8439617972
 C   -2.0538559278   -2.8890814842   -0.6874841982
 O   -1.5541417849   -4.1614406982   -1.0146454452
 C   -1.0937043389   -2.1116477821    0.2286529001
 O   -0.2758646734   -2.6477901960    0.9277202360
 H    0.8716750512    2.0149920472    0.2519991584
 H   -0.4368669452    1.9327624684   -0.9461958146
 H   -0.8102768197    1.9416539668    0.7885699217
 H    0.7477292806   -0.2421657464   -0.4218368536
 H   -1.9944925682   -0.1876691606    0.5800732498
 H   -1.7782911935    0.1639426774   -2.1707512909
 H   -2.5633165987   -2.2326368462   -2.8038123887
 H   -3.0294412983   -2.9834332167   -0.1743028862
 H   -0.8925721770   -4.3645382020   -0.3371731022