21

 C   -0.0676317804    1.5831628877   -0.1684474696
 C    0.0071033610    0.0563612922   -0.0647186443
 C    1.1243942640   -0.5651023347   -0.9347842890
 C    2.2599556929   -0.8800333369    0.0951466714
 C    1.4975401163   -1.0806864919    1.4031729788
 C    0.3046615867   -0.5040485808    1.3081769051
 C   -1.1488498335   -0.6354588852    1.6862227069
 C   -1.4052698129   -0.6035089900    0.1245351470
 O   -2.4837811336    0.1494717090   -0.3714044024
 H    0.9297913266    2.0199825097   -0.0534520731
 H   -0.4644741976    1.8816984314   -1.1435944796
 H   -0.7185776734    2.0171824425    0.5949351654
 H    0.7787056245   -1.5037498620   -1.3825888116
 H    1.4587647500    0.0853960057   -1.7489052250
 H    2.8311590454   -1.7725443077   -0.1834581597
 H    2.9884960558   -0.0594252437    0.1581139585
 H    1.8757259714   -1.6800987321    2.2238031273
 H   -1.4596248229   -1.5157958646    2.2541815109
 H   -1.5720386372    0.2638673416    2.1457928524
 H   -1.4048468524   -1.6279757982   -0.2742064096
 H   -3.3015608604   -0.3044991722   -0.1448161597