18

 C   -0.1558644838   -1.3096143625   -0.1685754321
 C   -0.0773825872   -0.1132351501   -0.0697606821
 C    0.0211029296    1.3250897342    0.0402792363
 C   -0.0826192082    2.0517775787    1.4166841763
 C    0.9859327137    1.3285953942    2.2615554291
 C    2.1571711912    1.8294202952    1.3913316559
 C    1.9798201536    3.3487329616    1.5744437904
 N    0.7101230181    3.2204157176    0.7795190612
 C    1.3720649387    2.0592114836    0.0369033677
 H   -0.2281597275   -2.3652213957   -0.2582730856
 H   -0.6327567869    1.8236795407   -0.6816543595
 H   -1.0469540726    2.2967973288    1.8578665661
 H    1.0509998018    1.6816133373    3.2939839161
 H    0.8486428626    0.2458156168    2.2632827616
 H    3.1176933846    1.3179256637    1.4541902244
 H    1.8828414780    3.7497085954    2.5887037952
 H    2.6802632448    3.9610223232    0.9991374704
 H    1.9339189595    2.2761362974   -0.8719320613