21

 C   -0.1127284711    1.5541373371    0.0511943792
 C    0.1210138496    0.0724182293   -0.0245851703
 O   -0.7184843535   -0.7517491523    0.8335870678
 C    0.6961011737   -0.7778250127    1.0328666748
 C    1.4223494680   -1.9705965179    0.3935967124
 C    2.9332666210   -1.8726293444    0.6688099789
 C    0.8623285253   -3.3158326205    0.8878700412
 C    1.1220812020   -1.7457083168   -1.0841035327
 C    0.4399717516   -0.6230598742   -1.3145841405
 H    0.7412175828    2.1038065659   -0.3587441318
 H   -1.0006667926    1.8361863294   -0.5256044963
 H   -0.2683444436    1.8661294848    1.0866683940
 H    1.0405833185   -0.3880971697    1.9897281319
 H    3.1396063149   -1.9827768337    1.7398204500
 H    3.4781398861   -2.6616821040    0.1403409326
 H    3.3345064222   -0.9089555046    0.3396370766
 H   -0.2227297158   -3.3428982710    0.7651071779
 H    1.2985739387   -4.1496417658    0.3273051630
 H    1.0951761098   -3.4691528654    1.9473311699
 H    1.4219473292   -2.4682438852   -1.8369853117
 H    0.1187964530   -0.2547752884   -2.2821187166