16

 C   -0.0735386582   -1.1776706503    0.3091335899
 C   -0.0626326245    0.0064781322    0.1076710607
 C   -0.0234808798    1.4452905572   -0.1480279051
 C    1.3740655298    2.0042035662   -0.1595513784
 N    2.1643472982    2.3031991458    1.0498034538
 C    1.8774010385    3.3780975036    0.0625060916
 C    2.8779677342    3.2024323710   -1.1374086828
 O    3.7187733761    2.0792547349   -0.8835493033
 C    2.3962049891    1.8388310995   -1.3538724053
 H   -0.0840135871   -2.2233081622    0.4938785229
 H   -0.5055914650    1.6560171162   -1.1128118381
 H   -0.6184847810    1.9755778186    0.6077922917
 H    1.4991239143    2.4256911942    1.8149133934
 H    1.3474679852    4.2827822696    0.3305415780
 H    3.2275047487    3.9659162140   -1.8211402554
 H    2.2636236715    1.2431997696   -2.2491174035