18

 C   -0.1481196694    1.5521219069    0.0012829142
 C    0.0040914916    0.0380746190   -0.0257974983
 C   -1.2076428034   -0.8100787414    0.4465607273
 O   -0.3792980662   -1.5630832617    1.3538422229
 C    0.7595104701   -0.7031549672    1.1197047779
 C    1.9503806458   -1.4518070339    0.5059158387
 C    1.7082157355   -1.3063403666   -0.9800861524
 C    0.6773411439   -0.5088395197   -1.2602851988
 H    0.8189033647    2.0481388711   -0.1327204314
 H   -0.8084114404    1.8946961480   -0.8040091375
 H   -0.5770789216    1.8909057915    0.9501289740
 H   -1.9778362415   -0.2343783721    0.9796297104
 H   -1.6883906075   -1.4501842794   -0.3024268479
 H    1.0099340611   -0.1232468845    2.0159037950
 H    2.9166937994   -1.0252802206    0.8072035044
 H    1.9441913505   -2.4963553345    0.8394394460
 H    2.3240882378   -1.8055250086   -1.7207925954
 H    0.3297888597   -0.2637564762   -2.2591144093