17

 C    0.0968285765    1.4994122000    0.0972414350
 C    0.0897028085   -0.0287388287    0.0136608975
 C    0.6034305337   -0.5592557332   -1.3198584357
 O    1.9655046002   -0.1101761984   -1.5367217928
 C    2.7892778423   -1.1143442370   -1.9484336837
 O    3.9030695088   -0.9279019890   -2.3401264788
 C    2.0406395807   -2.4190331193   -1.8250207582
 O    1.5892673717   -2.6289949697   -0.4736326739
 C    0.6776456355   -2.0735263852   -1.4182437037
 H    1.1082855194    1.8904209350   -0.0376264565
 H   -0.5417933340    1.9431339394   -0.6745865977
 H   -0.2728490805    1.8350596861    1.0701410194
 H    0.7047241311   -0.4644442638    0.8074764636
 H   -0.9297219221   -0.4115148087    0.1513806123
 H    0.0005555064   -0.1665879140   -2.1497317874
 H    2.3489450917   -3.2923209819   -2.3871843365
 H   -0.1979963200   -2.6671344915   -1.6617971729