19

 C    0.0632902809    1.5795038042   -0.2185645581
 C    0.0259414937    0.0733264267   -0.0627995951
 C    1.3090491885   -0.7427560701    0.0071543570
 O    2.5314991691   -0.0691388611    0.1228047552
 C    0.4120542112   -0.6192068391    1.2239839271
 N    0.8070120099    0.1407687503    2.3798152272
 C    1.7984350882   -0.5697226462    3.1914959263
 C    2.1605263083    0.2133956874    4.3762819578
 N    2.4653423994    0.8376498096    5.2990471173
 H    1.0130432006    2.0015066379    0.1211872860
 H   -0.0560621205    1.8574711948   -1.2710606053
 H   -0.7433334825    2.0593976740    0.3444982063
 H   -0.7917951627   -0.4046897407   -0.5957077008
 H    1.3556808908   -1.6918672117   -0.5258182536
 H    2.7703473223    0.2864375202   -0.7398590902
 H   -0.1663754167   -1.5004794639    1.4918119409
 H    1.1965114322    1.0326010315    2.0990005389
 H    1.3610730498   -1.5178382752    3.5280062887
 H    2.7208644178   -0.8164857286    2.6429819343