21

 C    0.3231214617    1.3331002168    0.2618812837
 O   -0.0964533382    0.0123991846   -0.0412477077
 C    0.5022655025   -0.5200419976   -1.1593621533
 C    1.9435705513   -0.9951950410   -1.1656426377
 C    0.8475964802   -1.9771122474   -1.4666535428
 O    0.7616111813   -3.1352483913   -0.7198906709
 C    0.3578736516   -1.8132868100   -2.9152880527
 C   -0.8563913839   -2.6656663093   -3.2652815275
 C    0.0209098990   -0.3103645576   -2.5997610846
 H    1.4080297227    1.3791646303    0.4286362017
 H    0.0619235301    2.0370551562   -0.5407742616
 H   -0.1955205209    1.6306733553    1.1760504724
 H    2.6563923310   -0.6805559300   -1.9265965433
 H    2.3555147917   -1.1257681137   -0.1695172751
 H   -0.1690827673   -3.3678511871   -0.6288799562
 H    1.1431827122   -1.9526825419   -3.6682780853
 H   -1.6642671053   -2.5260331659   -2.5356917003
 H   -1.2543114618   -2.3961415630   -4.2487625649
 H   -0.5993731776   -3.7299968413   -3.2862006595
 H   -1.0540427392   -0.1169507703   -2.6548002984
 H    0.5531009990    0.4418800542   -3.1914656959