18

 C   -0.1517003751    1.4459674795    0.0108013852
 C   -0.0177455811   -0.0450691787    0.0828351507
 C   -0.0441233858   -0.9453060843   -1.1796984058
 N    0.7323711031   -2.1575582592   -0.8280083590
 C    0.0166172757   -2.1189183227    0.4931429349
 C    0.7094744890   -0.8890087610    1.1396047626
 O    2.1039506351   -0.8980327998    1.2026084800
 C   -1.0774880731   -1.1081052852   -0.0906827492
 O   -2.4342875233   -0.9600854285    0.0206720918
 H    0.8194747031    1.9171681043   -0.1738152417
 H   -0.8325863848    1.7479411929   -0.7919813665
 H   -0.5484332694    1.8497966385    0.9485233447
 H   -0.0867315734   -0.5255939193   -2.1767547345
 H    0.3760821137   -2.9417076154   -1.3711642079
 H   -0.1158250494   -3.0610016932    1.0212772220
 H    0.3185656333   -0.6796543882    2.1394859761
 H    2.3814713598   -1.3216864545    0.3757843571
 H   -2.8666463974   -1.6429153652   -0.5051316206