12

 N    0.0462208597    1.3386295890    0.1458164747
 C   -0.0491342936   -0.0236635152    0.0476339319
 N   -1.1196981578   -0.7516671604    0.0358734944
 C   -0.6251718866   -2.0662163971    0.0067798563
 C    0.7316945497   -2.0301726773   -0.0040414279
 O    1.1196217968   -0.7105507721    0.0235208971
 C   -1.4636711343   -3.2041836041   -0.0112184490
 C   -2.1732975627   -4.1759779589   -0.0273824469
 H    0.8705038592    1.7418259547   -0.2743117028
 H   -0.8103472249    1.8144643937   -0.0948783928
 H    1.5133156948   -2.7673639718   -0.0323789976
 H   -2.8021603903   -5.0312508606   -0.0406676175