15

 C   -0.0086446305    1.3850437635    0.0260398215
 C    1.4376950022    1.9065995151    0.0425861090
 O    2.1510093517    1.4954290976    1.2074402776
 C    1.9059190092    0.1709807258    1.4289929665
 C    0.8863179919   -0.5172124683    0.8376692734
 N    0.9740295850   -1.8010408824    1.3174016532
 C    2.0506888829   -1.8120944600    2.1709647473
 N    2.6291480216   -0.6315540767    2.2564509232
 O   -0.0553447238   -0.0520391596   -0.0200933760
 H   -0.5370316703    1.7320948258    0.9231864447
 H   -0.5311638516    1.7401158379   -0.8647117735
 H    1.9590422384    1.5490628570   -0.8566369666
 H    1.4349940406    2.9993416770    0.0420324878
 H    0.3760293483   -2.5718032871    1.0725569621
 H    2.3603075143   -2.7065128058    2.6874982500