21

 C    0.2765528948    1.3910747892    0.3588102759
 C   -0.1728995825   -0.0190295224   -0.0256017835
 O   -1.5894296911   -0.1031750704   -0.1821660672
 C    0.5473735669   -0.5541646896   -1.2637684426
 C    0.2602867953    0.1858459132   -2.5568655977
 N    1.9316953307   -0.9944887678   -0.9991617885
 C    0.9098221568   -1.9973009190   -1.3662256158
 C    0.5765431561   -3.0694690506   -0.3559894623
 H    1.3601720603    1.4171021734    0.5036005840
 H    0.0200167725    2.1221050152   -0.4177330143
 H   -0.2113264322    1.7013304425    1.2869398695
 H    0.0577705589   -0.6849630106    0.8092445670
 H   -1.8742229566    0.6510954535   -0.7080814097
 H    0.5986626543    1.2273492479   -2.5142484255
 H    0.7673560061   -0.2932917623   -3.4002153315
 H   -0.8124415462    0.1872020959   -2.7786294516
 H    2.5300943740   -0.7823180225   -1.7939396894
 H    0.9524700594   -2.3702888998   -2.3901465993
 H    0.6635321319   -2.7025364187    0.6682879156
 H   -0.4422547449   -3.4414102065   -0.5066959068
 H    1.2660169656   -3.9142177409   -0.4610364065