13

 C    0.0180328922    1.4670222230    0.0082687609
 C    0.0149131029   -0.0277292686    0.0483904899
 N   -0.0801866716   -0.7595315628   -1.0639521956
 N   -0.0512167832   -2.0328623237   -0.6440639916
 C    0.0600233647   -2.1566074492    0.7070100861
 C    0.1053357617   -0.8659409136    1.1872210955
 O    0.2153619771   -0.5144657068    2.4999776803
 H    0.9402290401    1.8872102115    0.4293214146
 H   -0.0619280561    1.8056786979   -1.0266459665
 H   -0.8233704975    1.8947751266    0.5680523816
 H   -0.1104919545   -2.7712997545   -1.3226581270
 H    0.0972807844   -3.1094643421    1.2077252688
 H    0.2243799297    0.4455473124    2.5584773030