15

 O   -0.0824818922   -0.0204363701   -0.1322247819
 C   -0.0455809369    1.1715075829   -0.1009286913
 O   -1.1390447133    1.9680761947   -0.2024442281
 C   -0.8149933899    3.3716902798   -0.1495611178
 C   -1.1122697750    4.0117723977    1.2261604632
 C    0.4125882325    4.0605725235    1.5303633872
 C    0.7105692377    3.4944052697    0.0940849295
 C    1.2057969222    2.0742018705    0.0625901794
 O    2.3239343564    1.6516050921    0.1557847203
 H   -1.2528230759    3.8415082040   -1.0309004770
 H   -1.5827417165    4.9943120531    1.1525743537
 H   -1.7159087850    3.3801641296    1.8801769526
 H    0.8222437586    5.0582614569    1.6903480372
 H    0.7512432749    3.4167795532    2.3445274190
 H    1.2881411025    4.1492561724   -0.5574432760