16

 O    0.0410990824    1.4233623989   -0.1262322212
 C    0.0641416808    0.0245707537    0.0184597744
 C   -1.3508109839   -0.5465193460    0.1098943668
 N   -1.9869668130   -0.1880490097   -1.2245753014
 C   -2.5090037192   -1.2978003242   -1.5343133632
 O   -1.9328787121   -2.1621232328   -2.4766301108
 C   -1.6539570164   -2.9448897314   -1.2292367233
 C   -1.4471703500   -2.0959008001    0.1311428084
 C   -2.7759890990   -2.4106932489   -0.4688459518
 H   -0.5123185069    1.5877742996   -0.9014578717
 H    0.5937985353   -0.4712875648   -0.8090447243
 H    0.5988349208   -0.1987318173    0.9502898082
 H   -1.8646291886   -0.1085026448    0.9776733559
 H   -1.2686311369   -3.9433020485   -1.3943285377
 H   -1.0448032858   -2.6661460876    0.9656938376
 H   -3.7014395874   -2.8211403061   -0.0901279059