17

 O    0.0010690778   -0.0403559894    0.0039863242
 C   -0.0105285084    1.1639949218    0.0111978822
 C   -1.2695651090    2.0301325414    0.0314196835
 C   -0.8128863918    3.4960263658    0.0320861111
 O   -0.0479721871    3.7637181707    1.1899092157
 C    1.1422482976    2.9670866061    1.2413560206
 C    1.2208849339    2.0601673538   -0.0021305788
 C    1.1082057994    2.9780993276   -1.2349332052
 O   -0.0798753119    3.7743439470   -1.1436891749
 H   -1.8851900070    1.8097746218   -0.8466994915
 H   -1.8621061997    1.8017117786    0.9232394874
 H   -1.6457659395    4.2001559214    0.0466507104
 H    2.0114670682    3.6371259598    1.2653624362
 H    1.1398722970    2.3785211704    2.1672031887
 H    2.1375994828    1.4683682276   -0.0173887872
 H    1.9766099228    3.6483090977   -1.2769793005
 H    1.0801533348    2.3977904379   -2.1655568218