21

 C    0.0454790867    1.4785491190    0.2580787830
 C   -0.1440100621   -0.0395068192    0.2252478956
 C   -1.4665905243   -0.4668699300   -0.4209840707
 O   -1.5895475183   -0.0116307664   -1.7659273895
 C   -1.6324670045   -1.9751016767   -0.3710886370
 O   -1.9274489847   -2.5673424809    0.8967887585
 C   -2.8990662495   -2.6905748449   -0.1629876821
 C   -4.2383219473   -2.0498054969    0.0993535199
 O   -4.9859628024   -2.8127199793    1.0329757029
 H    1.0188518672    1.7456328805    0.6795266933
 H   -0.0220096541    1.9008391965   -0.7481730729
 H   -0.7269307924    1.9569975582    0.8699950403
 H    0.6829763124   -0.5116995430   -0.3267278093
 H   -0.1105704282   -0.4554068180    1.2389727266
 H   -2.2920445769    0.0096881435    0.1161557736
 H   -0.8178230509   -0.3204416738   -2.2544372585
 H   -0.8598716820   -2.5095910738   -0.9342774390
 H   -2.9713900105   -3.7043750894   -0.5610558930
 H   -4.1140054896   -1.0133162585    0.4389850008
 H   -4.8256677004   -2.0316806388   -0.8248041993
 H   -4.4530269282   -2.8723295781    1.8339058969