18

 C    0.0193238386    1.5222522957    0.0100362075
 C    1.3225103308    0.7558548016   -0.0065392161
 C    0.0103306473    0.0194793535    0.0020553797
 C   -0.4047675426   -0.7428863852    1.2449819804
 O    0.0266107353   -2.0973850784    1.1607963056
 C   -0.4563647896   -2.7046311718   -0.0081029963
 O    0.0042330671   -2.0848245829   -1.1794390137
 C   -0.4285365652   -0.7295443211   -1.2408175064
 H   -0.2666005322    2.0308231952    0.9255367883
 H   -0.2840033147    2.0405917760   -0.8943172978
 H    1.9033168338    0.7539338839   -0.9228658577
 H    1.9207328604    0.7441551091    0.8984399368
 H    0.0442552336   -0.3231404157    2.1494973394
 H   -1.5029049014   -0.7112235446    1.3585414732
 H   -0.0785970543   -3.7288080531   -0.0172121070
 H   -1.5649503790   -2.7041250221    0.0025002310
 H   -1.5286412706   -0.6967764468   -1.3330116465
 H    0.0031515128   -0.3000679633   -2.1491961905