14

 O    0.0771538146    1.3239296787    0.1812879778
 C    0.0672246464   -0.0188749784   -0.0048622579
 C    0.0822452110   -0.7956984157   -1.1490079284
 C    0.0592967550   -2.1252950197   -0.6449857939
 C    0.0320964636   -2.1211549444    0.7314718361
 N    0.0368630216   -0.7958459027    1.1299978937
 C    0.0100979908   -3.4811338405    1.1583346301
 C    0.0261723844   -4.2018292002   -0.0028570037
 O    0.0561094898   -3.3951805278   -1.1197188249
 H    0.0955289319    1.7507112864   -0.6805049734
 H    0.1058710443   -0.4420698524   -2.1663834134
 H    0.0232161117   -0.4229926028    2.0622859635
 H   -0.0137321968   -3.8905041745    2.1556317842
 H    0.0198453018   -5.2598571457   -0.2021739700