21

 O   -0.0339108237    1.4321283141   -0.0784998330
 C   -0.0031658374    0.0177895529    0.0253459320
 C    0.6248162057   -0.5328175065    1.3561018929
 C   -0.5229535600   -1.3841417978    1.9642198120
 C   -1.1631756771   -1.9375630691    0.6708547340
 C   -1.4458909118   -0.5469820412    0.0641438243
 C   -2.1685031807    0.1945370543    1.1910665624
 C   -3.0242242958   -0.5725643683    2.1681907944
 C   -1.5583829087   -0.3744563471    2.4633098251
 H    0.8724045983    1.7525273321   -0.0521820238
 H    0.5267401742   -0.4044277029   -0.8416337388
 H    1.5129662440   -1.1406940568    1.1555276735
 H    0.9198779259    0.2935512947    2.0106137616
 H   -0.1968448823   -2.1266896263    2.6959516871
 H   -0.4533445218   -2.5167539007    0.0725842881
 H   -2.0505029078   -2.5519386381    0.8243699685
 H   -1.9454501556   -0.5319302202   -0.9065266521
 H   -2.3273697416    1.2578621143    1.0726068158
 H   -3.7022865299    0.0322328345    2.7615786475
 H   -3.4265914887   -1.5499755964    1.9275712991
 H   -1.2749807053    0.2734887443    3.2861933094