20

 C   -0.3607029446    1.4712892409    0.0079108913
 C    0.0747229778    0.0132021610   -0.0571836626
 C   -1.0059450672   -0.9850570991    0.4396796085
 O   -0.2669861550   -1.2584048038    1.6514519460
 C    0.8740960685   -0.5229229909    1.1686475328
 C    2.0058950804   -1.3657186054    0.6052203741
 N    1.5233457378   -2.4810893842   -0.2365779580
 C    2.0046523739   -1.2507113779   -0.8833465936
 C    0.8740506809   -0.3372285795   -1.3346832660
 H    0.4990741041    2.1459846740   -0.0746556651
 H   -1.0520671045    1.7122058671   -0.8081883836
 H   -0.8704975207    1.6878703725    0.9524852951
 H   -1.9882720516   -0.5471849623    0.6569891433
 H   -1.1226017783   -1.8847510779   -0.1725722782
 H    1.2344816277    0.2013483498    1.9090858538
 H    2.9232434298   -1.4972383835    1.1697281572
 H    2.2413269941   -3.1994333951   -0.2800760599
 H    2.9270207726   -1.2840442999   -1.4558689231
 H    0.2481474693   -0.8130645603   -2.0975355661
 H    1.2943334853    0.5729882245   -1.7780525759