12

 O    0.0988640939    1.3631715672   -0.1195149655
 C    0.0679028202    0.0069264878   -0.0239405558
 C    0.0065107991   -0.7292458342   -1.2132269651
 N   -0.0284141223   -2.0576510287   -1.2477356853
 C   -0.0033676653   -2.7175817021   -0.0846268751
 C    0.0571572449   -2.0768453367    1.1479215539
 C    0.0936715430   -0.6865025466    1.1829132517
 H    0.1403014663    1.7453920943    0.7634582380
 H   -0.0140486698   -0.1972862428   -2.1612253823
 H   -0.0330095206   -3.8019842662   -0.1443030109
 H    0.0755752454   -2.6524116669    2.0669138941
 H    0.1411949153   -0.1509418450    2.1277747125