18

 C   -0.0063765974    1.5457622375   -0.0376037589
 C   -0.0022057556    0.0485764859    0.0144897795
 C    0.0315906489   -0.7995904518   -1.0730082088
 N    0.0302173549   -2.1254009125   -0.6238031649
 C   -0.0116039548   -2.0766191335    0.7286931743
 C   -0.0350865002   -0.7923982775    1.1730453383
 C    0.0062586666   -0.8408883583    2.6772003387
 C   -0.1883772832   -2.3796643478    2.9111902555
 O    0.0120216256   -3.0769652230    1.6388925469
 H    0.8631282133    1.9740596571    0.4760195837
 H    0.0121907666    1.9038654057   -1.0711997477
 H   -0.8975139779    1.9673644536    0.4432074952
 H    0.0407785461   -0.5821954005   -2.1286496684
 H    0.0296486904   -2.9484557587   -1.1987254644
 H    0.9596216189   -0.4899409275    3.0946626676
 H   -0.7876636845   -0.2785916916    3.1810727641
 H    0.5182097160   -2.8063814929    3.6255983175
 H   -1.2079961139   -2.6008347341    3.2435951617