18

 C   -0.2370767120    1.5197559397    0.0917472691
 C   -0.0298881658    0.0480573661    0.0126431990
 C    0.2096572917   -0.7799643956   -1.0564613471
 N    0.3371816925   -2.0921219910   -0.6506088068
 C    0.1776414973   -2.0678429025    0.6506743760
 N   -0.0466587298   -0.8023935438    1.1046804020
 N    0.3126063779   -0.3488944290   -2.3964538508
 C    1.2649469906   -1.0728275293   -3.2526441226
 C   -0.1946747101   -1.2675842457   -3.4274080627
 H    0.5204353162    2.0152006117    0.7118023159
 H   -0.1700614347    1.9291846468   -0.9182221370
 H   -1.2206565374    1.7814324699    0.5014587632
 H    0.2127758200   -2.9207883632    1.3123435944
 H   -0.1979205177   -0.5304829012    2.0615354711
 H    1.8247240348   -0.4494274527   -3.9443254313
 H    1.8172148226   -1.8868130925   -2.7925732826
 H   -0.6088334568   -2.2105226211   -3.0830435367
 H   -0.7203285094   -0.7890228565   -4.2490323532