17

 C    0.1936270756    1.5742589203   -0.1987808347
 C    0.0949671464    0.1248983529   -0.1088763276
 C    0.0000394474   -1.0742152100   -0.0375839146
 C   -0.0695224580   -2.5272477325    0.0439826400
 O    0.6348914974   -3.1567864097   -1.0123126803
 C    0.2448961537   -3.0933156017    1.4842963331
 C   -1.2410398204   -3.4543120341    1.6117445534
 O   -1.9299587649   -3.8120244456    2.5215199920
 C   -1.5179561751   -3.1114449323    0.1433129573
 H    0.9811616668    1.9640985079    0.4551765907
 H    0.4210646532    1.8915858917   -1.2222252001
 H   -0.7483464436    2.0507752884    0.0936847328
 H    1.4746991597   -2.6973588866   -1.1206848309
 H    0.8805792739   -3.9822650169    1.4207068748
 H    0.6447743020   -2.4028773139    2.2293814722
 H   -2.3503284049   -2.4355587470   -0.0582072551
 H   -1.6120421393   -4.0062635610   -0.4801549529