19

 O    0.0214283675    1.4233116819    0.0245154954
 C    0.0125960387    0.0114854720   -0.0113741005
 C   -1.3795993517   -0.5510643555   -0.2157146780
 C   -1.6050081435   -0.6397877851   -1.7143662146
 C   -0.3484786283   -0.1016103838   -2.3849485136
 C    0.6470250279   -0.5748330537   -1.2977522004
 O    1.9916097405   -0.1868883116   -1.4104613012
 C    0.3002630378   -2.0760757695   -1.1529098906
 C   -1.1969422537   -1.8792761799   -0.9339546101
 H    0.9380836291    1.6902004564   -0.1160024843
 H    0.5064875029   -0.4036948938    0.8809175361
 H   -2.1837369053   -0.3750184027    0.4856152858
 H   -2.5913447321   -0.5382506965   -2.1470758124
 H   -0.1463781468   -0.5614322719   -3.3599099135
 H   -0.3472986958    0.9860151979   -2.4840933982
 H    2.2992156092   -0.3912820332   -2.2991030004
 H    0.5331810932   -2.6533805985   -2.0551169561
 H    0.8132536083   -2.5346202331   -0.3017029117
 H   -1.8781634180   -2.7052634995   -0.7771535919