20

 C   -0.0819011323    1.4454990754   -0.1373826978
 C   -0.0965447304   -0.0397151991   -0.0114618298
 N   -1.0708697351   -0.8110816307   -0.2788004413
 C   -0.6117377372   -2.1885166145   -0.0320914696
 C    0.8210409175   -2.0048573207    0.5448120249
 O    1.0708948689   -0.5870453412    0.4260245525
 C   -1.5386727488   -2.9696406030    0.8825798575
 C   -2.2522052600   -2.2985295981    2.0286268919
 C   -3.0294668849   -2.7778531482    0.8252585683
 H    0.6972349665    1.7563732480   -0.8405232418
 H   -1.0520840468    1.7946892914   -0.4885435506
 H    0.1504831281    1.9055670054    0.8280141939
 H   -0.5716498124   -2.7079009545   -0.9994331850
 H    0.8827780473   -2.2779141431    1.6035300759
 H    1.5967260545   -2.5374851424   -0.0105678347
 H   -1.1937163617   -3.9854040682    1.0624708618
 H   -2.3509226680   -2.8401125083    2.9628903629
 H   -2.1291298511   -1.2266877811    2.1356775480
 H   -3.4013280696   -2.0179442861    0.1483500831
 H   -3.6643070746   -3.6506475310    0.9314999398