22

 C    0.9884611641   -0.4267527672   -1.0861595413
 C    0.0296363653    0.0073749186    0.0252517678
 C   -0.0316647814    1.5341831916    0.1269719762
 N   -1.3099808426   -0.5209131340   -0.2203688208
 C   -2.3152003534   -0.3348737116    0.8552988555
 C   -2.7315887757   -1.7925542233    0.6411890460
 O   -3.6507036204   -2.4763398728    0.9795983816
 C   -1.4984592441   -2.0009905215   -0.2502329992
 C   -1.7126455028   -2.6554433666   -1.6070061925
 H    1.9844046636   -0.0092948864   -0.9102204071
 H    1.0907413982   -1.5147224857   -1.1332343283
 H    0.6307445827   -0.0737642405   -2.0587138507
 H    0.4197763633   -0.3865084845    0.9877093916
 H   -0.4020046905    1.9620592185   -0.8101632862
 H   -0.6951416908    1.8594567819    0.9339770406
 H    0.9626137408    1.9441547110    0.3283282208
 H   -1.8866373362   -0.1875484506    1.8615134978
 H   -3.0702080721    0.4374831324    0.6770710664
 H   -0.7205591317   -2.5373081698    0.3230362693
 H   -2.4611342274   -2.1029965528   -2.1812265788
 H   -0.7871374992   -2.6846691001   -2.1886659039
 H   -2.0658017996   -3.6823845767   -1.4694764249