23

 C   -0.0921778837    1.5447368446    0.0824863635
 C   -0.0494420868    0.0470158909   -0.0281771801
 C   -0.0337919080   -0.6135796631   -1.1856403979
 C    0.0368174616   -2.1148652023   -1.2655225229
 C    0.4971851005   -2.7405306351    0.0671139934
 C    0.0845257497   -4.2091579662    0.1526174604
 C    2.0176650198   -2.6016187248    0.2520742483
 O   -0.2088928842   -2.1061549813    1.1448230751
 C   -0.0060042858   -0.7144985853    1.2725644101
 H    0.7659811767    1.9288669878    0.6494874728
 H   -0.0837147159    2.0177185526   -0.9030514757
 H   -0.9914466950    1.8811603041    0.6147402417
 H   -0.0776503849   -0.0634228820   -2.1234200081
 H   -0.9473547114   -2.5215181159   -1.5376208999
 H    0.7196558491   -2.4184581247   -2.0695259830
 H    0.5028757665   -4.7776329935   -0.6837715694
 H    0.4380559706   -4.6541689331    1.0872947405
 H   -1.0052004343   -4.2947474000    0.1240144625
 H    2.3542697680   -1.5718658122    0.1037097656
 H    2.3028461595   -2.9204023359    1.2591814313
 H    2.5475578630   -3.2309128564   -0.4696462870
 H    0.9464141822   -0.4968003877    1.7908999135
 H   -0.8025720273   -0.3600052505    1.9399937653