17

 O   -0.0859199993    1.5790517974   -0.0346780123
 C    0.0389982282    0.1910874081    0.1905946614
 C   -1.3154767376   -0.4926049565    0.0012581666
 N   -1.8043303677   -0.2337499550   -1.3665147026
 C   -2.2772411177   -1.3351485065   -1.7987559708
 N   -2.2710234109   -2.4188980862   -0.9345603831
 C   -1.3634719037   -2.0575607187    0.1789030847
 C   -0.0776649486   -2.7484868690    0.0828804238
 C    0.9566696866   -3.3565977168    0.0032609263
 H   -0.5666327367    1.6628411060   -0.8685950696
 H    0.7741561796   -0.2694230958   -0.4857522258
 H    0.3998444850    0.0587870258    1.2162010525
 H   -2.0238081558   -0.0384385460    0.7055509565
 H   -2.7210414021   -1.4546071179   -2.7833579341
 H   -2.1692329395   -3.3438948797   -1.3291916460
 H   -1.8277327179   -2.3133615911    1.1359025685
 H    1.8795133781   -3.8784841082   -0.0647122561