19

 C   -0.1012123855    1.6128894656   -0.0106989508
 C    0.0416826442    0.1025806316    0.0127481944
 O   -1.2077416460   -0.5453254632   -0.2511174552
 C    1.1252210077   -0.5652898684   -0.9166659367
 O    2.0125466362    0.2779284657   -1.6201891596
 C    1.7490615211   -1.2551974331    0.2860518726
 C    2.1532580869   -0.2352034121    1.3358827073
 C    0.7161757269   -0.5841688839    1.2112294383
 O   -0.0088277978   -1.0856500597    2.2691928617
 H    0.8692761460    2.1041161387    0.0824566608
 H   -0.5578510210    1.9368981474   -0.9526268821
 H   -0.7358833061    1.9576514517    0.8150133288
 H   -1.8941129911   -0.0473385361    0.2061298078
 H    0.6199340935   -1.2741409742   -1.5843887356
 H    1.5487997371    0.6335102832   -2.3851795834
 H    2.1533036119   -2.2593048586    0.2923351808
 H    2.6334325563   -0.6741534376    2.2049464434
 H    2.5439075511    0.7369458868    1.0502694233
 H   -0.7536958314   -1.5561251536    1.8713136540