22

 C   -0.0237889486    1.4789596092   -0.0139269364
 C   -0.0218799457   -0.0428361196   -0.0076139308
 C   -1.3604944394   -0.6862510814    0.5116507005
 C   -0.5682528895   -1.3954030431    1.6226669075
 C    0.6902084203   -0.6627812586    1.2296265785
 N    0.6264134663   -2.1001944450    1.1949832986
 C    0.8114881307   -2.8314588659   -0.0598188717
 C    0.3197168103   -2.1591266895   -1.3582048323
 C    0.5031135097   -0.6351337197   -1.3231925666
 H    0.9783536035    1.8714709773   -0.2245639008
 H   -0.7027782056    1.8703635523   -0.7800878539
 H   -0.3413068197    1.8809522982    0.9545517279
 H   -2.0136050552    0.0795823592    0.9401009692
 H   -1.9539255408   -1.2989162355   -0.1713103281
 H   -0.9497572581   -1.6238743513    2.6125243463
 H    1.4428209310   -0.1691334622    1.8386508641
 H    1.8935201424   -3.0005826689   -0.1339991955
 H    0.3498549735   -3.8181066988    0.0555663332
 H    0.8633055447   -2.5905985550   -2.2061594639
 H   -0.7361419170   -2.3936327587   -1.5257119639
 H   -0.0123053333   -0.1793253062   -2.1779691478
 H    1.5664612805   -0.3759443970   -1.4260812343