13

 N    0.0314940009    1.3683115909    0.1593109781
 C   -0.0336681330   -0.0142176567    0.0630571083
 N   -1.1127620999   -0.7369005300    0.1402490382
 C   -0.6748720066   -2.0599778367    0.0761569292
 C    0.6704987396   -2.1312569048   -0.0554981252
 N    1.1130498045   -0.7992413576   -0.0497447976
 C    2.4367029795   -0.3734223528   -0.0355379249
 O    3.3788336937   -1.1147107920   -0.1338121271
 H    0.5189502581    1.8226580005   -0.6033738515
 H   -0.9045514083    1.7444339786    0.2485664300
 H   -1.3814556241   -2.8743325967    0.1183831996
 H    1.3750232516   -2.9381248917   -0.1482066338
 H    2.5195991840    0.7195049190    0.0867446467