14

 O   -0.2501267112    0.1403643008   -0.0106904584
 C   -0.0580915870    1.3073971038    0.0580826757
 O   -0.9946003544    2.3058282989    0.3335527180
 C    0.0015167951    3.3254841302    0.0586056457
 C    1.0948823207    3.2541692834    1.0591166984
 C    0.8898844478    2.8265365244    2.5065688000
 C    0.6777400741    3.9826267249    3.3774440249
 N    0.5216648683    4.9099861418    4.0483197005
 C    1.0788436596    2.2787255154   -0.1307871650
 H   -0.3044029455    4.1629575099   -0.5514230628
 H    1.8554649298    4.0200209562    0.9250543109
 H    0.0242739839    2.1622699353    2.5863639396
 H    1.7634309920    2.2715333168    2.8651553321
 H    1.8967513066    2.1897678984   -0.8304502495