18

 C    0.0107731169    1.5890691485   -0.0344417307
 C   -0.0696039681    0.0605791676   -0.0314742715
 C    0.7376263673   -0.5571150030   -1.1770847564
 O    2.1141808137   -0.1838091082   -1.1336145039
 C    0.6321480031   -2.0763292385   -1.2697623945
 N    0.0844808963   -2.7037488313   -0.2903688324
 O    0.0841787842   -4.0784150563   -0.4644119227
 C    1.1853659559   -2.7048383859   -2.4221475849
 C    1.6461043036   -3.1906578751   -3.4222980984
 H    1.0502773366    1.9234102398    0.0155352377
 H   -0.4279078534    2.0069501299   -0.9475127559
 H   -0.5297289614    2.0104904964    0.8181115818
 H    0.2992038984   -0.3407787355    0.9199498188
 H   -1.1099541357   -0.2711107798   -0.1130693112
 H    0.3822668334   -0.1464144503   -2.1303460094
 H    2.4898660626   -0.5653596010   -0.3313917599
 H   -0.3638831521   -4.3890041894    0.3307313560
 H    2.0574653185   -3.6292986077   -4.2979376324