19

 C   -0.5697727175    1.3061275795   -0.0474794896
 C    0.0812626592   -0.0581451059   -0.0082849233
 O    1.2489378316   -0.1456839760   -0.9197508006
 C    2.0836229905   -0.5572382763    0.1774056741
 C    2.9257296167    0.5058011257    0.9341936635
 C    1.8001011316    0.5293817966    2.0486885517
 C    0.9893743197   -0.4715751763    1.1810280868
 O    1.0422502985   -1.8769630075    1.5038629695
 C    2.1307376719   -2.0596051279    0.5294365938
 H    0.1364088241    2.0967373471    0.2215324126
 H   -0.9415271716    1.5142693162   -1.0554539347
 H   -1.4171099220    1.3409347786    0.6458438362
 H   -0.6414215365   -0.8470188705   -0.2473948181
 H    3.9186237633    0.1932988699    1.2660017868
 H    3.0146257335    1.4357682276    0.3702542341
 H    2.1037653030    0.0861113296    2.9983397324
 H    1.3393363133    1.5004699549    2.2424638170
 H    1.8444471532   -2.7341484088   -0.2837860786
 H    3.0444633376   -2.4220164066    1.0145107363