15

 C   -0.1092247082    1.5457605550    0.0594411356
 C    0.0290078224    0.0456762835   -0.0318210086
 C    0.7058480770   -0.6195440766   -1.2144682305
 C    1.2724848460    0.1489369178   -2.2813706782
 C    1.7400087871    0.7839876062   -3.1886282054
 C    1.3682122973   -0.6416061082    0.1771972201
 C    2.5522183696    0.1303439571    0.4234242982
 N    3.5076643019    0.7452617434    0.6406382052
 H    0.7583887890    2.0549974470   -0.3649149316
 H   -0.9972116554    1.8780996868   -0.4870057029
 H   -0.2129394359    1.8589851062    1.1027501245
 H   -0.8087422107   -0.5160476288    0.3713562741
 H    0.3001716957   -1.5813179860   -1.5146462859
 H    2.1649818271    1.3455611406   -3.9835835138
 H    1.3603462770   -1.6010897740    0.6832387390