16

 C    0.2146321474    0.9843065324    0.4878371602
 O   -0.5234390546    0.2543664901   -0.4906786797
 C   -1.2203797137   -0.7928502243   -0.0271480417
 N   -1.8995804427   -1.4946202899   -0.8264898805
 C   -2.6508251206   -2.6413704528   -0.3454592387
 C   -2.2134676687   -3.9056998774   -1.1076234930
 C   -2.5747539732   -2.8718781949    1.1146620433
 N   -2.4828471276   -3.0162943729    2.2582899565
 H    0.7149344570    1.7908469523   -0.0484364249
 H   -0.4474880459    1.4125669633    1.2489137109
 H    0.9667393869    0.3519084752    0.9731160935
 H   -1.1418038650   -0.9602860018    1.0553076854
 H   -3.7082628721   -2.4563439284   -0.5770639791
 H   -2.3049397451   -3.7158805823   -2.1789180465
 H   -1.1707443894   -4.1426238565   -0.8823155510
 H   -2.8376973128   -4.7601722520   -0.8341702048