22

 C    1.8184204830   -1.5523774476    0.7654004806
 C    0.6148266096   -0.6651040850    0.4188234304
 C    0.6664801196   -0.1137797992   -0.9991386486
 C    0.3318355793   -1.0301561218   -2.1483290927
 N   -0.5499837774    0.0667051955   -1.8292103376
 C   -1.8674807480   -0.2276067279   -1.2854532072
 C    1.6822896603    0.9957902774   -1.2027798338
 C    1.8099614706    1.6148733535   -2.5807416304
 O    2.3670309902    1.3699098266   -0.2741315920
 H    1.8810363275   -2.4162374192    0.0946141176
 H    2.7499354720   -0.9881498466    0.6894144741
 H    1.7334791764   -1.9305084882    1.7889635021
 H   -0.3051753241   -1.2399574063    0.5556886446
 H    0.5767512736    0.1772626883    1.1165491739
 H    0.8621424571   -0.9721279187   -3.0955576373
 H    0.0221589667   -2.0369179893   -1.8653248477
 H   -1.9376301745   -1.1808877437   -0.7414718804
 H   -2.1751512574    0.5799975985   -0.6145915134
 H   -2.5761330284   -0.2661062646   -2.1189480824
 H    2.3837248975    0.9457789262   -3.2331947764
 H    0.8288328801    1.7611074766   -3.0361481873
 H    2.3516528764    2.5574230955   -2.4954044561