14

 N   -0.0589834772    1.2406612256    0.3489155995
 C   -0.0136522189    0.0251627202    0.0187622828
 O    1.1211267975   -0.6895552613   -0.2577917098
 C    0.8142961615   -1.9481964564   -0.8767508721
 C   -0.6900816291   -2.1300594146   -0.7263157846
 O   -1.0777624962   -2.0606275300    0.6531154207
 C   -1.1956212714   -0.8706052749   -0.1400068279
 C   -1.4128763604   -3.0004358263   -1.6020120428
 C   -1.9775043248   -3.7483268629   -2.3538857004
 H    0.8773539591    1.6496677595    0.3609431511
 H    1.1017013844   -1.9159555172   -1.9329205124
 H    1.3769656569   -2.7340669209   -0.3660174906
 H   -2.1900499319   -0.4678868719   -0.2870426272
 H   -2.4897538595   -4.4067802888   -3.0119870362