15

 C   -0.0218820042    1.5231143887    0.0391631122
 C   -0.0405458075    0.0246063131    0.0223379529
 C   -1.1659899583   -0.7192513056    0.1352480045
 C   -1.1136368695   -2.1561598403    0.1114606354
 C    0.0851129101   -2.7432426834   -0.0260563863
 O    1.2343967425   -2.0426689152   -0.1420877403
 C    1.2488177958   -0.6472333420   -0.1264814945
 N    2.3504332574   -0.0222089557   -0.2387131887
 H    0.6080418683    1.8931427203    0.8547677319
 H    0.4194593732    1.9150918243   -0.8830461857
 H   -1.0313173232    1.9261392236    0.1538607379
 H   -2.1270785085   -0.2265166351    0.2459585076
 H   -2.0068684146   -2.7594037921    0.2008793803
 H    0.2659300395   -3.8103728574   -0.0589918615
 H    3.1285916688   -0.6751752232   -0.3315988456