15

 C   -0.0086972234    1.5084005836    0.2052403377
 N    1.3131719015    1.9640750353   -0.2315481370
 C    2.3353964433    1.1546514666   -0.6615921148
 N    2.3281280127   -0.1262200254   -0.7617311254
 C    1.1156953583   -0.6891337142   -0.3735643711
 C    0.0308765889    0.0250837923    0.0721622737
 N   -0.9407194909   -0.9089282805    0.3434803610
 C   -0.3955319558   -2.1325955137    0.0499304175
 N    0.8389407404   -2.0368827995   -0.3836719815
 H   -0.2056101907    1.8350599494    1.2424084798
 H   -0.7992235373    1.9677212806   -0.4154621748
 H    1.4869239291    2.9545149282   -0.2139671587
 H    3.2323424233    1.7069835040   -0.9380758713
 H   -1.8695062095   -0.7384889536    0.6914618828
 H   -0.9541812699   -3.0479125631    0.1756741122