22

 C    0.1058070790    1.5846470410   -0.0374983655
 C   -0.0202356008    0.0551964044   -0.0076381090
 C    0.5165407214   -0.5708458266   -1.3018075071
 C    0.6864260647   -0.5209793736    1.2253699619
 C    0.1495368848   -0.1368732314    2.6485821447
 C    0.1504408793   -1.6413846168    3.0609125417
 C    0.4442119447   -1.9731632354    1.6132426245
 N    0.4167144794   -3.0206028265    0.9014190232
 O    0.0851505364   -4.1496441347    1.6784703515
 H    1.1559956737    1.8876494065   -0.1279839107
 H   -0.4338778405    2.0033063203   -0.8931658991
 H   -0.2973327440    2.0452157294    0.8701186379
 H   -1.0861397442   -0.2003394220    0.0786241120
 H    1.5776876859   -0.3286843958   -1.4389172787
 H    0.4199231863   -1.6589151330   -1.2818311252
 H   -0.0252121594   -0.1875383753   -2.1731589758
 H    1.7640002547   -0.3188804148    1.1482360697
 H    0.7801270551    0.5286280448    3.2401136317
 H   -0.8594648060    0.2814027792    2.6058730122
 H    0.9653535889   -1.9218355818    3.7359715196
 H   -0.7784113289   -2.0548839129    3.4616741180
 H    0.0919366895   -4.8544877451    1.0222520226