20

 C   -0.1758380180    1.4556114433   -0.0037551812
 N   -0.1848675979    0.0243997351   -0.2395447701
 C    0.7890004009   -0.6124548213   -0.9527604856
 O    1.7363183481   -0.0322532501   -1.4548043103
 C    0.6344655967   -2.1294557204   -1.0435634646
 C    1.1968140293   -2.7860187044    0.2203381104
 C   -0.7367398173   -2.6870485650   -1.5187920943
 O   -0.1408779803   -3.2899915404   -2.6769088402
 C    1.1556318467   -2.7276294011   -2.3693739808
 H    0.7053368728    1.8588644074   -0.5037827540
 H   -1.0717381761    1.9330012947   -0.4155762003
 H   -0.1166221739    1.6843718693    1.0662448358
 H   -0.9415085351   -0.5204303452    0.1393631159
 H    0.6461607452   -2.4738761413    1.1144002176
 H    1.1323282972   -3.8760166501    0.1442740537
 H    2.2473643339   -2.5117979905    0.3585952194
 H   -1.2024790058   -3.4297798273   -0.8572929401
 H   -1.4853016559   -1.9291160804   -1.7881447408
 H    1.4779919699   -1.9831569613   -3.1035348311
 H    1.9243866695   -3.5028044610   -2.2707944291