19

 C    0.1154161169    1.5485958277    0.2269764157
 C    0.0075210370    0.0267240127    0.0844027939
 C    0.5875858976   -0.4737119220   -1.2475549304
 C    0.8240699823   -1.9848560579   -1.1959325244
 O    1.5642425460   -2.3311302467   -0.0289695084
 C    0.8800365053   -1.9235613429    1.1161986234
 O    0.7241685907   -0.5220005897    1.1946029653
 C   -1.4794358784   -0.3229841545    0.2417493471
 O   -2.2477417466   -0.5114063433   -0.6647404757
 H    1.1712525024    1.8309578519    0.2452649071
 H   -0.3784087500    2.0478629666   -0.6108972316
 H   -0.3436548551    1.8849815823    1.1616165730
 H   -0.1015408525   -0.2252956001   -2.0594938226
 H    1.5392035034    0.0364357719   -1.4265050507
 H   -0.1361198918   -2.5244147920   -1.1995954085
 H    1.4105204245   -2.3263791142   -2.0518585566
 H   -0.1109056236   -2.4166863251    1.1553543799
 H    1.4772792995   -2.2160824598    1.9817559227
 H   -1.8035618276   -0.3465535047    1.3075627507