16

 C   -0.0493597618    1.5480235373    0.0299052801
 C   -0.0121435043    0.0447618187    0.0310148059
 C    1.1052131474   -0.7944728845   -0.6979219467
 N    2.0633727672   -0.4683216731    0.4188774358
 C    0.7657099855   -0.8016894747    1.1092377483
 C    0.4736409290   -1.9556709930    0.1142252113
 O   -0.9281819229   -2.0499624754   -0.1497085627
 C   -1.2986608876   -0.7242304141   -0.2132270642
 O   -2.4111347418   -0.3473252425   -0.4221845715
 H    0.9484399940    1.9497014140    0.2188748257
 H   -0.4084500279    1.9230314790   -0.9330901538
 H   -0.7339126735    1.9162248828    0.7998076174
 H    1.3851695589   -0.7553857830   -1.7513439325
 H    2.7293136084   -1.2389363683    0.5409325167
 H    0.6442040393   -0.7711588281    2.1927063986
 H    0.9375315402   -2.9365094450    0.1973610616