16

 C   -0.0381806415    1.5725543776    0.1452577833
 C    1.5373911973    1.6227515028    0.1542821084
 C    1.5295418943    0.1231655617   -0.1989081427
 O    0.8066632516   -0.5645408218    0.8430981564
 C    0.0574520049    0.0698422543   -0.1912607145
 C   -0.4096820345   -0.8295639019   -1.3202357910
 C    0.9238624891   -1.3035070111   -1.9028068168
 C    1.9917460545   -0.7472409371   -1.3101833763
 H   -0.5527225309    1.8127555819    1.0784229843
 H   -0.4645371578    2.1651917150   -0.6675888333
 H    1.9382766442    2.2493180120   -0.6451982006
 H    2.0230760379    1.8808674543    1.0976663803
 H   -1.0285295856   -1.6679680257   -0.9800937412
 H   -1.0010102838   -0.2766048205   -2.0606366328
 H    0.9721333196   -2.0614412249   -2.6783892026
 H    3.0262313308   -0.9388618065   -1.5671442607