19

 C   -0.0483930499    1.5363152917    0.0988820187
 C   -0.0700737384    0.0150555490   -0.0624981160
 C    0.8105035814   -0.5103570456   -1.2205372770
 O    2.1574277478   -0.1321759414   -1.0604225438
 C    0.6274190722   -2.0256074664   -1.4052185220
 O   -0.5984649095   -2.1559995498   -2.1356448708
 C   -0.6353187133   -1.1290468654   -3.1106386098
 C    0.2752808157   -0.0309885498   -2.5764631698
 O    0.6210595223    0.9840796957   -3.1262663727
 H    0.9722581903    1.8888836151    0.2715847627
 H   -0.4357077264    2.0485712520   -0.7869702900
 H   -0.6575218318    1.8385311605    0.9554952850
 H    0.3099727537   -0.4584538646    0.8509406165
 H   -1.0938359106   -0.3501825343   -0.2043304467
 H    2.2880698476    0.6536840542   -1.6103256011
 H    1.4802684884   -2.4361993093   -1.9659229772
 H    0.5103699411   -2.5778124586   -0.4706933024
 H   -0.2473361158   -1.4650464891   -4.0858927041
 H   -1.6660874746   -0.7890078337   -3.2535262195