19

 C   -0.0890192982    1.4922633326    0.0330625864
 C    0.0082278614   -0.0106767948   -0.0189592290
 C    0.6841096042   -0.6502439471   -1.2680472602
 C    0.0664429777   -2.0784884049   -1.2689049697
 C   -0.8264321460   -2.0197478490   -0.0077174522
 C    0.0410710153   -2.0713288927    1.2638489188
 C    0.6839179719   -0.6770925801    1.1966709701
 O    1.5292783737   -0.2091137833    1.9112292767
 O   -1.2793296193   -0.6547157698   -0.0018344485
 H    0.9096536824    1.9165879923    0.1675940698
 H   -0.5255068939    1.8904402774   -0.8868705470
 H   -0.7064400312    1.8059845972    0.8788778730
 H    0.3987967113   -0.0870311904   -2.1601098486
 H    1.7750564136   -0.6450822882   -1.2000566738
 H   -0.5419914581   -2.2466871529   -2.1598778853
 H    0.8141536568   -2.8738995757   -1.2160838023
 H   -1.6882347476   -2.6862211924   -0.0108555304
 H   -0.5825003542   -2.1446043903    2.1605429050
 H    0.7949060303   -2.8613951178    1.3017677273