16

 O   -0.1685044947    1.3358080766   -0.0587416914
 N    0.0097482384   -0.0570631496    0.0476593132
 C   -1.0996676705   -0.6587808124   -0.0435902648
 C   -2.5668809192   -0.2475265058   -0.0919073528
 C   -2.9259343954   -1.7358549147    0.0605005567
 C   -2.3347118146   -2.5231429741   -1.0537390970
 C   -1.4048763494   -2.1173027878    0.0932943841
 C   -0.7048482412   -3.0712749701    0.8811884754
 C   -0.1134734592   -3.8777306576    1.5500588905
 H    0.7314544997    1.6612836272    0.0491117146
 H   -2.8261674777    0.3665975645    0.7747836593
 H   -2.9232096102    0.2504803155   -0.9984850529
 H   -3.6918873247   -2.1312358949    0.7138059729
 H   -2.5638296634   -3.5831204671   -1.0661287148
 H   -2.1941292333   -2.0765793459   -2.0345299198
 H    0.4143324755   -4.5832505038    2.1422266267