15

 O   -0.0946301715    1.3907225093    0.1041770549
 C    0.0303292603    0.0245370621    0.0389007913
 C   -1.0490544566   -1.0197325517    0.0815840952
 C   -0.1883746317   -0.8632366644   -1.1715293273
 C    0.8945255756   -1.9779712968   -1.0621938297
 O    0.3106506485   -2.9426249160   -0.1945583745
 C   -0.1214494408   -2.0187020041    0.7957348039
 C    1.0371091311   -0.9024190972    0.7592505635
 O    1.9111203528   -1.3927509524   -0.2488817144
 H    0.6126609877    1.7872550483   -0.4172942728
 H   -2.1277533760   -0.9439628073    0.1023235059
 H   -0.5951642247   -0.4893824749   -2.0996932818
 H    1.3063684046   -2.4330579476   -1.9581415752
 H   -0.4024372940   -2.5122983264    1.7210121502
 H    1.5648142547   -0.5934555010    1.6569250107