19

 N    0.1826335251    1.4975618018    0.2071060185
 C    0.0992556796    0.0664770569    0.0300214874
 C   -1.2764544050   -0.6358953664    0.2307318907
 C   -2.5150637060    0.2299171209    0.3200527832
 C   -3.8102645690   -0.5869478485    0.2726433420
 O   -4.9679416743    0.2193001464    0.4138083764
 O   -1.1298305724   -1.2666957861   -1.0942431416
 C    0.0274552927   -0.5650183751   -1.3584982323
 N    0.7137747533   -0.4739250225   -2.4042425957
 H    1.1533750020    1.7906553654    0.2053214079
 H   -0.2619508070    1.9829593479   -0.5655980736
 H    0.8750181481   -0.4073507522    0.6373244987
 H   -1.2818042874   -1.4158194942    0.9992880929
 H   -2.4761265100    0.8032931248    1.2526947497
 H   -2.5130319951    0.9580259359   -0.5021316362
 H   -3.8401380680   -1.1827434524   -0.6512004144
 H   -3.8352574593   -1.2907626637    1.1123921198
 H   -5.0412497616    0.7714218394   -0.3710064920
 H    0.3203509141   -1.0348698383   -3.1622646013