17

 C    0.5830963367    1.4863785363   -0.0541194743
 C    0.1474624879    0.0322548607    0.0190680387
 O    0.6901646161   -0.7415679376   -1.0644871848
 C    1.1499138651   -1.9957872221   -0.5974729265
 C    2.4967880396   -1.8941385195    0.0268549609
 O    3.2326098657   -0.7311222817   -0.1304257167
 C    1.2336184953   -1.9610188081    0.9160723091
 C    0.5798998071   -0.6788279879    1.3121377203
 O    0.3473264574   -0.2817084686    2.4247947487
 H    1.6696168716    1.5731861040    0.0343155709
 H    0.2617814612    1.9420109110   -0.9939020745
 H    0.1300133778    2.0311484817    0.7783923412
 H   -0.9504852009   -0.0321850501   -0.0281404170
 H    0.8048530954   -2.8432528832   -1.1801286876
 H    3.1136372914   -2.7866309582    0.0836955224
 H    2.7922394006   -0.2289250688   -0.8312922890
 H    1.1091300320   -2.8228046277    1.5587763183