16

 C   -0.2654318392    1.6390848607    0.1965891352
 C   -0.0700813633    0.1359291013    0.1045073721
 C   -1.3604767419   -0.6217043151   -0.2406552782
 O   -1.7672928342   -0.3101234132   -1.5561196475
 O    0.9564831975   -0.2368701983   -0.8777566876
 C    1.7755457108   -0.9283897777    0.0883714110
 C    0.7892623427   -0.5295487460    1.1914679699
 O    0.7164980783   -0.6591281668    2.3748738743
 H    0.6937502312    2.1546297433    0.2862770265
 H   -0.7807242382    1.9958623861   -0.6989937397
 H   -0.8764794196    1.8797456942    1.0720570608
 H   -1.2003873662   -1.7037348104   -0.1147456120
 H   -2.1683528977   -0.3207879601    0.4330974057
 H   -1.0083772850   -0.5042782484   -2.1212073522
 H    1.8535548640   -2.0064118385   -0.1009867616
 H    2.7822757606   -0.5024464210    0.1769991234