17

 C    0.0354197061    1.5106180729   -0.0307558669
 C   -0.0004719492    0.0561171420    0.0139596917
 C   -0.0217461478   -1.1488632538    0.0488442813
 C   -0.0270262467   -2.5841805352    0.0649925851
 C   -0.4658954983   -3.3990911793    1.2294076903
 C   -1.5718444103   -2.7144187338    2.0256812436
 C   -2.3534932710   -2.6549952753    0.6873094102
 N   -1.2715379749   -3.4056051623   -0.0512623074
 H    1.0575520643    1.8835917229    0.0982824554
 H   -0.3376675120    1.8910454219   -0.9881562561
 H   -0.5787381948    1.9488767421    0.7635149060
 H    0.7623020885   -3.0410065980   -0.5278742781
 H    0.1070912435   -4.2643211543    1.5505206606
 H   -2.0378293624   -3.3725121619    2.7608471654
 H   -1.3066973137   -1.7682532404    2.5043626390
 H   -3.2671504405   -3.2516824242    0.6819792179
 H   -2.5601937409   -1.6650622133    0.2733289918