20

 C   -0.1002741389    1.5596960181   -0.2045168573
 C    0.0356492583    0.0493714789   -0.0844079513
 C    1.1193630657   -0.6532370268   -0.9187938760
 N    2.4246854471   -0.1673907337   -0.4077435662
 C    1.7142671061   -1.2657912847    0.2970404894
 C    0.6976869155   -0.5746773242    1.2021218262
 C    1.1522096718    0.2154022657    2.4403643243
 O    0.4062690475   -0.6557809195    3.3223261935
 C   -0.1369992890   -1.3878817131    2.2081868639
 H    0.8745169256    2.0418919140   -0.0940613685
 H   -0.5084398752    1.8354066100   -1.1831906017
 H   -0.7749366498    1.9612214065    0.5592848208
 H   -0.9314414948   -0.4409808402   -0.2453499239
 H    1.0317736064   -1.0439799198   -1.9254377756
 H    3.1505540243   -0.5975108911   -0.9804563312
 H    2.1834145013   -2.2317485821    0.4448927422
 H    2.2291511907    0.1947691051    2.6436983885
 H    0.7978522800    1.2524648587    2.4986407872
 H   -1.2249021863   -1.2571682567    2.1186664136
 H    0.0858721739   -2.4618564751    2.2681294119