21

 C    0.3847202330    1.5753623112    0.2220428822
 C   -0.1407422094    0.1819621256   -0.0413942437
 C    0.6396134475   -0.7884692006   -0.8941384131
 C    0.5037591049   -1.0083201755    0.6014193565
 O   -1.5435138058    0.0990524984   -0.1059748705
 C   -2.1299644217    0.5083565178   -1.3341545064
 C   -3.0073328889   -0.5993429887   -1.8573360416
 C   -3.2168654672   -0.8003810609   -3.2956549161
 O   -2.3458534364   -1.6578345698   -2.5554216524
 H    1.4739654588    1.5699400564    0.3223261629
 H    0.1297116529    2.2590727879   -0.5960868621
 H   -0.0450342758    1.9772801051    1.1455885753
 H    0.0656188467   -1.4353847339   -1.5479686127
 H    1.6021824840   -0.4750306843   -1.2847403063
 H    1.3704099333   -0.8477665331    1.2336033441
 H   -0.1606664119   -1.8000505825    0.9265458329
 H   -2.7355874397    1.4115416554   -1.1674311157
 H   -1.3626704230    0.7409992717   -2.0817478886
 H   -3.7782628965   -0.9401273509   -1.1656306885
 H   -4.1381895063   -1.2597842459   -3.6501124101
 H   -2.7259610985   -0.1395207234   -4.0093967362