23

 C   -0.0321054128    1.5384777498   -0.1301898832
 C    0.0071184332    0.0104992777   -0.0461137336
 C   -1.3904396043   -0.6176902635    0.0135564895
 C   -1.3842346481   -2.1571432337    0.0960115871
 C   -0.7877908982   -2.6160184254    1.4138872276
 O    0.1816303812   -3.3189328459    1.5377210789
 C   -2.7899271877   -2.7310612742   -0.0215192087
 C   -3.3654193334   -3.0533167576   -1.3783471442
 C   -2.9970237327   -4.1676679567   -0.4306592297
 H    0.9763843889    1.9603277203   -0.1781864142
 H   -0.5760600800    1.8726471446   -1.0207982489
 H   -0.5327076389    1.9712002999    0.7431937134
 H    0.5453126855   -0.3932056959   -0.9134060640
 H    0.5882624984   -0.2939775484    0.8336437874
 H   -1.9391242169   -0.2145044264    0.8772161865
 H   -1.9675184125   -0.3252496283   -0.8723314840
 H   -0.7553754993   -2.5714436133   -0.7010841744
 H   -1.3462897985   -2.2481395313    2.3098835759
 H   -3.4914305148   -2.3367030179    0.7102752288
 H   -4.4160672304   -2.8493068593   -1.5526505005
 H   -2.7330525268   -2.8965960364   -2.2461701518
 H   -2.1147748308   -4.7565119972   -0.6589292378
 H   -3.7948840610   -4.7292312910    0.0421606501