12

 N    0.0156495682    1.3839649231    0.1366634335
 C   -0.0462122237    0.0146643568    0.0444543601
 C   -1.1733180819   -0.7417699774    0.0157640521
 O   -1.1861458929   -2.0942914341   -0.0216432660
 N   -0.0241153507   -2.8151573934   -0.0312552517
 C    1.0815849783   -2.1425943234   -0.0122114552
 C    1.2307344538   -0.6908084001    0.0160970518
 O    2.3109007977   -0.1092081981    0.0049826866
 H    0.9390499729    1.7359743859   -0.0821850187
 H   -0.7484216868    1.9245730402   -0.2358195740
 H   -2.1855126983   -0.3549331144    0.0219100119
 H    1.9803338135   -2.7522263149   -0.0282473205