19

 C    0.0126835813    1.5192433316   -0.0145678102
 C    1.3168973155    0.7655362102   -0.0394908697
 C    0.0003214824    0.0117699874   -0.0001217941
 C   -0.4503811770   -0.7879731867    1.2531401256
 C   -0.5266124888   -2.2211904816    0.7048115837
 O   -1.7705256624   -3.0083397203    0.7372746630
 C   -1.7469615529   -3.1494957913   -0.7181939142
 C   -0.7355455469   -2.0327449316   -0.7633952178
 C   -0.5154299372   -0.7860710041   -1.1687221003
 H   -0.2656556138    2.0304852632    0.9016484336
 H   -0.3075277021    2.0262542680   -0.9193684333
 H    1.8841949767    0.7503437659   -0.9638953102
 H    1.9271075481    0.7677321393    0.8578812429
 H    0.2203677475   -0.6673194545    2.1084319333
 H   -1.4551409223   -0.4683086764    1.5514118356
 H    0.3087594741   -2.8574426510    1.0260603817
 H   -1.3863036225   -4.1450051284   -1.0097867983
 H   -2.7229152982   -2.9628472235   -1.1784250592
 H   -0.7684136513   -0.3381052165   -2.1229920921