13

 N   -0.3186965461    1.0979723059   -0.1057972856
 C   -0.4208032985   -0.1378187418    0.1097109493
 O   -0.4519867061   -0.9975556571   -0.9378343010
 C   -0.6507161497   -2.3707986641   -0.6149797841
 C   -2.0293325419   -2.6941543106   -0.2670892914
 C   -3.1685216817   -2.9679766715    0.0249441076
 C   -4.5391393669   -3.2628804764    0.3648166155
 O   -4.9448939356   -4.3637222971    0.6548233305
 H   -0.2864964399    1.6073319378    0.7747837515
 H   -0.4811190671   -0.6346891017    1.0875091458
 H   -0.3534783879   -2.9276914728   -1.5085453678
 H    0.0185726522   -2.6816771010    0.1997997184
 H   -5.2094356807   -2.3806294297    0.3392025112