17

 N    0.0046639852   -1.1417619866    0.1240871162
 C    0.0119734316    0.0139101101    0.0907526973
 C    0.0103633044    1.4583779664   -0.0034424786
 C   -1.1752280079    2.0611741377   -0.7652386190
 C   -0.7530694543    3.2651135680   -1.6151362262
 O    0.1606091705    4.1042170740   -0.9224995925
 C    1.4208886061    3.4787606870   -0.7820950904
 C    1.3255987592    2.1867720392    0.0049150831
 N    0.5107190601    2.1445267119    1.2132114865
 H   -1.6243673677    1.3002200092   -1.4099300530
 H   -1.9436501949    2.3531776655   -0.0401787612
 H   -0.2947158687    2.9212230499   -2.5555736033
 H   -1.6176158020    3.8844011890   -1.8663429437
 H    1.8686576402    3.2770766497   -1.7690064917
 H    2.0648763417    4.1915597384   -0.2563093611
 H    2.2417621454    1.6032317524    0.0551028491
 H    0.0029828911    3.0250954383    1.3015712085