19

 C    0.3772818729   -0.4862088963    1.4051677896
 O   -0.2622921713   -0.0228390393    0.2286889098
 C   -1.4504862968   -0.6858812423   -0.1025497733
 C   -2.6531798676   -0.2376551803    0.6920552791
 O   -3.0085249132    1.1133083693    0.3691759682
 C   -2.4422654402    2.0951659324    1.0972702284
 O   -2.6053346329    3.2526858475    0.8553672177
 C   -1.6207647147   -0.9825367687   -1.5605545605
 C   -1.3675591805   -2.1143090807   -0.5879441978
 H    1.3046667341    0.0823952771    1.5008207054
 H   -0.2280332291   -0.3190710255    2.3075697030
 H    0.6152084265   -1.5563750720    1.3430883305
 H   -3.5264346527   -0.8449928869    0.4446446220
 H   -2.4749710640   -0.3267271512    1.7715067489
 H   -1.8410268303    1.7123127527    1.9436930110
 H   -2.6078671905   -0.8723321877   -1.9947938219
 H   -0.8008994952   -0.6869867764   -2.2037579524
 H   -0.3838583632   -2.5690551410   -0.6027007278
 H   -2.1766662812   -2.7975831808   -0.3527617198