19

 N   -0.4706067946   -0.5625268866   -0.7385247092
 C   -0.1823838793    0.1820074006    0.0968540788
 C    0.2035239199    1.1326284385    1.1383314762
 C    1.5297395721    1.8232407406    0.8018491780
 C    1.5569256879    2.9588982799   -0.2596047331
 C    1.0923970410    3.8470116969    0.9196157143
 N    1.9018393247    2.9077866955    1.8016807238
 C    3.2718000716    3.2291741096    1.2961891518
 C    3.0641813342    3.2748734140   -0.2634000260
 H   -0.6128412553    1.8471771677    1.2744490412
 H    0.3136166197    0.5974027065    2.0879372441
 H    2.3005273385    1.0521052819    0.6985831672
 H    1.0409661542    2.8981925272   -1.2187609243
 H    1.4174854306    4.8906823697    0.9474977081
 H    0.0308485345    3.7949698677    1.1605284540
 H    3.5998818019    4.1827566740    1.7155136745
 H    3.9721791078    2.4535638820    1.6144282042
 H    3.6520086421    2.5216851191   -0.7946826314
 H    3.2865238784    4.2531584550   -0.6973201719