17

 C    0.0315679152    1.4846401558   -0.1009442650
 C    0.0307618662   -0.0094848755    0.0110962509
 O    0.4364829591   -0.6523984572   -1.2070027054
 C    0.3702796675   -1.9963710734   -0.9019957270
 N    0.6389250839   -2.9582579223   -1.6692237712
 C   -0.0859792858   -2.0071615007    0.5216306949
 C    0.6256522636   -0.7945007849    1.2219735186
 N   -0.6024666930   -0.4292833893    2.0165936909
 C   -1.1230146929   -0.8356166723    0.6612340226
 H    1.0323790566    1.8512964700   -0.3471244840
 H   -0.6539937849    1.8116242768   -0.8881860179
 H   -0.2841080458    1.9145130050    0.8514577434
 H    0.9257150964   -2.6156163713   -2.5886927305
 H   -0.2282185750   -2.9547288915    1.0346792596
 H    1.6346539577   -0.7527088441    1.6347110514
 H   -0.7997380857   -1.1766902022    2.6865872192
 H   -2.1846236829   -0.8425130731    0.4099933895