22

 C   -0.0305088298    1.4709131187   -0.2482986633
 C    0.0416960741    0.0507548549    0.3273282792
 C   -1.2945805529   -0.6611520260    0.2515974771
 N   -1.9485109924   -1.1294651171   -0.9953843471
 C   -0.8646675358   -1.7276111540   -1.8513842950
 C   -0.5541861226   -2.8120394590   -0.7852293940
 O    0.7461160510   -2.9524664864   -0.2474971251
 C   -1.5570696243   -2.1137085595    0.1248016557
 C   -2.5620860652   -2.8479495413    0.9646970673
 H    0.9294549638    1.9862981634   -0.1464976772
 H   -0.2956712951    1.4557000553   -1.3105341758
 H   -0.7887847167    2.0700820565    0.2677423672
 H    0.8273283047   -0.5282315155   -0.1599557795
 H    0.3257143320    0.0971916187    1.3863683064
 H   -2.0506753182   -0.1671095679    0.8635980412
 H   -1.2971978760   -2.1209645464   -2.7740098997
 H   -0.0472020748   -1.0457274927   -2.1013436155
 H   -0.9455085565   -3.7883667648   -1.1006706454
 H    1.2660969927   -3.4934153538   -0.8504105464
 H   -2.0789648018   -3.2833411187    1.8474625681
 H   -3.3511649406   -2.1736063779    1.3090568968
 H   -3.0334895255   -3.6620100765    0.4029805750