25

 C   -0.0839942617    1.3492604038   -0.2379379006
 O   -0.0498302410    0.0428229679    0.2864853518
 C   -1.2959808382   -0.6187562694    0.2255649841
 C   -1.6228579487   -1.2286278081   -1.1701648325
 C   -1.0455955880   -2.5885079349   -0.6765765947
 C   -1.1377871417   -2.0501788144    0.7818881899
 C   -1.7843618876   -3.8762369816   -1.0343088872
 C   -1.7691911805   -4.1238979584   -2.5490153219
 C   -1.2050482547   -5.0770187373   -0.2736701141
 H    0.9176404751    1.7716153106   -0.1248765166
 H   -0.3538696313    1.3663570128   -1.3046865130
 H   -0.8013968040    1.9851986545    0.3052699687
 H   -2.0756411820    0.0129384458    0.6766894477
 H   -2.7027519014   -1.2814931253   -1.3463624531
 H   -1.1493189716   -0.7556834368   -2.0340541774
 H    0.0056283672   -2.6780000997   -0.9743984754
 H   -0.2795721604   -2.1960889723    1.4409673204
 H   -2.0450919812   -2.3915450240    1.2907230431
 H   -2.8328407579   -3.7513559860   -0.7218785549
 H   -2.3356687799   -5.0242885285   -2.8092567692
 H   -2.2054452338   -3.2836446950   -3.0988078237
 H   -0.7431473362   -4.2618852527   -2.9110477363
 H   -1.2332281048   -4.9192588060    0.8092892030
 H   -1.7645350071   -5.9924859133   -0.4932306102
 H   -0.1600732386   -5.2510335115   -0.5574259479