18

 C    0.3522891719    0.2990578390    0.9670583576
 C   -0.4935688357   -0.1169370719   -0.2357578994
 O   -1.2090115026    0.9792049973   -0.7869744211
 C    0.3172558286   -0.7958758679   -1.3459369583
 O    1.3395266808    0.0923704827   -1.8092475448
 C    2.4042955643   -0.7146370850   -2.2257954914
 O    2.3606408504   -1.9023109586   -1.4330772988
 C    1.0944154475   -2.0311326528   -0.9380789914
 N    0.6492267351   -2.9955294160   -0.2612791951
 H    0.7997380134   -0.5732507990    1.4512906852
 H    1.1550014288    0.9771653202    0.6609182908
 H   -0.2819069096    0.8139449174    1.6924136054
 H   -1.2520928738   -0.8399305982    0.0805956098
 H   -0.5543758899    1.6098304830   -1.1093225120
 H   -0.3684283046   -1.0436577007   -2.1702291369
 H    2.3126555504   -0.9978152462   -3.2864676776
 H    3.3504470320   -0.1976740714   -2.0461984775
 H    1.3597545029   -3.7166748120   -0.1305392944