19

 C   -0.0218367217    1.5088060447    0.0718977009
 C   -0.0354374447    0.0061754076   -0.0884117055
 O    0.7726346317   -0.3559487519   -1.1582319932
 C    0.8118177672   -1.7700209872   -1.3012841539
 C    1.5269620224   -2.3785864280   -0.0933042158
 C    3.0528856238   -2.1760234830   -0.1667876068
 C    1.0208228354   -1.7760538547    1.2174117842
 O    1.2060537779   -2.2948762396    2.2841078287
 O    0.4115975912   -0.5647051047    1.1640506066
 H    1.0036876518    1.8524065669    0.2268509304
 H   -0.4260164447    1.9791868691   -0.8274861983
 H   -0.6284942702    1.7952584985    0.9332446350
 H   -1.0583886778   -0.3752486214   -0.2461303823
 H   -0.2125040889   -2.1632601185   -1.3965472569
 H    1.3467598037   -1.9804723434   -2.2309433935
 H    1.3150701640   -3.4507378903   -0.0338179772
 H    3.2957707996   -1.1150878183   -0.2743354716
 H    3.5321254544   -2.5555795534    0.7379518184
 H    3.4621790149   -2.7098918424   -1.0300287091