20

 C   -0.0837782074    1.5233647221   -0.1124500141
 C   -0.0025246132   -0.0018871593   -0.0088378375
 C    0.7488400110   -0.4742210126    1.2397840930
 C    0.8290185116   -1.9970959545    1.3417629133
 C    1.5707083177   -2.4732203385    2.5736588929
 O    2.0654217217   -1.7682249146    3.4171525134
 O    1.6123725565   -3.8226272827    2.6146646126
 C    2.2939731779   -4.3799636147    3.7442849596
 H    0.9157224938    1.9702324905   -0.1519872233
 H   -0.6243792226    1.8349220621   -1.0115642627
 H   -0.6012213478    1.9509280362    0.7534003252
 H   -1.0164670824   -0.4242359124   -0.0059475914
 H    0.4889362383   -0.4050867451   -0.9045843907
 H    1.7635240361   -0.0593783694    1.2445747230
 H    0.2639701314   -0.0783746157    2.1397351373
 H   -0.1711702002   -2.4481980020    1.3579319823
 H    1.3258282860   -2.4292438655    0.4639464128
 H    1.8133161146   -4.0730003175    4.6768412046
 H    2.2350969949   -5.4618377901    3.6234471856
 H    3.3372226318   -4.0542881760    3.7665557141