21

 C   -0.0359198383    1.5401975771    0.1079182867
 C    0.0362469546    0.0480647198    0.0286875521
 C   -0.0094732098   -0.7096653072   -1.0690865173
 C    0.0403422884   -2.1890185585   -0.7664918960
 C    0.9978298372   -2.9977536650   -1.6736167274
 C    0.5833811319   -3.0239748387   -3.0711966541
 C    0.2161965170   -3.0322066109   -4.2161780612
 C    0.4609777691   -2.2145649360    0.7271013394
 C    0.1203042625   -0.8094835939    1.2764430074
 H    0.8497636871    1.9542138738    0.6069618320
 H   -0.1130571150    1.9954980251   -0.8830752400
 H   -0.9024645020    1.8636420609    0.6993999653
 H   -0.1104473368   -0.3350894618   -2.0822246944
 H   -0.9617594831   -2.6252051708   -0.8907218945
 H    2.0068027376   -2.5716407159   -1.5964199690
 H    1.0668617052   -4.0264351403   -1.2959558762
 H   -0.0969385885   -3.0466535228   -5.2304503545
 H   -0.0168400651   -3.0233172326    1.2864886990
 H    1.5436210304   -2.3758328509    0.7891996880
 H    0.8658730431   -0.4431830813    1.9927524404
 H   -0.8418604257   -0.8001235701    1.8093471445