20

 C    0.1044216497    1.4503162234    0.1565826781
 C    0.0175322900   -0.0263802562   -0.0453639600
 C   -0.1746904108   -0.7775909199   -1.1829361135
 C   -0.1907314316   -2.1499484838   -0.8032770892
 C   -0.0077929989   -2.2138745167    0.5598481810
 C    0.0958995977   -3.3796458615    1.4890113786
 C    1.5393666321   -3.7254275783    1.8695742377
 O    1.4972439489   -4.8184809400    2.7731667418
 N    0.1212526809   -0.9131963510    1.0031382584
 H    1.0637278411    1.7558416793    0.5940534012
 H    0.0041793618    1.9614035863   -0.8037098828
 H   -0.6878939286    1.8286517860    0.8154517141
 H   -0.2974227628   -0.3791896298   -2.1790975149
 H   -0.3243240493   -3.0010156783   -1.4544398344
 H   -0.4663000132   -3.2001771749    2.4148883372
 H   -0.3551560470   -4.2580122287    1.0178201282
 H    2.1046775437   -3.9709320905    0.9578509005
 H    2.0248736154   -2.8469224771    2.3257816882
 H    2.4006714809   -5.0792306485    2.9737635623
 H    0.2442490799   -0.6484971599    1.9657865376