15

 N    0.0790734361    1.3706554047   -0.1037242283
 C   -0.0552682760   -0.0138182437   -0.0297816429
 C   -1.2394745777   -0.6487053287   -0.2132871428
 C   -1.4774789959   -2.0766405909    0.0299251294
 N   -2.5810451242   -2.4542365903    0.5494567532
 N   -0.5341579663   -2.9911736548   -0.4831059530
 C    0.7286897336   -2.8628537044   -0.3513341036
 N    1.4876412391   -1.9314843727    0.3496301366
 C    1.1377231568   -0.7036093720    0.4702544872
 H    0.9736166701    1.7072625319   -0.4290503226
 H   -0.6891403445    1.8533504381   -0.5467606132
 H   -2.1233021802   -0.0644886127   -0.4573789956
 H   -2.6098780927   -3.4769750693    0.5653952871
 H    1.3521935606   -3.6354332087   -0.8039297702
 H    1.8331292511   -0.0570648665    1.0145534786