22

 C    0.2011757195    1.4076066589   -0.1695910766
 C    0.2576332419   -0.1049126696    0.0580449320
 C    0.2697685713   -0.4678636347    1.5482031396
 N    0.3086808284   -1.9000641993    1.7928559519
 C    1.4457531561   -2.5573119685    2.1660728789
 O    2.4960781093   -1.9825995375    2.4020890396
 C    1.3066526215   -4.0731884690    2.2573274044
 C    2.2701849618   -4.6683887933    3.2758879053
 O    2.1295493532   -6.0807508256    3.2136864472
 H    1.0672905106    1.9067580841    0.2780755411
 H    0.1930514478    1.6477162942   -1.2367312235
 H   -0.6994883532    1.8444323583    0.2764282555
 H   -0.6022565723   -0.5862969217   -0.4266694750
 H    1.1549870717   -0.5250070005   -0.4106145897
 H    1.1575780172   -0.0523184291    2.0309917253
 H   -0.6119503752   -0.0430663504    2.0450112084
 H   -0.5086600259   -2.4462319450    1.5738031612
 H    0.2788042323   -4.3654580308    2.4991483536
 H    1.5331455796   -4.5018906504    1.2728040473
 H    3.2890157457   -4.3415276360    3.0342687214
 H    2.0334311364   -4.2849141451    4.2804470541
 H    2.7733729821   -6.4690566891    3.8128429179