19

 C    0.0572912720    1.5625194573    0.3114528726
 C   -0.0877675469    0.1036166211   -0.1017971530
 O    0.7467385389   -0.7721100353    0.6668816066
 C   -1.5174891085   -0.3807169762   -0.0404510852
 N   -2.5625349425    0.3711707813    0.0204066714
 C   -3.7076421435   -0.4987535926    0.0457718492
 C   -3.9541599586   -1.4019429186   -1.1459392792
 C   -3.1707905447   -1.9450616509    0.0173808727
 N   -1.7510113580   -1.7416179714   -0.0714015761
 H    1.1035545586    1.8682469441    0.2314222309
 H   -0.5612205908    2.2016931212   -0.3215647857
 H   -0.2806882841    1.7066699537    1.3433594668
 H    0.2716087524   -0.0237252152   -1.1305718134
 H    0.5967337759   -0.5635567051    1.5962209335
 H   -4.5559938053   -0.1638368264    0.6325053355
 H   -4.9677602702   -1.7693836988   -1.2637511991
 H   -3.4259265599   -1.1960411165   -2.0713864172
 H   -3.5265480838   -2.7754655571    0.6155307614
 H   -1.0734753708   -2.3742999547    0.3214452584