16

 C   -0.1024092517    1.4866368841    0.8701912023
 N    0.1811120546    0.0879697835    1.1365521083
 C    0.8768377636   -0.6863702610    0.2723527170
 O    1.3271319342   -0.3053286302   -0.7916467722
 C    1.0866519255   -2.1710280560    0.6839210659
 C    2.5714674930   -2.5583610193    0.5272374721
 C    0.5780497173   -2.4861166853    2.0173506909
 N    0.1657863926   -2.6913349695    3.0786071301
 H    0.3230379887    1.7300503260   -0.1035336157
 H   -1.1815571452    1.6704746992    0.8487180442
 H    0.3490961182    2.1310082330    1.6317664150
 H   -0.1381827900   -0.3171913072    2.0027719356
 H    0.4986075573   -2.7500767580   -0.0389567396
 H    2.8966786818   -2.2588898340   -0.4696144033
 H    3.1871132250   -2.0438712090    1.2694402999
 H    2.7038738750   -3.6351637764    0.6509772994