14

 N   -0.0598909637    1.2453708687    0.3122463139
 C   -0.0070975058    0.0252770244    0.0131451461
 O    1.1177182266   -0.6882334349   -0.2866727912
 C    0.8083728459   -1.9756328049   -0.8501947854
 C   -0.6723830600   -2.1901566895   -0.6124699733
 N   -1.0143949149   -2.0865663699    0.8039470805
 C   -1.1891671905   -0.8925086248   -0.0817989770
 C   -2.5022021932   -0.3909294060   -0.3588789260
 N   -3.5775902707   -0.0254052365   -0.5729617333
 H    0.8663914229    1.6734291211    0.2797776937
 H    1.0416883755   -1.9637472701   -1.9204622861
 H    1.4269629165   -2.7228469644   -0.3463945479
 H   -1.2573590119   -2.8067484036   -1.2846570056
 H   -1.9322547567   -2.4964469395    0.9706801216