19

 C   -0.0402013343    1.5136251047    0.0005550035
 C    1.2976638468    0.8286379584   -0.0036600877
 C    0.0280666231    0.0013885646   -0.0049401794
 C   -0.3734384895   -0.7631382699    1.2093036827
 C   -0.9998929490   -1.9302907995    1.0414053849
 C   -1.2429154689   -2.3487030498   -0.3961523822
 C    0.0803529322   -2.2416074345   -1.1947483974
 C   -0.3576348069   -0.7604707643   -1.2654135213
 O   -1.7448227381   -1.1890888803   -1.1374348999
 H   -0.3671662432    2.0009247645    0.9127772113
 H   -0.3736439922    2.0020456482   -0.9093269147
 H    1.8831521847    0.8494678401   -0.9178119731
 H    1.8920795112    0.8453037521    0.9036719421
 H   -0.1544809646   -0.3451106053    2.1882301206
 H   -1.3192413801   -2.5575259569    1.8659861010
 H   -1.8849431041   -3.2235486719   -0.5128531129
 H    1.0141435988   -2.4978044595   -0.6918552889
 H    0.0103860277   -2.7214835621   -2.1722758859
 H   -0.1776376035   -0.1877375787   -2.1802840027