23

 C   -0.1927776574    1.5258743884   -0.0672633111
 C    0.0731548563    0.0084447253   -0.0205111804
 C    0.7985149294   -0.4640994163   -1.2872008449
 N    0.7764997572   -0.4637633810    1.1906489383
 C    2.1251688973    0.0742856767    1.3520772464
 C    0.0060235776   -0.3431936189    2.4338920185
 C   -1.4372193699   -0.8743329218    2.3414582618
 C    0.6963668823   -1.0955732299    3.5019059567
 N    1.2065826132   -1.6786860701    4.3590585146
 H    0.7396367476    2.0962399191   -0.1215852396
 H   -0.7851581969    1.7772564977   -0.9526684832
 H   -0.7489737879    1.8735972490    0.8095425424
 H   -0.8943484644   -0.5003074016   -0.0203178500
 H    1.7173908207    0.0991010344   -1.4764114903
 H    1.0510994760   -1.5249118436   -1.2100624814
 H    0.1496319635   -0.3233128596   -2.1569806134
 H    2.1478424231    1.1547008846    1.5794676356
 H    2.6310183814   -0.4482713349    2.1677341527
 H    2.7062078104   -0.0959782947    0.4448193323
 H   -0.0417577063    0.7049570676    2.7908083905
 H   -1.8710321986   -0.9173301583    3.3430071270
 H   -2.0626753379   -0.2185945493    1.7333488970
 H   -1.4467971866   -1.8804550029    1.9148552306