19

 C    0.1527396491    1.4712508344    0.0962040046
 C    0.0306930874   -0.0445502913   -0.0638410132
 N    0.6710075812   -0.5297830129   -1.2740759465
 N   -0.0102702356   -0.8548506733   -2.3568080477
 C    0.9314411978   -1.1753045547   -3.2500384176
 C    2.1929150745   -1.0126232494   -2.6411814153
 N    3.4589798531   -1.1770936915   -3.1697547914
 C    3.6244720348   -2.0559892478   -4.3136475880
 N    2.0038863747   -0.6031403483   -1.3824217751
 H    1.2038188360    1.7684717187    0.1288762822
 H   -0.3302314456    1.9882050880   -0.7377054230
 H   -0.3281678853    1.7886053883    1.0264261929
 H    0.4928635763   -0.5605269077    0.7826769675
 H   -1.0134442630   -0.3542256064   -0.1337938788
 H    0.6696980988   -1.5008167168   -4.2428596666
 H    4.1612820473   -1.2825151181   -2.4520877404
 H    4.6826918128   -2.0935358383   -4.5816620751
 H    3.2696319266   -3.0839846431   -4.1390087973
 H    3.0822936291   -1.6534868898   -5.1758112513