21

 C    0.0285467691    1.3951791678    0.0080531408
 O    0.0735449060   -0.0212763110   -0.0175086587
 C    0.6992586411   -0.5888377491    1.0798924587
 C    0.5382330215   -2.1021382289    1.0167218093
 C    1.4714724812   -2.7611351071    1.9978413198
 C    2.4934742393   -2.1177544430    2.5637765465
 C    3.4113161504   -2.7312374785    3.5824767551
 C    2.7758653382   -0.6798071466    2.1942435133
 O    2.0764036948   -0.2433011570    1.0461339170
 H    1.0331240127    1.8299159394   -0.0206087401
 H   -0.5304627712    1.7093185154   -0.8758005250
 H   -0.4906358367    1.7597680672    0.9075643583
 H    0.2645914533   -0.1948984438    2.0224849174
 H   -0.5033923774   -2.3673550868    1.2322956179
 H    0.7397051763   -2.4268445847   -0.0122240751
 H    1.2796106671   -3.8011616165    2.2514615515
 H    3.1167330915   -3.7569277790    3.8188262793
 H    4.4497762429   -2.7471259146    3.2269749046
 H    3.4115604705   -2.1557775831    4.5175715210
 H    2.5541249107   -0.0258664649    3.0596110369
 H    3.8409858188   -0.5469066352    1.9683336117