18

 O   -0.0707118209    1.3949559422   -0.3348931079
 C    0.0153676424   -0.0237750993   -0.3337920823
 C   -1.3293042363   -0.5549158471    0.1321024493
 C   -2.4749500576   -0.3512737091   -0.8976908809
 C   -2.3132668033   -1.8260180071   -1.3505775450
 C   -1.5091345890   -2.1077687858   -0.0386437121
 C   -0.3437764832   -2.9672292599   -0.0979294492
 C    0.6270093704   -3.6755133779   -0.1633115878
 H    0.7721207939    1.7454291702   -0.6368466829
 H    0.2492638205   -0.4095688276   -1.3389210847
 H    0.8076440576   -0.3809850940    0.3410083436
 H   -1.5220189939   -0.1785876508    1.1400779294
 H   -3.4376873157   -0.1694993413   -0.4132301436
 H   -2.3098984719    0.4272027969   -1.6444582629
 H   -3.2180391073   -2.4185552616   -1.5003723300
 H   -1.6795737692   -1.9287804142   -2.2340690034
 H   -2.1896910159   -2.4732532157    0.7375876203
 H    1.4798704695   -4.3056431476   -0.2163487803