18

 C   -0.2764055968    1.5517724076    0.1358015286
 C    0.0859295276    0.0800399805    0.0075044900
 O    0.9290704964   -0.0754087270   -1.1677880023
 C    2.1826775542   -0.5816426991   -1.0500139245
 O    2.8871351933   -0.6972539670   -2.0128514339
 C    2.5529966609   -1.0039934417    0.3621095709
 C    1.3996302419   -1.8667663328    0.9346589037
 C    0.7862240766   -0.4811971324    1.2429650974
 N    2.1594956302    0.1397779976    1.2656845160
 H    0.6111041342    2.1297662402    0.4036485509
 H   -0.6740467007    1.9253135342   -0.8107320421
 H   -1.0384690263    1.6891090801    0.9099732541
 H   -0.8115366187   -0.5167505986   -0.1973720693
 H    3.5880965250   -1.3395742224    0.3968739579
 H    0.8657443513   -2.5528506588    0.2698897278
 H    1.7067623780   -2.3898251039    1.8436252151
 H    0.1720415508   -0.3403103356    2.1353319282
 H    2.5724398622   -0.0418293806    2.1794638316