20

 C    0.0402385219    1.5335564534   -0.0337523709
 C   -0.0019015239    0.0037037895    0.0367424481
 N   -1.3469478897   -0.5400231984    0.0228237700
 C   -2.0911813610   -0.8543023700    1.1267913610
 C   -3.3592124409   -1.2290771066    0.7295734243
 C   -4.4978795512   -1.6793411017    1.5928865450
 C   -3.3680151135   -1.1230605585   -0.6922108551
 O   -4.4080990926   -1.4066841769   -1.5341440184
 C   -2.1284230515   -0.6951706280   -1.1060783791
 H    1.0764948440    1.8865285694   -0.0188105232
 H   -0.4322611777    1.8942622177   -0.9517348106
 H   -0.4880016214    1.9751398017    0.8162128781
 H    0.5512887704   -0.4281670658   -0.8046675167
 H    0.4865428512   -0.3468187699    0.9514659328
 H   -1.6634724282   -0.7919667062    2.1159394333
 H   -5.3763145991   -1.0263578724    1.4990219912
 H   -4.8275848286   -2.6989983134    1.3506864956
 H   -4.2119452066   -1.6793028222    2.6484051728
 H   -5.1550854625   -1.6951451856   -1.0018849719
 H   -1.7431611889   -0.5023323760   -2.0933022963