14

 C    0.0886732377    1.4872720265    0.0554754537
 C   -0.0584897024    0.0086725707    0.0484124677
 C   -1.1331198151   -0.8430948703   -0.0522880998
 C   -2.5379477873   -0.4810471727   -0.1912145960
 O   -3.4451430806   -1.2808149810   -0.2758262285
 C   -0.5971215780   -2.1801411681    0.0066363345
 C    0.7384976187   -2.0396286883    0.1363257818
 O    1.0811802993   -0.7106482003    0.1632181849
 H    0.7252620819    1.8212614381   -0.7712041505
 H   -0.8840779373    1.9717539326   -0.0418467313
 H    0.5537449622    1.8299360030    0.9863259012
 H   -2.7426476177    0.6123743943   -0.2165957573
 H   -1.1661303186   -3.0938433619   -0.0443998884
 H    1.5623588472   -2.7282649624    0.2201504478