15

 C    0.0999107992    1.4283460985   -0.0072315356
 O    1.2231249723    0.5247003511   -0.0638825947
 C   -0.0802294483   -0.0175748597   -0.0154177775
 C   -0.6676413266   -0.9122492585    1.0432944702
 C   -1.6911039874   -1.3945221571    0.0734611658
 C   -0.7162278867   -0.9215968252   -1.0769080368
 C    0.0207851698   -2.2461424201   -0.8145425342
 N   -0.6398830865   -2.3317271327    0.5380777854
 H    0.0016866423    1.9867692164    0.9230030316
 H   -0.0789788530    2.0055799190   -0.9135172121
 H   -0.7309606834   -0.7746553526    2.1139313990
 H   -2.7573617410   -1.5498768530    0.1579763412
 H   -0.9598424725   -0.5484558377   -2.0689585715
 H   -0.3428266094   -3.0790159158   -1.4203987216
 H    1.1157004911   -2.2282324625   -0.8038395792