13

 O    0.1824219081    1.3628041781   -0.2780645843
 C    0.1028708781    0.0048287320    0.0438576185
 C   -0.0814857785   -0.4035530485    1.5217015897
 O   -1.2524917282   -1.1815769477    1.1923022381
 C   -1.3042717794   -0.6366645933   -0.1528353577
 C   -2.4112192569    0.2795150781   -0.3679046514
 C   -3.3421525283    1.0164324159   -0.5522960963
 H    1.1085361095    1.6197714164   -0.3094020717
 H    0.8764059415   -0.5837713606   -0.4633425859
 H    0.6996971948   -1.0154119989    1.9856926737
 H   -0.3209488459    0.4527818599    2.1651167917
 H   -1.3398065597   -1.4441052964   -0.8939471228
 H   -4.1597963950    1.6751479950   -0.7116612517