21

 C    0.1812513118    0.8887540633    0.9024758811
 C    0.0558150464    0.0295544094   -0.3372781406
 O    0.9334660642   -0.0517121243   -1.1657628915
 C   -1.2242739819   -0.7925317344   -0.4860371196
 C   -0.9986765251   -2.2396250427   -0.0004891108
 O   -0.6570558318   -2.2703031057    1.3871573220
 C   -2.1953736279   -3.1420197806   -0.3077984702
 C   -1.9612275142   -4.5974016799    0.0806666665
 O   -3.1487306212   -5.3157766560   -0.2191074586
 H    1.1380500081    1.4121188922    0.9067300063
 H   -0.6406876587    1.6120032133    0.9551789631
 H    0.1012621744    0.2403098107    1.7821168357
 H   -2.0574401755   -0.3484960489    0.0726181651
 H   -1.4872298128   -0.8104017167   -1.5478953225
 H   -0.1079369989   -2.6263352869   -0.5098238458
 H   -1.4538835325   -2.0586136099    1.8876193834
 H   -3.0844019952   -2.7721861316    0.2227954492
 H   -2.4293989975   -3.0927441843   -1.3770905077
 H   -1.0998229023   -4.9934959565   -0.4815132694
 H   -1.7081735668   -4.6589153487    1.1485449996
 H   -3.0182193927   -6.2320756917    0.0414820447