18

 C   -0.2586349340    1.0648741390    0.0947225484
 N   -0.3699828247   -0.3248636043   -0.3136540790
 C    0.5658210459   -0.8801636956   -1.1626838089
 C    1.0451718776   -2.1866247968   -1.2322763879
 C    0.7410704212   -3.2824640252   -0.2617360385
 O   -0.6270180957   -3.2733516706    0.1693735505
 C    1.8973185306   -2.1765484414   -2.3605663907
 N    1.9729150132   -0.9887591836   -2.9433351039
 N    1.1454294838   -0.2084305951   -2.1891370776
 H    0.7184235252    1.3186381979    0.5335689865
 H   -0.4341788842    1.7355008968   -0.7550546532
 H   -1.0360250682    1.2770105632    0.8316081447
 H   -0.6464766305   -0.9795944482    0.4047054902
 H    1.0148137348   -4.2567908242   -0.6928339051
 H    1.3129525683   -3.1775075235    0.6690889381
 H   -1.1707793049   -3.3158160015   -0.6255343065
 H    2.4710790292   -3.0023607536   -2.7590860543
 H    0.9924432823    0.7450641367   -2.4661481727