17

 C   -0.1160631110    1.4713625531    0.0210820935
 C    0.0343351191   -0.0380173625   -0.0157458829
 C    0.8454377479   -0.5775436531   -1.1869184844
 C    2.0632049626   -0.5482936560   -0.3291339191
 N    1.1514128728   -0.5110981657    0.9129734002
 C    1.0293717337   -2.0113896139    0.7965225037
 C    1.4710020389   -1.9028147602   -0.6613286220
 C    1.9716971520   -2.9076814017   -1.5361096187
 N    2.3763566806   -3.7431970989   -2.2282016453
 H    0.8396021847    1.9683317382   -0.1719837385
 H   -0.8351264324    1.8055450718   -0.7339411696
 H   -0.4741937120    1.7877752901    1.0046401478
 H   -0.9239588098   -0.5247424111    0.1994623882
 H    0.7636476441   -0.3997840331   -2.2521512435
 H    3.0656736068   -0.1554870703   -0.4150976698
 H    1.7864071083   -2.4963733733    1.4160133144
 H    0.0379492036   -2.4128308633    1.0280720258