24

 C    0.1028351713    1.4896052714   -0.1212725202
 C    0.0156926331   -0.0289740505    0.0894941409
 C    0.7566693664   -0.4497580695    1.3675378394
 C   -1.4341177301   -0.5517361133    0.0478103716
 C   -2.3447580982    0.0179876171    1.1374500816
 C   -2.1435739791   -0.4897960370   -1.3685952199
 C   -2.2866201379   -2.0122051995   -1.3258369017
 N   -0.9060664237   -2.5547594049   -1.2573774357
 C   -1.5808166329   -2.0916993380   -0.0214851774
 H    1.1461059333    1.8022499723   -0.2359564333
 H   -0.4373279118    1.8058774311   -1.0198176200
 H   -0.3099632518    2.0439822831    0.7290117524
 H    0.5222679023   -0.5134628545   -0.7527778289
 H    0.3397225995    0.0287701014    2.2607152220
 H    0.7163723150   -1.5339027770    1.5154419034
 H    1.8123951899   -0.1643056736    1.3101471295
 H   -2.4566379593    1.1022107070    1.0390208614
 H   -3.3442614839   -0.4256342591    1.0725263695
 H   -1.9582720261   -0.1921435536    2.1401994619
 H   -3.0952720036    0.0455914452   -1.3349853228
 H   -1.5405003728   -0.1130022211   -2.1987879549
 H   -3.0949852389   -2.6174964981   -1.7175854577
 H   -0.9815787567   -3.5716948472   -1.2729150865
 H   -1.7326964438   -2.7677301815    0.8128875757