15

 O    0.0241330739    1.3885191836    0.1879521431
 C    0.0490111418   -0.0126204184   -0.0094885682
 C   -1.3955632369   -0.5376823018   -0.0688736632
 C   -1.2802213301   -1.9030809406   -0.7596100659
 C   -0.0540765314   -1.7838225894   -1.6763961790
 O    0.2881559992   -2.5879015376   -2.5028446458
 C    0.6591949535   -0.4686026587   -1.3456574936
 H    0.9303798814    1.6975208128    0.2834176577
 H    0.5789491224   -0.5087508753    0.8200651814
 H   -1.8622069594   -0.5777322648    0.9174922258
 H   -1.9768546223    0.1599709033   -0.6823623762
 H   -1.0694066387   -2.7053735821   -0.0402078209
 H   -2.1627971590   -2.2118367625   -1.3247298936
 H    0.3903787859    0.2634423665   -2.1197450830
 H    1.7454454496   -0.5861983951   -1.3593245985