24

 C   -2.1410902982    0.5099054199    0.6295238439
 C   -1.1202955105   -0.5839076445    0.3070634785
 C   -1.1476332381   -0.9959890311   -1.1668946019
 N   -0.2186842516   -2.0951435748   -1.4043496241
 C    0.2396075234   -2.4249527194   -2.7533222148
 C   -0.2138231257   -1.6908137386   -4.0004863504
 C    1.1860451121   -1.8494592013   -1.7456163826
 C    1.7965239809   -0.4780096728   -1.8924660108
 O    2.1833050085   -0.0381446229   -0.5932344153
 H   -1.9542564912    1.4177610205    0.0441154566
 H   -3.1636260836    0.1818798885    0.4093252589
 H   -2.1033887957    0.7868090873    1.6875411172
 H   -0.1083949529   -0.2428057103    0.5506699864
 H   -1.3097618471   -1.4732053759    0.9187222898
 H   -2.1488663399   -1.3598091153   -1.4327931266
 H   -0.9681760920   -0.1061578664   -1.7918967957
 H    0.3087512474   -3.5017109014   -2.9146067125
 H   -0.2585388952   -0.6073309768   -3.8794011127
 H    0.4690409394   -1.9060829806   -4.8295254514
 H   -1.2103645522   -2.0324331672   -4.3014388547
 H    1.8706846259   -2.5325667000   -1.2425794132
 H    2.6743847182   -0.5572993073   -2.5542227435
 H    1.1027814440    0.2336730403   -2.3575520738
 H    2.6058434441    0.8215023800   -0.6816007969