21

 C    0.3824814518    1.5645280239   -0.5810246601
 C    0.2194951895    0.1453147844   -0.2971009790
 C    0.0887187227   -1.0295206588   -0.0628884089
 C   -0.0591937493   -2.4481854973    0.2272899911
 C    0.2772946832   -2.8508451083    1.6963887530
 C   -0.5839667525   -4.0718294510    1.9056253492
 C   -1.5134991868   -4.1959372169    0.9604978060
 C   -1.4801322206   -3.0643337259   -0.0444050727
 C   -2.6547733316   -2.0931685827    0.1529766201
 H    1.1944291413    1.9990970482    0.0130006618
 H    0.6186056957    1.7369248618   -1.6371592455
 H   -0.5301208003    2.1259088436   -0.3512178114
 H    0.6375322297   -3.0047272434   -0.4123855927
 H    1.3480726767   -3.0404698534    1.8258642466
 H    0.0150801786   -2.0513154450    2.4015697695
 H   -0.4597436569   -4.7349616240    2.7548667596
 H   -2.2694622399   -4.9734922966    0.9226808136
 H   -1.5219694246   -3.4384424763   -1.0746515523
 H   -2.6515203193   -1.6692673106    1.1622285350
 H   -2.6036715068   -1.2670541911   -0.5613945878
 H   -3.6081495408   -2.6131149607    0.0115321148