19

 C    0.0041176727    1.6230716110    0.2605447937
 C   -0.0738513540    0.1129000574   -0.0049028489
 C    0.8954139055   -0.6706289483    0.9056631023
 C   -1.4721222287   -0.4517169118    0.1382681339
 C   -2.4712451249    0.1677059711    1.0936887295
 O   -3.6798545618   -0.5386911799    1.1828632086
 N   -1.9065928289   -1.4845853433   -0.4730830607
 O   -0.9653303095   -2.0668345914   -1.3312995508
 H    1.0259548765    1.9750588275    0.0891932233
 H   -0.6584434983    2.1876998400   -0.4023741974
 H   -0.2570002701    1.8714243360    1.2945529510
 H    0.2283025407   -0.0734288449   -1.0405411809
 H    0.6302353309   -0.5510566244    1.9617683738
 H    0.8780140803   -1.7357746791    0.6640759925
 H    1.9181018141   -0.3030661738    0.7734072455
 H   -2.0001889223    0.2367159519    2.0888237109
 H   -2.6622350755    1.2058400213    0.7779876880
 H   -3.6022953729   -1.2737551172    0.5578224776
 H   -1.4631417340   -2.7933551621   -1.7208725919