17

 C   -0.0829159014    1.3755195774    0.0100011868
 O    0.0060909877   -0.0317896051    0.0015574473
 C   -1.2419223357   -0.6501254885    0.0101607214
 C   -1.0626012162   -2.1574154906    0.0002275499
 O   -0.0049261439   -2.7229636538   -0.0129057513
 C   -2.4059167163   -2.9212660404    0.0089876216
 O   -3.4746773680   -2.3589860012    0.0223311143
 O   -2.2251163238   -4.2390955462    0.0002128621
 C   -3.4270576914   -5.0248600563    0.0076260122
 H    0.9384476799    1.7618019613    0.0022709695
 H   -0.6163649173    1.7560536278   -0.8749262991
 H   -0.5992245992    1.7464365997    0.9090656560
 H   -1.8446292486   -0.3803073022    0.8958611087
 H   -1.8614881495   -0.3707250421   -0.8608100971
 H   -4.0160745369   -4.8120010647    0.9031443303
 H   -4.0325781507   -4.8034866324   -0.8747315100
 H   -3.0996412987   -6.0635568828   -0.0004138724