14

 C   -0.4849093696    1.3687987711    0.1149113650
 C    0.2219103725    0.0364716642    0.0077194019
 C    0.9391480013   -0.3204897684   -1.3147473471
 C    2.2044112304   -0.4429432831   -0.4279068362
 O    1.4912704472    0.0235586230    0.7283723653
 C    2.7301109669   -1.8039444036   -0.2599937458
 N    3.1425746788   -2.8771226506   -0.1427412661
 H    0.1470163262    2.1780277251   -0.2635485820
 H   -1.4162707928    1.3511765394   -0.4614984314
 H   -0.7339598848    1.5844588292    1.1583583897
 H   -0.4210982216   -0.7725903176    0.3767594996
 H    0.6178304012   -1.2312381541   -1.8182539593
 H    0.9950876439    0.5004285462   -2.0312183954
 H    3.0369610304    0.2209314491   -0.6867757182