14

 N    0.0233059271    1.3124587856    0.0094119584
 C    1.2445910241    1.8869782761    0.0006698974
 C    2.1463797409    0.8255470812   -0.0141791823
 C    3.5468828070    0.6563400431   -0.0288799374
 C    4.0102494016   -0.6342675021   -0.0407370074
 C    3.0909304315   -1.7258201734   -0.0378959020
 N    1.7814952740   -1.6199703393   -0.0244419801
 C    1.3133600716   -0.3491922279   -0.0126497547
 N    0.0062431375   -0.0292310602    0.0020006638
 H   -0.8620227456    1.7939188559    0.0208212534
 H    1.3719754993    2.9575695299    0.0054749061
 H    4.2233925802    1.5048978779   -0.0307183373
 H    5.0733022994   -0.8464560328   -0.0523746668
 H    3.4900306314   -2.7387655139   -0.0475453810