19

 C    0.5412407991    1.3708073371    0.3247277662
 C   -0.2578195425    0.1534234017   -0.1549866646
 C    0.3927500893   -0.5240406388   -1.3519242730
 O    1.6001158505   -1.2699024785   -1.0759747801
 C    0.4539290044   -1.9956067821   -1.5387097647
 C   -0.1050932458   -3.0314139721   -0.5934029461
 O    0.7292005207   -4.1780614543   -0.5673671676
 C    0.4506654459    0.2904801276   -2.5489717494
 C    0.4689273238    0.9792928075   -3.5340126014
 H    1.5521118959    1.0741799425    0.6194711674
 H    0.6252059609    2.1229075277   -0.4648047064
 H    0.0551407221    1.8345031127    1.1876245175
 H   -0.3519645990   -0.5686152558    0.6591458805
 H   -1.2723295016    0.4544479186   -0.4412145431
 H    0.5520659555   -2.3506709450   -2.5656937367
 H   -0.2409498024   -2.6137538976    0.4121583228
 H   -1.0817809917   -3.3713493372   -0.9543957658
 H    1.6020933234   -3.8840599747   -0.2830016328
 H    0.4948326415    1.5815227807   -4.4086213428