16

 N    0.0469231214    1.3487801228    0.1267904382
 C   -0.0405010106   -0.0164816883    0.0348201507
 C   -1.1546994790   -0.7853978372    0.0247187167
 C   -0.7958085976   -2.1871733461   -0.0062796061
 C    0.7229726767   -2.3067727870   -0.0199011328
 C    1.2256290599   -0.8422146575    0.0088033100
 N   -1.5301417465   -3.2364823881   -0.0268475232
 O   -2.9057212091   -2.8852214826   -0.0082461267
 H    0.8912566068    1.7790731752   -0.2165962231
 H   -0.7876042836    1.8797858801   -0.0696478616
 H   -2.1758516847   -0.4334697222    0.0387831924
 H    1.0763186946   -2.8753525768    0.8443201840
 H    1.0637861528   -2.8394955801   -0.9115877989
 H    1.8358521562   -0.5919490393   -0.8689127175
 H    1.8451023541   -0.6260227693    0.8874468226
 H   -3.3266992313   -3.7499690836   -0.0236422347