21

 C    0.2415805811    1.4130124315    0.2601742461
 C   -0.2674348834    0.0647921744   -0.2609916686
 C    0.5537457128   -0.4718365985   -1.4167261319
 C    1.8735693541   -1.1959630143   -1.1452394354
 C    0.6803290527   -1.9423178360   -1.6409412578
 O    0.0122928622   -2.9062770479   -0.8000742875
 C   -0.0880312302   -3.7972163555   -1.9186825446
 C   -0.9241428431   -3.2070186639   -3.0096483757
 C    0.5343766623   -2.8035129579   -2.8703844924
 H    1.2751590302    1.3333993336    0.6130528094
 H    0.2190890866    2.1765177732   -0.5254824765
 H   -0.3720241746    1.7730404481    1.0920662948
 H   -0.2709450795   -0.6749030404    0.5470343980
 H   -1.3128553117    0.1644589155   -0.5804032372
 H    0.5318386614    0.1400805339   -2.3169850783
 H    2.7106441436   -1.0408957963   -1.8187066230
 H    2.1480905433   -1.3553914944   -0.1068364073
 H    0.0807745695   -4.8518922148   -1.7387342915
 H   -1.1322744652   -3.8666911944   -3.8467443676
 H   -1.7167246842   -2.5076225818   -2.7598794624
 H    1.2733687119   -2.9329605943   -3.6491856407