18

 O    0.0187864899    1.3961478855   -0.1238855140
 C    0.0150723190    0.0051176660    0.0950131619
 C    0.5365543615   -0.4622885625    1.4644087504
 C    0.0113339221   -1.9047547924    1.5552152814
 C   -1.3845515227   -1.8514464122    0.9083146844
 O   -2.4082960035   -1.6102683990    1.9113764605
 C   -2.8681038493   -0.3592193524    1.6675034501
 N   -2.4171065094    0.3085764260    0.6911642886
 C   -1.4249840127   -0.5572242283    0.0312289913
 H    0.9339099891    1.6932614867   -0.1155426449
 H    0.5957381982   -0.5124469996   -0.6892804618
 H    1.6253367305   -0.3963763274    1.5503528053
 H    0.0976955614    0.1694194069    2.2442822279
 H    0.6492035793   -2.5803999322    0.9734212276
 H   -0.0403543558   -2.2969725543    2.5732862302
 H   -1.6562668591   -2.7756855373    0.3953380433
 H   -3.6300669055   -0.0214841535    2.3618922103
 H   -1.7353446531   -0.7218102298   -1.0039628124