16

 C   -0.0976932192    1.4902120095    0.0041913008
 N   -0.0067926852    0.0371328466    0.0038199904
 C    0.0231367843   -0.6736062853   -1.1833916302
 C    0.0376378543   -2.0152633825   -1.1929203806
 C    0.0138847269   -2.7658968069    0.0719625374
 O   -0.0071438859   -3.9817813977    0.1152169235
 N    0.0333010019   -1.9883038456    1.2394694574
 C    0.0167658155   -0.6971277158    1.1740661887
 N   -0.0422649269    0.0335369071    2.3469871342
 H    0.8406863431    1.9588281390    0.3270770795
 H   -0.3122647422    1.8305823043   -1.0095257250
 H   -0.9048722560    1.8214129129    0.6628833636
 H    0.0284592377   -0.0652216068   -2.0802687765
 H    0.0577515449   -2.5671323365   -2.1233265773
 H    0.1075655715   -0.5659271200    3.1467107693
 H    0.4816566353    0.8951216578    2.3879081948