16

 C   -0.0492488902    1.5432682911    0.0024888190
 O    1.1435107326    0.7342685579   -0.0092123016
 C   -0.1105071901    0.0870935112    0.0059152909
 C   -0.4935690296   -0.9670106242    1.0385164262
 C   -1.9691272116   -1.3096737749    0.8074905881
 C   -1.9863985737   -1.3129049672   -0.7489957906
 C   -1.6039595299   -2.5335933085    0.0276438697
 N   -0.1477219183   -2.0767017478    0.0103900317
 C   -0.5163927635   -0.9708882846   -1.0139591740
 H   -0.2246707711    2.0979025026    0.9232866195
 H   -0.2450850498    2.0944313928   -0.9162755545
 H   -0.0487415306   -1.0121720943    2.0313524926
 H   -2.8486578892   -1.0889374363    1.3973645578
 H   -2.8788082592   -1.0946347158   -1.3201442363
 H   -1.9508441265   -3.5582296041    0.0336325013
 H   -0.0937189693   -1.0197961179   -2.0162492900