18

 N   -0.0491222375   -1.1114504075   -0.3158660583
 C   -0.0544315356    0.0375139496   -0.1919746906
 C   -0.0306641284    1.4907495438   -0.0335322529
 C    1.4023849615    2.0304620453    0.0742680625
 C    2.3044747675    2.0006357398   -1.2028746239
 C    2.5311763351    3.5218920435   -1.0593468052
 O    1.5906471329    4.2975315610   -1.8310689499
 C    0.7243963617    4.4714763147   -0.6871871453
 C    1.6078581435    3.5718637203    0.1935543077
 H   -0.5500350656    1.9356828483   -0.8894869798
 H   -0.6074342936    1.7532172079    0.8616676190
 H    1.8974979208    1.5271682867    0.9084866690
 H    3.2003187599    1.3849440759   -1.0969016510
 H    1.7999100398    1.7354322940   -2.1350600788
 H    3.5480887180    3.9172015302   -1.1171200202
 H    0.7018760162    5.5188963692   -0.3602873695
 H   -0.3052458950    4.1497759031   -0.8873007637
 H    1.8970154587    3.9574263942    1.1702317311