19

 C    0.8663485103   -0.5090265338    0.2942149802
 C   -0.4656517658   -0.9749426455   -0.2560422577
 O   -1.3419631874   -1.4362223895    0.4383737543
 C   -0.6906450161   -0.7699550962   -1.7624438342
 O    0.4049574604   -1.1452078812   -2.5753830649
 C    0.4139632600   -2.5097281102   -2.9677207187
 C    0.8277404814   -3.4600016627   -1.8630937867
 C   -0.1589412947   -4.1849437603   -1.0496969860
 O    0.5411996909   -4.8356013194   -2.1112238676
 H    1.6901172746   -0.8313740004   -0.3465059793
 H    0.8827778439    0.5882967720    0.2970142453
 H    0.9970237032   -0.8682492551    1.3154089700
 H   -1.6123574584   -1.2949069260   -2.0442301151
 H   -0.8435378378    0.3051444236   -1.9297973639
 H   -0.5701878161   -2.8168257682   -3.3517006508
 H    1.1323473046   -2.5720481781   -3.7916326312
 H    1.8135782048   -3.2734166589   -1.4343104349
 H    0.1061542170   -4.5075678197   -0.0446962789
 H   -1.2211348950   -4.0180071302   -1.2183771600