14

 O   -0.1446562851    1.3721147341    0.0297266832
 N    0.0567608350   -0.0270053342   -0.0049545149
 C   -1.0734778428   -0.6589404481   -0.0020217879
 C   -2.3994573382   -0.0334539223    0.0232138042
 N   -3.5214640761   -0.6722204510    0.0293124550
 N   -3.4627567573   -2.0302197643    0.0537250784
 C   -2.2799483150   -2.7386541429   -0.0124720058
 O   -2.3997677842   -4.0887759416   -0.0777279437
 C   -1.0912295086   -2.1056282114   -0.0181080842
 H    0.7597437873    1.6990313486    0.0281205173
 H   -2.4726557478    1.0457080538    0.0244839822
 H   -4.3290315051   -2.4773070393   -0.2021860065
 H   -3.1157386005   -4.3808179171    0.4996790731
 H   -0.1700386415   -2.6708108743   -0.0161528503