20

 C   -0.0801389763    1.6370768248   -0.0538462361
 C    0.0184484878    0.1099001944   -0.0887340433
 C   -1.1652342304   -0.5340813688    0.6240816565
 O   -1.1518578806   -0.1068336201    1.9789815341
 C    0.4636315307   -0.7605981422   -1.2397046863
 C    1.8021711341   -0.3615860740   -1.8904936589
 C    2.5432177864    0.7749871988   -1.2964681776
 N    2.5564909198   -0.5228427386   -0.5964958233
 C    1.2251803306   -0.8066012228    0.0687624657
 H    0.0920484255    2.0870064894   -1.0338996511
 H   -1.0836700739    1.9268362801    0.2706282029
 H    0.6159810840    2.0803838683    0.6636040626
 H   -2.0946134795   -0.2218327788    0.1207771581
 H   -1.1024902461   -1.6308825300    0.5523930117
 H   -1.9678753655   -0.4008839344    2.3943022062
 H   -0.1741192077   -1.5133223472   -1.6884280341
 H    2.1540199980   -0.8618903674   -2.7875733404
 H    3.5111832867    0.9853466172   -1.7456819781
 H    2.0637965592    1.6376246744   -0.8636302086
 H    1.2457037372   -1.5573171430    0.8490403801