18

 C    0.0583602074    1.5716134936    0.0281904762
 C    0.0126640613    0.0720710489    0.0510339102
 C   -0.8767569904   -0.7362243341    0.9526180650
 C    0.6179936479   -0.9157531521    1.0426097294
 C    1.2549144503   -1.7073873025   -0.1273585352
 C    0.3164143812   -2.2310825689   -1.1987241183
 C   -0.9484656729   -2.9076122120   -1.0561090729
 N   -1.9399804701   -3.5025536313   -1.0052357380
 C    0.6345769768   -0.7482152849   -1.1217179147
 H    1.0488259948    1.9397132259   -0.2645758412
 H   -0.6709929887    1.9807656366   -0.6819079559
 H   -0.1728470521    1.9829884252    1.0156049560
 H   -1.2829310188   -0.1578382594    1.7784932815
 H   -1.5473299685   -1.5094763523    0.6043610680
 H    1.1705752075   -0.7068540377    1.9495930911
 H    2.2724160792   -2.0756511977   -0.0917615134
 H    0.8880272057   -2.6908867748   -2.0038279646
 H    1.0983654793   -0.2633827625   -1.9723058131