16

 O    0.0665854525    1.3942633401    0.0189265079
 C    0.0069555587    0.0026915196   -0.0411642528
 C    0.2358515931   -0.6972886828   -1.4069799721
 N   -0.9019464916   -1.5999630563   -1.0948527746
 C   -1.3544813098   -0.7236778528    0.0158375512
 C   -1.3716847722   -1.4394479405    1.3650722819
 O    0.0032617620   -1.4783993169    1.8143796180
 C    0.7780090256   -0.6161518616    1.1263068042
 O    1.9032163811   -0.3362950783    1.4382497875
 H    0.9333652083    1.6196186712    0.3847736174
 H    0.0499196823    0.0211223906   -2.2147854377
 H    1.1911574493   -1.2035623451   -1.5768652970
 H   -1.5727351252   -1.7152551593   -1.8447534575
 H   -2.2406167702   -0.1126533031   -0.1740529929
 H   -1.9557113790   -0.9045141669    2.1214281551
 H   -1.7236039849   -2.4692309079    1.2818957716