18

 C   -0.4322717945    1.4164068118    0.3136056435
 N    0.0931978962    0.0920399971   -0.0189585861
 C   -0.9419569251   -0.8549422749   -0.4377181645
 C   -1.5545968678   -1.4389249479    0.8614482172
 C   -0.3633512020   -1.4010518655    1.8688221346
 C    0.7463997401   -0.5758453461    1.0987487918
 C   -0.7240087375   -0.8065860373    3.1503844359
 N   -1.0025515386   -0.3218546482    4.1633413713
 H    0.3935837930    2.0649582530    0.6189167554
 H   -0.8883750435    1.8546080170   -0.5789700334
 H   -1.1839547938    1.4254094772    1.1212528493
 H   -1.6807505841   -0.3686002151   -1.0785899623
 H   -0.4710637726   -1.6570933732   -1.0200410037
 H   -2.3737294870   -0.8131560768    1.2216147278
 H   -1.9453030947   -2.4501243986    0.7310298341
 H    0.0072590554   -2.4102913348    2.0698508808
 H    1.4842450183   -1.2885057453    0.7137090193
 H    1.2654285082    0.1360139873    1.7420604489