23

 C    0.0253761637    1.3965020542   -0.2212694184
 C    0.0134217349   -0.0549936342    0.2736943430
 C   -1.3617194518   -0.6879986267    0.1722495040
 C   -1.9656081232   -1.2652980586   -1.0836660021
 C   -0.9251270894   -2.0234847624   -1.9193382552
 C   -0.6148202410   -2.9316666014   -0.6873837406
 C   -1.6720954259   -2.1678291634    0.1288625209
 C   -2.6243081103   -2.8108322894    1.0919242305
 O   -1.9949546704   -3.2165506515    2.3037209898
 H    1.0211254950    1.8409332557   -0.1271594269
 H   -0.2726920856    1.4542196115   -1.2733368892
 H   -0.6721037968    2.0165973918    0.3528768181
 H    0.7475673155   -0.6367470649   -0.2926876067
 H    0.3481162469   -0.0877491391    1.3192183707
 H   -2.1120744567   -0.1464753652    0.7508102676
 H   -2.9283005279   -0.9275747283   -1.4515297045
 H   -1.3762410185   -2.5848422344   -2.7402707808
 H   -0.0991697621   -1.4307355857   -2.3256177365
 H   -0.9044097574   -3.9715526091   -0.8574183034
 H    0.4082469653   -2.9226931069   -0.3000916488
 H   -3.4684623254   -2.1283007336    1.2871669861
 H   -3.0426670725   -3.7301721661    0.6656110500
 H   -1.5554763564   -2.4407361725    2.6675432726