23

 C   -0.0217922989    1.5894570196   -0.1276714931
 C   -0.0399233207    0.0650412886   -0.2546323084
 C   -1.3395920363   -0.5552755068    0.2972154594
 C   -1.3822180261   -2.0094233844    0.1863803936
 C   -1.4034737986   -3.2105459804    0.0856696557
 C   -1.3975854898   -4.6785963888   -0.0203916557
 C   -2.8230412101   -5.2162272846   -0.2048730087
 C   -0.4896812006   -5.1192111403   -1.1843597640
 O   -0.9324258358   -5.2629082848    1.2050557662
 H    0.9077361896    2.0079093666   -0.5249976871
 H   -0.8532759040    2.0442576959   -0.6776360676
 H   -0.1072042645    1.9026677006    0.9188856757
 H    0.0735738499   -0.2277706230   -1.3044473075
 H    0.8132854835   -0.3679732255    0.2796670339
 H   -1.4620538378   -0.2649956696    1.3496905560
 H   -2.2000587685   -0.1242173255   -0.2326739416
 H   -3.2606959531   -4.8397639821   -1.1325105043
 H   -2.7963388972   -6.3092358610   -0.2396409962
 H   -3.4505298305   -4.9077817900    0.6338694680
 H    0.5307152212   -4.7534804575   -1.0336535668
 H   -0.4663315049   -6.2116209315   -1.2331492518
 H   -0.8524689169   -4.7253149364   -2.1381836187
 H   -0.1128735800   -4.8162734891    1.4429886629