21

 C   -0.0091868950    1.4702018586    0.1482692749
 C    0.0195732912   -0.0702553745    0.0823654544
 C    0.5567182760   -0.5784290227   -1.2571296969
 C    0.8544561640   -0.6056475985    1.2354217449
 O    1.9701974034   -1.0515397214    1.1509828020
 O    0.1698544981   -0.5063231524    2.4025526366
 C    0.8538000313   -0.9248625333    3.5701857006
 C    1.3055454152    0.1324550498    4.5317161177
 C    0.1040425089   -0.7393899596    4.8469839134
 H    0.9975988836    1.8821919295    0.0218219194
 H   -0.6396447133    1.8698350099   -0.6515692920
 H   -0.4063564975    1.8173704654    1.1053428393
 H   -1.0037851859   -0.4311268951    0.2372855117
 H    1.5911990137   -0.2571577957   -1.4042342051
 H    0.5418683324   -1.6706806226   -1.3039352949
 H   -0.0501526765   -0.1900174662   -2.0805228702
 H    1.4715082017   -1.7993314238    3.4108469521
 H    2.2325468943   -0.0273069589    5.0705487224
 H    1.1081652034    1.1625065356    4.2576227942
 H   -0.8737302582   -0.2765531150    4.7772902864
 H    0.1915993393   -1.5046435290    5.6097640792