18

 C   -0.0422348143    1.6083136568    0.2322966742
 N    0.0333946380    0.1672807632    0.1498321655
 C   -1.1968171068   -0.6043117132    0.4104685677
 C   -0.3999725805   -1.5930650476    1.2947254338
 O   -0.9810983583   -2.1382086248    2.4255805414
 C    0.8042665200   -0.5644753698    1.1829712291
 C    1.7110888387   -1.6419447478    0.5442161207
 C    0.4944338392   -2.5915320986    0.5060257964
 O    0.3063043010   -3.6957245458    0.0934613132
 H    0.9559837866    2.0392926924    0.1043044219
 H   -0.6773160123    1.9911141159   -0.5735260179
 H   -0.4540651234    1.9767858267    1.1920282199
 H   -1.9254171030   -0.0572517844    1.0371767502
 H   -1.7153618232   -0.9873457615   -0.4746791287
 H   -1.5730243114   -1.4862353922    2.8168830989
 H    1.1811770100    0.0222781843    2.0235575805
 H    2.1821280279   -1.3968118304   -0.4092974645
 H    2.4631127320   -2.0390308232    1.2371425677