16

 C    0.0091004951    1.4389725424    0.1281837532
 N   -0.0720769738    0.0164828604   -0.1004854311
 C    0.5819337891   -0.6361044826   -1.1134820871
 N    0.5897587906   -1.9770219272   -1.0187600084
 C    1.1850547134   -2.6671959176   -1.9899942769
 C    1.8038019558   -2.0919786396   -3.0949766003
 C    1.7979687382   -0.7005815741   -3.1799362487
 C    1.1871152443    0.0475089950   -2.1864592101
 H    1.0421100251    1.7961378745    0.2573435833
 H   -0.4404828089    2.0019347603   -0.6990121395
 H   -0.5512557499    1.6823393915    1.0330393652
 H   -0.3154213810   -0.5828098132    0.6714723074
 H    1.1676666938   -3.7493349314   -1.8744107057
 H    2.2733993675   -2.7084264787   -3.8515904951
 H    2.2703365372   -0.1975201173   -4.0180689838
 H    1.1731452635    1.1289993277   -2.2350577621