17

 C    0.0063677523    1.4941023683    0.1395166037
 O    1.3456712752    1.9613141150   -0.0011189179
 C    2.1236408265    1.0064385887   -0.7157892399
 C    1.4226685494   -0.3174375382   -0.5281640399
 C    1.7367175356   -1.6391812034   -1.2072655890
 N    1.3423449458   -2.6681230019   -0.2243994676
 C    0.9978557678   -2.0570989068    0.8372782908
 N    1.0882758750   -0.6332967743    0.8937237799
 C    0.0712588924   -0.0085508247   -0.0082293144
 H   -0.3596093721    1.8262989598    1.1159409505
 H   -0.6498135859    1.9066922547   -0.6441005910
 H    2.1776918575    1.2503851836   -1.7896624275
 H    3.1373148641    1.0255976930   -0.3021498833
 H    1.1993917598   -1.7957101890   -2.1484853476
 H    2.8076588494   -1.7375749997   -1.4274483509
 H    0.6645869048   -2.5751304752    1.7321474755
 H   -0.8090797375   -0.5856087799   -0.2713012314