19

 O   -0.4106743518    1.2810481117    0.6084928701
 C   -0.4436543648    0.0580798822   -0.1100157492
 C    0.7240960384   -0.8464153779    0.2809875320
 O    0.3181107802   -1.3630353168    1.5501302989
 C   -1.0837688191   -1.6832613198    1.4534167002
 C   -1.6428462990   -0.8284442475    0.2892326464
 C   -1.2452682316   -3.1817170085    1.2834399840
 C   -2.4561300049   -3.8039925475    0.7385711805
 O   -1.2612439880   -3.7178354921   -0.0426662076
 H   -0.2006131994    1.0586472870    1.5235672820
 H   -0.4536294511    0.3240440274   -1.1694835099
 H    0.8737694772   -1.6529719082   -0.4511374642
 H    1.6596651440   -0.2998781785    0.4205422631
 H   -1.5254474109   -1.4117902918    2.4198813354
 H   -2.4961424791   -0.2150029164    0.5811780871
 H   -1.9289939704   -1.4707893031   -0.5474463808
 H   -0.6418339842   -3.7596302125    1.9838775231
 H   -2.7350928219   -4.8070418171    1.0562262988
 H   -3.2804792336   -3.1788882807    0.3978594100