17

 O    0.1212864921    1.3920883181   -0.0821462222
 C    0.0372598986   -0.0133830348    0.1216802260
 C   -1.3732356949   -0.5079399288    0.0616140943
 C   -2.0683924731   -1.8475851760   -0.0514248631
 O   -2.9862751701   -1.5902507039    1.0082897889
 C   -2.5536973508   -0.1906777880    1.0157376136
 C   -3.5396241973    0.5804154955    0.1554670249
 O   -3.4365473644   -0.0475273612   -1.1334830652
 C   -2.2447628233   -0.7937066708   -1.1343360270
 H   -0.2442082678    1.5809509717   -0.9532173585
 H    0.6553160289   -0.5685290471   -0.6017254092
 H    0.4671441283   -0.1893243846    1.1138770543
 H   -1.7032244215   -2.8598781581   -0.1864619687
 H   -2.3610350877    0.1881808978    2.0199153342
 H   -4.5688268939    0.4795373377    0.5107196341
 H   -3.2712838143    1.6462238188    0.0914947404
 H   -1.8266744688   -0.9595303862   -2.1210884567