21

 C    0.3138734530    1.0853649370   -0.2177044865
 C   -0.1066840835   -0.3316150023    0.1796379545
 C   -1.5932683203   -0.5697417627   -0.0004443923
 O   -1.9517609188   -0.4880970695   -1.3596476258
 C   -3.1544336140   -1.2337456815   -1.4695559050
 C   -2.9380506118   -2.3957643732   -0.4836664309
 C   -2.3626031504   -3.6539527834   -1.1314465947
 O   -1.9141570962   -4.5718505442   -0.1587297053
 O   -1.9550139307   -1.8797144665    0.4271137629
 H    1.3881763426    1.2271171117   -0.0711398132
 H    0.0833424763    1.2787311224   -1.2687168336
 H   -0.2063639833    1.8383386806    0.3844897866
 H    0.4238589330   -1.0791129174   -0.4199474626
 H    0.1334945354   -0.5256156781    1.2307325453
 H   -2.1838760863    0.1622617160    0.5835529483
 H   -4.0251106530   -0.6238643449   -1.1877123538
 H   -3.2664487259   -1.5566331951   -2.5077849872
 H   -3.8443830714   -2.6441982808    0.0805603620
 H   -3.1359231076   -4.1595307204   -1.7210510946
 H   -1.5523182456   -3.3558923011   -1.8176610373
 H   -1.3628358915   -4.0591366366    0.4454618432