20

 C    0.2411692418    1.1833411050   -0.1706132307
 C    0.0290986138   -0.2907775492    0.1740357028
 O    0.5943498923   -0.6081426624    1.4493499900
 C   -1.4326676528   -0.6876084539    0.1184671010
 C   -2.0799619466   -1.0853631010   -1.1932226928
 C   -1.8459303258   -2.1174601657   -0.1375522378
 O   -0.8781926507   -3.0885689125   -0.4462192641
 C   -0.2078414128   -3.6184629819    0.6091972158
 N    0.5234408905   -4.6296702033    0.4274938937
 H    1.3016578620    1.4392037965   -0.1001175120
 H   -0.1086652175    1.4058226761   -1.1830228206
 H   -0.3148348763    1.8280885257    0.5221212370
 H    0.5882520579   -0.9123131871   -0.5324376539
 H    0.1959601863   -0.0189416462    2.0998105961
 H   -2.0641343281   -0.1405407958    0.8174454267
 H   -3.0949974292   -0.7702387322   -1.4048394869
 H   -1.4325774276   -1.1488671516   -2.0617582763
 H   -2.7013570463   -2.5129998427    0.4052126080
 H   -0.3603234451   -3.0663264311    1.5420847652
 H    0.9768986042   -4.8846867970    1.3028456191