16

 C   -0.4271154425    1.1389818562   -0.1588465771
 O    0.4635052177    0.0608865944    0.1018543265
 C    0.9076131445   -0.5705340292   -1.0311365868
 C    1.3792373873   -1.9893388526   -0.8787818528
 C    1.3412821805   -2.6485558771    0.3905990211
 C    1.3329166323   -3.2237691374    1.4448960043
 C    0.0721920411   -1.6909542210   -1.6536358704
 C   -1.1943562923   -2.0344308032   -1.0802214004
 N   -2.2335274853   -2.3034860001   -0.6488260825
 H    0.0511791009    1.9046284209   -0.7862049777
 H   -1.3433379076    0.7896193144   -0.6495887418
 H   -0.6796854226    1.5738949626    0.8091564099
 H    1.4451575008    0.0594720752   -1.7424774440
 H    2.2057455382   -2.2760254093   -1.5225693814
 H    1.3109245287   -3.7231606434    2.3819638627
 H    0.1244277884   -1.8117183004   -2.7305297195