21

 C   -0.0442638898    1.6006274415    0.0927589567
 C    0.0693723159    0.0884376780   -0.0044702822
 C    0.6690540859   -0.5998398712   -1.2698769615
 C    2.0486726152   -0.0298330621   -1.6962740592
 C    2.7076078562   -0.7584074260   -0.4965903796
 C    4.1309608295   -1.2376159666   -0.5672106313
 O    2.4306451553   -0.0415065531    0.7406210621
 C    1.1241096118   -0.6497675838    0.8575839976
 C    1.4136139285   -1.6158606001   -0.3203552042
 H    0.9434330167    2.0664047931    0.0434617244
 H   -0.6601011755    2.0071634159   -0.7171156342
 H   -0.5035218577    1.8986245202    1.0420232625
 H   -0.9013105258   -0.3855944122    0.1927317314
 H   -0.0239117508   -0.8878055560   -2.0605926996
 H    2.3717381702   -0.4798687982   -2.6413173908
 H    2.1803132172    1.0541729405   -1.7534238371
 H    4.8162265330   -0.3823699943   -0.5867652392
 H    4.3778966320   -1.8501188603    0.3049734564
 H    4.2979876428   -1.8295045931   -1.4726618774
 H    0.8915590321   -0.9156784270    1.8916236860
 H    1.3406913973   -2.7003946254   -0.3229279309