19

 C   -0.0851605425    1.5634910103   -0.0026748067
 C    0.0809721903    0.0630332580   -0.0951989141
 C    0.6291413030   -0.6805514239   -1.2646853560
 N    1.3407312023   -0.6719660008    0.1030590520
 C    2.4653792534    0.1414662042   -0.5199720377
 C    3.7909230520   -0.6005621871   -0.4274181529
 C    1.7699443164    0.0476723726   -1.8685083619
 N    2.0515541772    0.2585659503   -3.0859126775
 O    3.2846687159    0.9309035597   -3.2076326335
 H    0.6014750919    2.1133065004   -0.6481656440
 H   -1.1028909724    1.8327554593   -0.3023524506
 H    0.0583164204    1.9037473559    1.0287182650
 H   -0.7233640722   -0.4819666426    0.3978003971
 H    0.1521906181   -1.5638053571   -1.6755831310
 H    2.5594987522    1.1443606042   -0.0924740944
 H    3.6954640478   -1.6140455984   -0.8266935748
 H    4.5585763813   -0.0716037849   -0.9965064009
 H    4.1025179466   -0.6735425103    0.6186431923
 H    3.3864045382    0.9935369704   -4.1631707306