22

 C   -0.0816372548    1.6243998927   -0.0329915463
 C    0.0271272184    0.0985816562   -0.0050542751
 C    0.9232591331   -0.4990358543   -1.0881370072
 C    2.3008201973   -0.6153150182   -0.5269342879
 C    2.2547214042   -0.1166415667    0.9144763741
 C    0.7924557945   -0.5388696345    1.1846181216
 C    0.8790667974   -2.0171959912    0.7265728344
 C   -0.3942598775   -2.8527590497    0.7096141718
 N    1.4386399059   -1.8195621314   -0.6432860813
 H    0.8956667561    2.1144152810   -0.0186282403
 H   -0.5966212099    1.9536944364   -0.9419885714
 H   -0.6576510220    1.9928666921    0.8224685176
 H   -0.9864087809   -0.3114284095   -0.0665792377
 H    0.7195842358   -0.3822025797   -2.1463138154
 H    3.1979877225   -0.5900020010   -1.1336204780
 H    2.9643539834   -0.6368760180    1.5659035739
 H    2.4368699283    0.9572860782    1.0015510392
 H    0.3990059212   -0.3472164985    2.1824690526
 H    1.6330113909   -2.5493206187    1.3196933356
 H   -1.1775532813   -2.4117967741    0.0879953742
 H   -0.1782095956   -3.8466107764    0.3069526764
 H   -0.7889257870   -2.9732646946    1.7241025694