18

 O    3.7039208306    1.5473984780   -0.4061497210
 C    3.0275512553    2.0698755664    0.4468407624
 C    1.7675450752    2.8717729055    0.2343417711
 C    1.3243030333    3.2153905012   -1.1819915761
 C   -0.0967470770    3.7879451983   -1.2339742226
 C   -1.0943923607    2.6908918758   -0.9227429664
 O   -1.5394155267    2.4776839042    0.1789494032
 C    2.3081350668    3.6636331795   -2.2014121768
 N    1.6438526200    2.3557072504   -2.3367125418
 H    3.3059695823    1.9717269513    1.5199820026
 H    0.9711882549    2.3217740451    0.7604980971
 H    1.8782096096    3.7940755094    0.8248254458
 H   -0.2121715548    4.5942797965   -0.5024753607
 H   -0.2828704750    4.1745594335   -2.2401621331
 H   -1.3601225261    2.0416072743   -1.7837145198
 H    2.0181795018    4.4142164941   -2.9320627413
 H    3.3593726837    3.6681095640   -1.9300084839
 H    2.3088999170    1.6406507324   -2.0527063386