17

 O   -0.2186391132    1.3549969448   -0.3245854734
 C   -0.0901343271   -0.0391452440   -0.0885411842
 C    0.0403213255   -0.5557762872    1.3812738160
 C   -1.4577953347   -0.1253644450    1.6011846657
 O   -1.8162725369    1.1983417013    1.7926315828
 C   -1.4221127690   -0.7895726536    0.1731493016
 C   -0.5723509789   -1.9071965180    0.8473591594
 C    0.2851087752   -2.8536500909    0.0566729549
 O    0.5142955701   -2.7991618528   -1.1273362225
 H    0.6624885524    1.7317487104   -0.4116889201
 H    0.5730119943   -0.4873611585   -0.8283030163
 H    0.8845805126   -0.4525279923    2.0648347331
 H   -1.9862057221   -0.7113023891    2.3591081204
 H   -1.3722611486    1.7133305944    1.1029716635
 H   -2.2420473978   -0.9369061495   -0.5292374329
 H   -1.0859713502   -2.4703340868    1.6342363003
 H    0.7205056285   -3.6720594630    0.6761274417