17

 N    0.0108321050   -1.1518641611   -0.0035323740
 C   -0.0041597761    0.0032578831    0.0024354681
 C   -0.0073992923    1.4641501523    0.0096766371
 C    1.4156359656    2.0538447626    0.0000225607
 C    1.3845576134    3.5760410655    0.0078734777
 O    2.7234312762    4.0343185356   -0.0018498484
 C    2.8152896400    5.4371957889    0.0044431693
 C    4.2276767459    5.8280630935   -0.0062273177
 N    5.3305968839    6.1682581315   -0.0144300188
 H   -0.5728478378    1.8120180635   -0.8630862503
 H   -0.5573361943    1.8033448300    0.8956697357
 H    1.9717063729    1.7006530709    0.8732106276
 H    1.9561300091    1.7094224221   -0.8863536520
 H    0.8423986145    3.9590718935   -0.8735482341
 H    0.8583274130    3.9502332260    0.9026426346
 H    2.3213265300    5.8803307639   -0.8758948171
 H    2.3371977410    5.8713151883    0.8979350316