18

 C   -0.3007154495    1.5610983035    0.3194601874
 C   -0.1883020115    0.1114221100   -0.0111422705
 C   -0.5296171195   -0.5943715779   -1.1370930220
 C   -0.2108955366   -1.9766858782   -0.9258673298
 C   -0.4070430817   -3.1706281232   -1.8036459039
 O    0.6296364381   -4.1541736924   -1.5901623787
 C    0.3256959922   -2.0518227013    0.3406127606
 O    0.8092283725   -3.1040146247    1.0381604873
 N    0.3414075285   -0.8044985663    0.8922599202
 H    0.6735582511    2.0217299470    0.5311190192
 H   -0.7391829155    2.0969810670   -0.5258125208
 H   -0.9409127901    1.7439012296    1.1927171844
 H   -0.9748875919   -0.1705484009   -2.0257835029
 H   -1.3333961656   -3.7141648138   -1.5799161766
 H   -0.4537564038   -2.8824036598   -2.8629776041
 H    1.4594111763   -3.7375895291   -1.8514863150
 H    0.8383243875   -3.8366041364    0.3984418002
 H    0.7208399695   -0.5934664331    1.7993283449