15

 C    0.1862691210    1.3965600407   -0.3882215366
 C    0.0559322173   -0.0748234440   -0.1433735932
 C   -0.3003367121   -1.0601319422   -1.0401280928
 N   -0.3132060533   -2.2449107927   -0.3809781366
 N    0.0061570483   -2.1040499229    0.9201689611
 C    0.2358747380   -0.8028355283    1.0605086743
 O   -0.6593527019   -1.0093049759   -2.3586003345
 C    0.3237665318   -0.6962902988   -3.2650108782
 O    0.0912536462   -0.5859402116   -4.4241980337
 H    1.2315167600    1.7256289726   -0.3830570114
 H   -0.2445616030    1.6754135727   -1.3542714088
 H   -0.3373982708    1.9711647281    0.3822287002
 H   -0.5737546434   -3.1451547136   -0.7481027523
 H    0.5192111098   -0.4137536135    2.0283207446
 H    1.3058646522   -0.5706252306   -2.7773505120