21

 C   -0.3340119218    0.9771579040    0.4039305458
 O   -0.2499759904   -0.3444778030   -0.0838072573
 C    0.6003657186   -0.5139552062   -1.2131346235
 C    2.0799999546   -0.5187380513   -0.8278997819
 C    0.1664763364   -1.8379674191   -1.8580967796
 C   -1.2827986893   -1.7545024876   -2.2994668532
 O   -1.6396063431   -1.0384153113   -3.2127109618
 C   -2.3122843205   -2.5732751123   -1.5454133667
 O   -3.5973323088   -2.3825225106   -2.0545265104
 H    0.6172520139    1.3325271741    0.8246173546
 H   -0.6500718903    1.6782037361   -0.3830091537
 H   -1.0841954975    0.9767999912    1.1981932522
 H    0.4069470402    0.2936151253   -1.9364944814
 H    2.7069162836   -0.6684223184   -1.7123595612
 H    2.3746544479    0.4301446656   -0.3712588693
 H    2.2860802729   -1.3218423390   -0.1133567826
 H    0.7852405400   -2.0314819003   -2.7397780582
 H    0.3109099061   -2.6535106240   -1.1417991600
 H   -2.0122732468   -3.6343825754   -1.5951580491
 H   -2.2380458474   -2.2788994257   -0.4851068078
 H   -3.4854367782   -1.7394112221   -2.7734542347