18

 C   -0.0204741730    1.4816528954    0.0824041461
 C    1.3016245898    0.7623537296    0.0134242248
 C    2.0493860488    0.4601088422    1.3254744051
 C    1.0870126536   -0.4380727423    2.0616925971
 C    0.9574453763   -1.0963998780    3.2583168939
 N   -0.2247443327   -1.8043763027    3.1979235270
 C   -0.8531292515   -1.6002863216    1.9859518099
 C   -0.0520149495   -0.7507998181    1.2655936024
 C   -0.0056845219   -0.0323635711   -0.0298981944
 H   -0.3367927409    1.9122292129    1.0274495614
 H   -0.3198381928    2.0480947088   -0.7939094856
 H    1.8910427412    0.8909635946   -0.8872825288
 H    3.0013511664   -0.0435386095    1.1138132255
 H    2.2964144280    1.3777915459    1.8733177788
 H    1.5853951903   -1.1479137168    4.1334995404
 H   -0.5711992836   -2.4013167873    3.9277706485
 H   -1.7973378202   -2.0722343999    1.7671381177
 H   -0.3607078682   -0.4943247121   -0.9441600598