21

 C   -0.0425844196    1.5558325004    0.0317637558
 C   -0.0073725847    0.0496452940   -0.0039304887
 C    0.7118274090   -0.7831353397   -1.1273208061
 C   -0.2338627907   -1.9588908179   -0.6845505450
 C   -0.5719652427   -3.1387410158   -1.5590524298
 C    0.2730232735   -2.2044031180    0.7569263981
 C    0.4394828009   -0.7281914576    1.2571620296
 C   -1.2196327125   -0.8012641539   -0.4310888229
 O   -2.3722314731   -0.5882894199   -0.6760346032
 H    0.9529450948    1.9748499580    0.2155680580
 H   -0.4156392937    1.9658279044   -0.9119496671
 H   -0.7048339600    1.9084109120    0.8298091200
 H    0.5008629681   -0.4178816129   -2.1349993161
 H    1.7842614641   -0.9501803148   -0.9912378198
 H    0.3048322745   -3.7725848201   -1.7319882847
 H   -1.3439156376   -3.7587473933   -1.0906005618
 H   -0.9546168554   -2.8141342156   -2.5317134020
 H   -0.4452447433   -2.7754477179    1.3524719633
 H    1.2189639507   -2.7546305252    0.7560584003
 H    1.4741999419   -0.4911234257    1.5230827168
 H   -0.1887350741   -0.5006353604    2.1233238153