20

 C    0.0631909146    1.4300910830   -0.1667163829
 N   -0.0136830308    0.0921500001    0.4072477217
 C   -1.1947609175   -0.6330452109    0.2034323034
 C   -1.3225689032   -1.9725673846   -0.0381117381
 C   -0.3495579981   -3.0807254942   -0.2157305995
 O   -2.6586978880   -2.3024178459   -0.0864443861
 C   -3.3748842842   -1.1640746673    0.1050070466
 C   -4.8560941747   -1.2874993244    0.0724933451
 C   -2.5343494896   -0.1111163030    0.2881089917
 H    1.0529807135    1.8466193970    0.0385370854
 H   -0.1133181160    1.4630692604   -1.2539755183
 H   -0.6714405162    2.0841481925    0.3126498653
 H    0.8039803016   -0.4569833512    0.1784201660
 H   -0.2689277949   -3.7257326692    0.6694400497
 H   -0.6296660926   -3.7197286611   -1.0607442650
 H    0.6493439855   -2.6821262888   -0.4207694687
 H   -5.2190168813   -1.9821069792    0.8389241500
 H   -5.3148692728   -0.3124103639    0.2510636008
 H   -5.2094315798   -1.6596106492   -0.8964525701
 H   -2.8280788755    0.9109499097    0.4681633730