15

 N   -0.0349692403    1.4257809555   -0.1334105832
 C   -0.0298518341    0.0317863718   -0.0563008570
 C   -1.2023549471   -0.7219161974    0.0204025710
 C   -1.1654082934   -2.1151384731    0.0377633465
 C    0.0523098954   -2.7822403256   -0.0207651442
 C    1.2344920670   -2.0435407987   -0.0942188755
 C    1.1969258435   -0.6565485763   -0.1108206728
 O    2.3215762679    0.1291100627   -0.1719433049
 H    0.8422492084    1.8469176876    0.1370719639
 H   -0.8226478071    1.8657572527    0.3194640831
 H   -2.1547000971   -0.2011160064    0.0628630441
 H   -2.0932431604   -2.6734755769    0.0978162096
 H    0.0928039921   -3.8653880105   -0.0084739471
 H    2.1967368723   -2.5485661647   -0.1353964845
 H    3.0995365829   -0.4367003108   -0.1749779889