18

 O    0.1093099425    0.0174037108    0.1872245575
 C    0.0167737507    1.2028852508    0.0012147389
 C   -1.2812277662    2.0007017059   -0.2178616029
 C   -0.8013254181    3.2808295992   -0.8899156815
 C   -1.3024511224    3.7043757034   -2.2412652287
 C   -1.6200856399    4.5298186041   -1.0117120169
 N    0.6467278726    3.4502643280   -0.6759867686
 C    1.0251822749    3.3982882670    0.7296254730
 C    1.1523124378    2.1748622609   -0.1266141858
 H   -1.9728153178    1.4167278400   -0.8282852087
 H   -1.7690582816    2.1677314489    0.7503898647
 H   -0.5684717473    4.1013241006   -2.9327603792
 H   -2.1003585091    3.1261658250   -2.6951575981
 H   -2.6340224034    4.5161126675   -0.6261609025
 H   -1.1024418194    5.4757446374   -0.8967646855
 H    1.9306794472    3.9402775649    0.9842710046
 H    0.2483603081    3.4225636019    1.4898330764
 H    2.1234740413    1.8101987039   -0.4415125766