14

 C   -0.0484321747    1.5303297198    0.0107474211
 C    1.4437021408    1.8436993572   -0.0018106816
 C    2.1480164391    0.7051521856   -0.0147850351
 N    1.2570734143   -0.3790126374   -0.0122163715
 N    1.4255249999   -1.7097561290   -0.0211971174
 C    0.1694647721   -2.1672626346   -0.0119251602
 C   -0.7971396777   -1.1278365745    0.0032285872
 C   -0.0443543926    0.0272507135    0.0024447843
 H   -0.5446160091    1.9460306391    0.8966326559
 H   -0.5614607028    1.9556859738   -0.8608426295
 H    1.8528169235    2.8423647726   -0.0002099519
 H    3.2113529276    0.5232597454   -0.0259306809
 H   -0.0060295082   -3.2332997706   -0.0162434569
 H   -1.8700490821   -1.2268083910    0.0129565366