16

 C   -0.0045456060    1.4073615315   -0.0094889590
 O   -0.0018015625   -0.0031189530    0.0088498612
 C    0.6362314233   -0.5652620945   -1.1064123215
 C    0.5963744447   -2.0672959950   -1.0123969888
 C   -0.0032699797   -2.7502583181    0.0522358821
 N   -0.0231699725   -4.0787406863    0.1081726491
 N    0.5451264670   -4.7680560474   -0.8794465232
 C    1.1047089616   -4.0787903679   -1.8725629165
 N    1.1645793881   -2.7507198781   -1.9997259894
 H    1.0181697312    1.8139164175   -0.0104993577
 H   -0.5342624265    1.7994527134   -0.8909107421
 H   -0.5196354750    1.7415943106    0.8932875423
 H    0.1528682612   -0.2571018569   -2.0493897440
 H    1.6893347233   -0.2432321673   -1.1774665206
 H   -0.4732461280   -2.2184530232    0.8698529022
 H    1.5573776596   -4.6738950454   -2.6608161042