20

 C   -0.2154651886    1.4303976386   -0.0792791688
 C   -0.1273550516   -0.0874137586   -0.0540599810
 O   -0.4486397028   -0.7567035630    0.9103099612
 N    0.4164098502   -0.6582744706   -1.1833404232
 C    0.1886711070   -0.3264340161   -2.6219624955
 C    0.9312608630   -1.6558490636   -2.9217912311
 C    0.2076817302   -2.0697566249   -1.6108587900
 C   -1.2812302356   -2.0768534975   -2.0382829487
 C   -1.2954963504   -0.7270841974   -2.8340455976
 H    0.7107050602    1.8784339042   -0.4499214011
 H   -1.0278154671    1.7553135428   -0.7391548789
 H   -0.4225474107    1.7855334700    0.9301575361
 H    0.5327415669    0.6391197030   -2.9907778173
 H    0.6704278056   -2.1878851356   -3.8386297602
 H    2.0103470269   -1.5688763517   -2.7963207400
 H    0.5688183683   -2.8553111647   -0.9516834945
 H   -1.5317173764   -2.9424735093   -2.6566617424
 H   -1.9416884694   -2.0652888970   -1.1698131263
 H   -1.9859559310    0.0072933017   -2.4116319112
 H   -1.5406499946   -0.8502106503   -3.8923886596