17

 C   -0.0584124586    1.5385502450   -0.0196277187
 C    1.3491994982    2.1411528099    0.0988310294
 N    1.9634256993    1.7291999691    1.3597521568
 C    1.8710602592    0.3925687903    1.6702081936
 N    2.6085631216   -0.2151805174    2.5730417227
 O    2.1204675172   -1.5355877137    2.5942438624
 C    1.1257982724   -1.6474981326    1.7014890442
 C    0.9027967836   -0.4723793727    1.0649807152
 C   -0.0220360388   -0.0045711988   -0.0195810615
 H   -0.6573407805    1.8932120284    0.8264959384
 H   -0.5322938423    1.9041978798   -0.9353474662
 H    1.9526106232    1.8394770495   -0.7742160160
 H    1.2893920250    3.2334325152    0.0919288602
 H    2.8390418838    2.1681339471    1.6031619160
 H    0.6718488502   -2.6245938557    1.6279858905
 H   -1.0325757130   -0.4066795195    0.1084513908
 H    0.3289007396   -0.3589632039   -0.9980710079