16

 C    0.0319082008    1.4668493897   -0.0260152497
 N   -0.0322503427    0.0180920870    0.0797487437
 C   -1.2228663481   -0.6405472696    0.0398984626
 N   -2.3474440681    0.0337278287    0.0617282123
 C   -3.4880255731   -0.7143840390    0.0611543274
 C   -3.5493732649   -2.0749504060    0.0245783487
 C   -2.3301282729   -2.8435466518   -0.0054251406
 O   -2.1833194032   -4.0509738132   -0.0332888085
 N   -1.1823937110   -2.0044123884    0.0052839388
 H    1.0519357615    1.7842831027    0.1998720679
 H   -0.2462855692    1.8271051059   -1.0238529636
 H   -0.6522210501    1.9139228769    0.6961467189
 H    0.7916782288   -0.4986359329   -0.1792266510
 H   -4.4064946376   -0.1326683428    0.0873285000
 H   -4.4881675702   -2.6115010278    0.0201132254
 H   -0.3039033301   -2.5059580196    0.0173227578