15

 N   -0.1291725507    1.4086434747   -0.0546970316
 C   -0.0218806185   -0.0184695297   -0.0049482907
 C   -0.5009795893   -0.7618147715   -1.2380863082
 C   -1.3250970415   -0.8442165330    0.0105558693
 N   -1.3580007634   -2.0776918533    0.7146614020
 C   -0.2737067024   -2.5320129608    1.1673568187
 O    0.9649756485   -1.9344220028    1.1529041331
 C    1.0970627285   -0.6028085571    0.7812268012
 O    2.0719575000   -0.0052943460    1.1377077549
 H   -0.0971341569    1.7940617984    0.8852785635
 H    0.6758067603    1.7953582411   -0.5408536633
 H   -0.8623740179   -0.1177592582   -2.0302815177
 H    0.0277325706   -1.6535582013   -1.5544001053
 H   -2.2457970560   -0.2739427777    0.0391645314
 H   -0.2107164415   -3.4965401429    1.6615660230