23

 C   -0.0504503798    1.5692930089    0.0453959130
 C   -0.0110395300    0.0289903251   -0.0051599377
 C    0.5820239391   -0.4888264719   -1.3437247675
 C    2.1227173678   -0.5914770395   -1.3447625865
 C    2.5117349454   -1.5799899225   -0.2525234564
 C    3.8452180253   -1.5321290906    0.5638139752
 C    3.0041651378   -1.7090160456    1.8757265134
 C    1.8080383062   -1.2773104784    1.0520618778
 C    0.7359026653   -0.5109649574    1.1984051460
 H    0.9532501655    1.9943726148   -0.0619639500
 H   -0.6779081569    1.9716682304   -0.7571811290
 H   -0.4566104934    1.9230922767    0.9989654530
 H   -1.0545794394   -0.3147607433    0.0453350781
 H    0.1754636542   -1.4867394882   -1.5512089201
 H    0.2418375886    0.1586003464   -2.1596466117
 H    2.4818036096   -0.8970567205   -2.3338434502
 H    2.5673435608    0.3885538547   -1.1299265993
 H    2.3228821048   -2.6099511219   -0.5856832974
 H    4.5990426371   -2.2915821217    0.3436518320
 H    4.3073731578   -0.5421873267    0.5186653870
 H    2.9569230816   -2.7605169062    2.1818685745
 H    3.2725686000   -1.1052567424    2.7466512004
 H    0.4028967426   -0.1797611201    2.1808675953