17

 C   -0.2249024177   -1.2072906004    0.0320701113
 C   -0.1253140439   -0.0140260875    0.1318937368
 C    0.0283186789    1.4305310260    0.2381755421
 C    1.3940981007    1.9078879547   -0.2848231160
 N    1.4630633148    3.3649569942   -0.1795367266
 C    2.0154523196    3.9235237680    1.0401192432
 C    2.7795285922    4.0090141580   -0.2491199492
 C    3.9847269704    3.2284534692   -0.3994807629
 N    4.9515964366    2.6115146317   -0.5502162303
 H   -0.3240243711   -2.2611488029   -0.0519977366
 H   -0.7625723093    1.9413806306   -0.3231598416
 H   -0.0865202767    1.7404386780    1.2848572051
 H    2.2012218806    1.4015794358    0.2653140213
 H    1.4988814629    1.6387058512   -1.3398748925
 H    1.5336645816    4.8168927929    1.4260865882
 H    2.4064012394    3.2393332367    1.7914122488
 H    2.7951765608    4.9455747137   -0.7993916110