23

 C    0.2227782024    1.6610494842   -0.4039917183
 C    0.2246909232    0.1554339067   -0.2222134496
 C   -0.9839169651   -0.5429696659   -0.8284425487
 C    1.4903952478   -0.6428221650   -0.3139800504
 O    2.6158691936    0.0621482700    0.2142522564
 C    2.0616932473   -0.0419941027    1.5760296873
 C    2.8320818866   -1.1252674797    2.3294899147
 C    2.0947099947    1.2741041045    2.3401124749
 C    0.7476477866   -0.5943356135    1.0055954433
 H    1.2185203461    2.0791945535   -0.2528363300
 H   -0.0875034979    1.9074435214   -1.4261795452
 H   -0.4779276091    2.1549921901    0.2786445933
 H   -1.0770362128   -0.3022640147   -1.8933030982
 H   -0.9138182174   -1.6318185838   -0.7348815083
 H   -1.9090369003   -0.2268560161   -0.3329349001
 H    1.6824583570   -1.4437498725   -1.0212230716
 H    3.8681373452   -0.8097515596    2.4865075985
 H    2.3771202565   -1.3128003982    3.3085244402
 H    2.8366784854   -2.0611570656    1.7649649340
 H    1.5129407224    2.0563390876    1.8550896570
 H    1.6951691637    1.1268039701    3.3490801735
 H    3.1288634465    1.6218143020    2.4373256273
 H    0.1532762473   -1.3574593427    1.4940878700