16

 C    0.0264432982    1.5129157764    0.0528466197
 C   -0.0565678220    0.0202510128    0.0189083294
 C   -1.1737834838   -0.7117460465   -0.1886099925
 C   -1.0949952382   -2.1511721374   -0.1932989627
 O   -2.0255280800   -2.9247250650   -0.3683407715
 C    0.2886391463   -2.6587771743    0.0455635361
 C    0.4993855273   -4.1410898820    0.0640995584
 N    1.3284161744   -1.9218314029    0.2392090121
 O    1.1522754490   -0.5359280592    0.2257879533
 H    0.7169489678    1.8732572347   -0.7162578200
 H   -0.9573493055    1.9528870760   -0.1152652415
 H    0.4099463506    1.8507979625    1.0208108100
 H   -2.1282375665   -0.2277057743   -0.3516422398
 H    0.1719562660   -4.5721263991   -0.8868693997
 H    1.5481213536   -4.3794779770    0.2431548438
 H   -0.1269021571   -4.5931366548    0.8392789449