18

 N    0.0704888338    1.4135148002    0.1978012374
 C    0.0158478200    0.0233529914    0.0587466959
 C   -1.1898252820   -0.6693912901    0.2255236885
 C   -1.2244085958   -2.0560715124    0.1388617058
 C   -0.0684994564   -2.7978766469   -0.1038131177
 C   -0.1051163814   -4.3046890137   -0.1445273437
 O    0.8093349632   -4.7735804476   -1.1289741525
 C    1.1323642528   -2.1040890242   -0.2728064729
 C    1.1774072737   -0.7189849042   -0.1974377890
 H    0.8370205110    1.8528606210   -0.2915414747
 H   -0.8005558781    1.8880184021    0.0076230584
 H   -2.1041795320   -0.1145167153    0.4157379109
 H   -2.1752334800   -2.5685824176    0.2587354156
 H    0.1606858585   -4.7138014287    0.8452122946
 H   -1.1319905643   -4.6403773936   -0.3605456625
 H    0.9107362968   -5.7223051379   -1.0090588910
 H    2.0365475546   -2.6631574995   -0.4849870346
 H    2.1215184357   -0.1993971229   -0.3362505286