19

 C    0.1404845427    1.6123956959    0.0074944807
 C    0.0680749108    0.0811449910   -0.0075921042
 C    0.7764240178   -0.5677166900   -1.1762947794
 C    1.5591029613   -1.5843098345   -0.8205186798
 C    1.5523023527   -1.8097425382    0.6708936045
 O    2.8321031540   -1.6654465342    1.2896853571
 C    2.9647346881   -0.2906746207    1.5420823218
 O    1.6839300759    0.1856430638    1.9041147823
 C    0.7166113232   -0.6145909075    1.2261422861
 H    1.1759231045    1.9586643485    0.0435040602
 H   -0.3310049400    2.0250217195   -0.8904957665
 H   -0.3766138893    2.0213257285    0.8804218377
 H   -0.9941104947   -0.2036292063   -0.0352244488
 H    0.6217210291   -0.2272581813   -2.1959480546
 H    2.1488147528   -2.2017191479   -1.4881689475
 H    1.1780430290   -2.7971380717    0.9566440487
 H    3.6518923875   -0.1480254310    2.3812219347
 H    3.3360763837    0.2430602513    0.6502349716
 H   -0.0328679891   -0.9082749951    1.9657855256