19

 C   -0.0112032812    1.5411715524   -0.0118173866
 C   -0.0130092577    0.0030125052    0.0253294503
 C    0.7607591653   -0.5240401840    1.2462042373
 C   -1.4307992476   -0.5294753929    0.0202774511
 N   -2.2132109698   -0.1932872932    1.0562869575
 C   -3.4589587788   -0.6626461504    1.0472458665
 C   -3.9465576009   -1.4651797490    0.0216913442
 C   -3.0546854720   -1.7531379429   -1.0027632034
 N   -1.8013791094   -1.2941976931   -1.0155056051
 H    1.0156747426    1.9202654749   -0.0206408123
 H   -0.5191433113    1.9187575593   -0.9049230267
 H   -0.5220924308    1.9445693813    0.8670852800
 H    0.4569420537   -0.3767077214   -0.8866797458
 H    0.2785540331   -0.1994309623    2.1726282662
 H    0.8035626650   -1.6178319962    1.2490374833
 H    1.7876963936   -0.1450798902    1.2382550228
 H   -4.0883884623   -0.3861988221    1.8910622542
 H   -4.9617255003   -1.8430255409    0.0222022041
 H   -3.3501368710   -2.3738591046   -1.8464045375