19

 C    0.0233549563   -1.1300523958    0.3475817680
 C   -0.0016266675    0.0390350428    0.0689642300
 C   -0.0080464496    1.4588406396   -0.2700316596
 C    1.3663870222    2.0972321245   -0.1313272592
 C    1.5922162168    3.5877152745   -0.0804676115
 C    0.4305491752    4.5180426624    0.2804164630
 C    0.0640263005    4.1086041785    1.6922884384
 C    0.8737572996    3.1555811515    2.1623721822
 C    1.8838723807    2.7325408243    1.1519925146
 H    0.0354332719   -2.1621980918    0.5954138143
 H   -0.3610598435    1.5838717229   -1.3026530482
 H   -0.7306579245    1.9794499094    0.3674604206
 H    2.1325930509    1.5581698520   -0.6823213945
 H    2.3994039897    3.9886973102   -0.6825246040
 H    0.7385500948    5.5708332010    0.2343153769
 H   -0.4191529505    4.4221454403   -0.4095762046
 H   -0.7778095594    4.5381639039    2.2239520540
 H    0.8076173988    2.7058940557    3.1465664627
 H    2.8915919175    2.4868197843    1.4691673669