17

 C   -0.9705221419    0.0938716946    0.8633936387
 O    0.2745288125    0.0251304601    1.5399800141
 C    1.3515689630   -0.3255102776    0.6930051351
 C    1.5343215185   -1.8407127706    0.4793599577
 O    2.1735218489   -2.2729864137   -0.4449383336
 N    0.9183794903   -2.5810935550    1.4777733495
 C    0.9922444389   -3.9737318830    1.6759054923
 N    0.1808934191   -4.3816100062    2.7227535057
 O    1.7061756706   -4.7184947509    1.0550576909
 H   -1.2545091111   -0.8735984692    0.4248194039
 H   -1.7204720280    0.3863119051    1.6016239397
 H   -0.9437309028    0.8454705033    0.0626851159
 H    1.2713480633    0.1411920827   -0.2960380380
 H    2.2656624837    0.0481516024    1.1682029518
 H    0.4437300121   -2.0152358297    2.1688592980
 H   -0.6654378393   -3.8694506516    2.9177712207
 H    0.0940495722   -5.3843629709    2.7877447874