18

 C   -0.5858015011    1.4073249333   -0.1841118533
 N   -0.1893470202    0.0196697437   -0.0537314018
 N   -0.1741119124   -0.7744100749   -1.1426657684
 C    0.1899372095   -1.9702087689   -0.6860088877
 C    0.4065579568   -1.9537583539    0.7039430114
 C    0.1508780006   -0.6472536367    1.0873930626
 C    0.2032325008    0.0307117799    2.3977621747
 C    1.0249835039   -0.5224898970    3.4999926817
 N    1.4482640795    0.7210703974    2.8369041105
 H    0.0456277931    2.0395808957    0.4442621629
 H   -0.4638032316    1.6876829904   -1.2298493613
 H   -1.6331272314    1.5522207411    0.1037726694
 H    0.2840450864   -2.7980947214   -1.3733559151
 H    0.6920146177   -2.7718172315    1.3451551949
 H   -0.6888802288    0.5912752088    2.6696629944
 H    0.6901142827   -0.4044321383    4.5261677315
 H    1.5892040686   -1.4302252067    3.3078479619
 H    2.1881860660    0.5009923091    2.1727356716