16

 N   -0.1388594225   -0.8203236023   -0.5886770115
 C   -0.0124240910    0.2459429854   -0.1612518137
 C    0.1600815487    1.6046155532    0.3807587279
 N    1.5235907397    2.0982800125    0.2475874380
 C    1.8726323051    2.5150633941   -0.8989678969
 N    3.1333500187    2.9609621484   -1.2305563650
 C    3.0765397021    3.7165186757   -2.4717119992
 C    1.8508248925    3.0502663290   -3.1156422823
 O    1.0709595063    2.5914916502   -1.9977974312
 H   -0.5816408385    2.2512189156   -0.1090701949
 H   -0.0921359311    1.5719913408    1.4455534720
 H    3.7224244636    3.2518842331   -0.4667253198
 H    2.9133216779    4.7917057692   -2.3096436695
 H    3.9806603975    3.5861587366   -3.0716699920
 H    1.2385758181    3.7307563876   -3.7088008379
 H    2.1334870530    2.1852005109   -3.7244700640