16

 O   -0.1188739902   -0.0463268452   -0.3423858821
 C   -0.0477863485    1.1283059525   -0.0880703309
 C   -1.2202597462    2.0772862263    0.0943544413
 C   -0.8631910156    3.2500020390    0.6572722747
 C    0.6042566884    3.1592659531    0.9561876484
 C    2.0403006236    3.7550291273    0.9037796158
 N    2.3194366206    2.2352113354    1.1009835554
 C    1.1863411145    2.3102472402    2.1276110752
 C    1.1585508967    2.0733472168    0.0563173703
 H   -2.2283045891    1.7615490583   -0.1472129828
 H   -1.5439917666    4.0457630297    0.9401971884
 H    2.3984518667    4.1490493507   -0.0498117434
 H    2.3877953801    4.3545330132    1.7486391096
 H    1.4644536521    2.8276488416    3.0488793219
 H    0.7142816843    1.3458845024    2.3337341356
 H    1.4774776393    2.3811470987   -0.9460474372