14

 C   -0.3109524251    1.4509126331   -0.2755104703
 C   -0.0071235096   -0.0155249127   -0.0513720448
 C    0.9878237278   -0.7192479815   -0.8945555896
 O    1.3202089013   -0.3118600031    0.4244270729
 C   -1.0603166670   -0.7966194104    0.5483035941
 C   -1.9777362047   -1.4094457328    1.0416686187
 C   -3.0367412789   -2.1732257057    1.6493978767
 O   -4.2151374764   -1.9365727981    1.5125907084
 H    0.5503441534    1.9426284442   -0.7335197015
 H   -1.1808696754    1.5668094954   -0.9282206986
 H   -0.5301032380    1.9435064827    0.6758628953
 H    0.8995759086   -1.7926553044   -1.0496053208
 H    1.4641075603   -0.1608307323   -1.6997210299
 H   -2.6823180564   -3.0200475544    2.2710800995