20

 C    0.1278111325    1.5057032360   -0.0172595264
 C    1.3509461477    0.6235391782   -0.0565282654
 C   -0.0229331696    0.0019973576    0.0220662459
 C   -0.4634077882   -0.6635706398    1.3087120524
 C    0.1415131429   -2.0592835785    1.5094568832
 N   -0.1627502225   -3.1067438740    0.5509045305
 C   -0.1862037342   -2.9949987590   -0.7032173044
 O   -0.0469109114   -1.9360534124   -1.5501133766
 C   -0.5772302913   -0.6446369668   -1.2216380527
 H   -0.0798119536    2.0550631080    0.8946591835
 H   -0.1547615735    2.0317456572   -0.9233801119
 H    1.8971247724    0.5425333707   -0.9900656327
 H    1.9783596846    0.5831966771    0.8276185886
 H   -0.1749007533   -0.0467681580    2.1685724465
 H   -1.5594710089   -0.7354571275    1.3265124079
 H    1.2365914579   -1.9620922553    1.5472206562
 H   -0.1630523885   -2.4297157134    2.4947199802
 H   -0.2914324566   -3.9001463535   -1.3044245387
 H   -1.6693359135   -0.7361637669   -1.1333739997
 H   -0.3565785330   -0.0382701598   -2.1038233767