19

 C   -0.0547768801    1.5538430285    0.0183090947
 C    0.0344691853    0.0256861523    0.0010750902
 C    0.6777892449   -0.4931700424   -1.2931276927
 C    0.8637711812   -2.0121738122   -1.2215101137
 C    1.6541102900   -2.3785585683    0.0101808656
 O    2.4214857291   -3.3143446809    0.0768049537
 C    1.4255104263   -1.4782960948    1.2155951454
 N    2.0409036834   -1.9430843746    2.3428196705
 N    0.7127306126   -0.4142048935    1.2175742768
 H    0.9462993805    1.9961864915   -0.0224810248
 H   -0.6307951880    1.9230320536   -0.8366809330
 H   -0.5344385573    1.8937706259    0.9394066797
 H   -0.9962783179   -0.3663718458    0.0454936347
 H    0.0660173604   -0.2213652406   -2.1598970185
 H    1.6539761264   -0.0076827856   -1.4258716529
 H   -0.1191816249   -2.4992380544   -1.1322802839
 H    1.3569433364   -2.4372004546   -2.0995846043
 H    2.7496390351   -2.6457031452    2.2059611858
 H    2.1268165267   -1.3110218089    3.1209712868