19

 O    0.7805323803    0.2065701025    1.4200664363
 C    0.3500760433    1.1636666196    0.8349078936
 C    1.1350820590    1.9884383232   -0.1789714940
 C    1.5480297317    3.3453566530    0.4333590914
 C    2.8456825478    2.9520369862    1.1248846150
 C    3.7333674221    3.9340393893    1.8322928105
 C    2.9467910957    2.9188225873    2.6287134527
 C    3.4076651941    1.8123403759    0.2752978607
 O    2.3380699830    1.3663809916   -0.5659649032
 H   -0.6866697838    1.5415241883    1.0116676778
 H    0.5033624816    2.1113072188   -1.0689745730
 H    1.7208716351    4.0677475843   -0.3714459687
 H    0.8021642718    3.7648646785    1.1145300487
 H    4.8074315433    3.7983815071    1.7511976944
 H    3.4216463121    4.9728854001    1.8719756901
 H    2.1002032481    3.2702797968    3.2099005516
 H    3.4856386792    2.0936355125    3.0825114403
 H    4.2263862500    2.1441945573   -0.3761868557
 H    3.7663983054    0.9799607280    0.8919638915