16

 O    0.0032157960    0.0094529236    0.1577912615
 C   -0.0142786553    1.2051363558    0.0281944245
 C   -1.2715703079    2.0983471588   -0.0290795549
 C   -0.7326576328    3.4544295417   -0.4467598776
 C    0.3898229430    4.1122647232    0.3411003371
 C    1.1573685751    3.0849793170    1.1716593122
 C    1.1832943010    2.1382820570   -0.0892558156
 C    0.6921798447    3.3445494981   -0.9349155181
 H   -1.9682743682    1.6908128836   -0.7690736387
 H   -1.7853805750    2.0828947098    0.9384108918
 H   -1.3888958814    4.1434589920   -0.9658026374
 H    0.3919338904    5.1836182290    0.5037117721
 H    2.1688692494    3.4287926395    1.3980931159
 H    0.7001996043    2.6991086994    2.0898730812
 H    2.1218883370    1.6385650053   -0.3149596214
 H    1.0635048696    3.6717973162   -1.8962606828