16

 C    0.0026613742    1.4958578881   -0.0205323231
 O    1.4223188708    1.7827102687   -0.0373047042
 C    1.9747691138    0.4905067118    0.0087196276
 C    1.1519145704   -0.4222435894   -0.9861918390
 C    1.5560966375   -1.8211727841   -0.5727237655
 C    1.5617700530   -1.7711047573    0.7648893506
 C    1.1606760942   -0.3450486095    1.0760315410
 C    0.0183558794   -0.0235877143    0.0362773961
 H   -0.4585051112    1.9652818028    0.8563368449
 H   -0.4660818558    1.8985601470   -0.9260948711
 H    3.0646599778    0.5262827515    0.0027494498
 H    1.0742984056   -0.1627519555   -2.0423954126
 H    1.8151395026   -2.6327096849   -1.2374312376
 H    1.8266933156   -2.5307619167    1.4861853707
 H    1.0919432280   -0.0072971828    2.1105004811
 H   -0.9333953859   -0.5562062553    0.0602586513