16

 O   -0.0743060488    1.4061869487    0.0729426284
 C    0.0110509798    0.0164106458    0.0492235961
 C    0.9163830433   -0.7150386553    1.0387895597
 C    0.6891600542   -2.0019686443    0.7769713254
 C   -0.3348104684   -1.9672896297   -0.3483241727
 C   -1.3308219561   -0.7870148042   -0.0379545586
 C   -1.4285095288   -0.4694401691   -1.5499506376
 C    0.0652161863   -0.7933180153   -1.3128040591
 H    0.7971517539    1.7672828349   -0.1201159595
 H    1.5585714789   -0.2469216463    1.7720161016
 H    1.1071809110   -2.8861846942    1.2372057976
 H   -0.7256285015   -2.8912970675   -0.7720675771
 H   -2.1259899781   -0.7900321084    0.7119809441
 H   -1.9908854270   -1.1786598178   -2.1630063551
 H   -1.6658865320    0.5629362635   -1.8110743921
 H    0.8860004633   -0.8028486707   -2.0361353313