21

 C    0.0400790933    1.5040884044   -0.0376590659
 C    0.0396450849   -0.0173727880    0.0208119334
 O    0.7362115796   -0.4711225672   -1.1470550043
 C    0.7057355885   -1.8583337599   -1.3185763633
 C    2.0305894067   -2.5673441310   -1.3270250208
 C    1.1146573782   -2.6849428253   -0.1265978426
 C    1.3183650192   -1.9421520501    1.1691125911
 C    2.1945504245   -0.7168628055    1.2985971029
 C    0.6949658567   -0.5661959851    1.2795395532
 H    1.0647179062    1.8853352998   -0.0023547725
 H   -0.4267981207    1.8495259511   -0.9641338694
 H   -0.5136660483    1.9195962408    0.8097418187
 H   -1.0011958032   -0.3814324794   -0.0214215228
 H   -0.0920201567   -2.2078351561   -1.9731701282
 H    2.1426491542   -3.4361266425   -1.9664309300
 H    2.9165859887   -1.9491708040   -1.2394736151
 H    0.6109326960   -3.6392211382   -0.0074080788
 H    1.2666724888   -2.5716644821    2.0514247236
 H    2.7167835636   -0.5746888413    2.2381835657
 H    2.7366278564   -0.3740841176    0.4251990007
 H    0.1895519732   -0.3040074427    2.2043049842