14

 C   -0.0492399333    1.5077700320    0.0036119819
 C   -0.0086935041    0.0075617855    0.0160788428
 N   -0.2752011329   -0.6312327288   -1.1305338320
 C   -0.2374683597   -1.9591036743   -1.1119966224
 C    0.0674785340   -2.6714543792    0.0536509973
 N    0.3361076449   -2.0466944221    1.2074436734
 C    0.2954145558   -0.7202910819    1.1767468993
 C    0.0986606143   -4.1075274441    0.0346217300
 N    0.1131755606   -5.2627124778   -0.0235841506
 H    0.1824433967    1.9257271720    0.9856751241
 H    0.6676737635    1.8995009128   -0.7247708231
 H   -1.0400224938    1.8568478114   -0.3037302339
 H   -0.4529265388   -2.4818382679   -2.0396133097
 H    0.5122595719   -0.2054407474    2.1091830606