23

 C    0.4287811006    1.4833674569   -0.3803311098
 C   -0.0189468526    0.0873768660    0.0433231179
 O   -1.4279056208    0.0600599556    0.2199943579
 C    0.6080956378   -1.0357187967   -0.8365583701
 C    1.6463053177   -1.2910237643    0.2879099577
 C    0.7392536088   -0.5069540138    1.2862174617
 C    1.4239881783    0.4553519164    2.2530544926
 C   -0.1636317674   -1.4724332231    2.0616799547
 O    0.6681287467   -2.2387500194    2.9294163006
 H    1.5115269786    1.5416762093   -0.5238058529
 H   -0.0386543359    1.7450869133   -1.3386183267
 H    0.1346724193    2.2325293318    0.3602065304
 H   -1.8364402598    0.4380836581   -0.5658951166
 H   -0.0883768857   -1.8678932161   -0.9624821318
 H    0.9868920245   -0.7405677099   -1.8192055543
 H    1.8573015662   -2.3273437713    0.5551685162
 H    2.5949091208   -0.7792089939    0.1041222096
 H    2.1463555405    1.1005940686    1.7455670461
 H    0.6911982465    1.0977443310    2.7559867017
 H    1.9544456518   -0.1100956438    3.0235175268
 H   -0.9103455351   -0.8990120126    2.6290321253
 H   -0.7127586834   -2.1253872847    1.3706039445
 H    0.1022423327   -2.8245891876    3.4395428287