20

 C   -0.0315882936    1.5101901775   -0.0045940562
 C    0.0117005157   -0.0038956778    0.0177960546
 C    0.7262272891   -0.6815498288   -1.1980910000
 C    0.9190339932   -2.1565646747   -0.7305469418
 C    0.3078478019   -2.1158239464    0.6811691288
 C    0.7076785162   -0.7299709862    1.1971178465
 O   -1.1301354661   -1.9746640019    0.5144975445
 C   -1.3451897691   -0.6840065299    0.0949324392
 N   -2.4666892452   -0.1808223957   -0.1889527548
 H    0.9780468285    1.9281688675   -0.0755443089
 H   -0.6153634234    1.8620160608   -0.8594901693
 H   -0.5073407137    1.9039267032    0.8981644517
 H    0.1334251660   -0.5948567862   -2.1114120026
 H    1.6857024673   -0.1861950006   -1.3753304388
 H    0.3920378231   -2.8789102966   -1.3574113210
 H    1.9733340526   -2.4454238379   -0.6944981745
 H    0.4855107770   -2.9821557753    1.3164998129
 H    1.7889485450   -0.5704149616    1.2264247055
 H    0.2716270500   -0.4964122739    2.1719436091
 H   -3.2119912146   -0.8698200056   -0.0709026448