23

 C   -0.2950182876    1.5104864279    0.0143062958
 C   -0.0326487594    0.0039512229    0.0038366129
 C   -1.3082739175   -0.7800113603   -0.2845064939
 C    1.2057101006   -0.3652637549   -0.8865249724
 C    2.0351103843   -0.4973709185    0.3935176756
 C    3.3287483861   -1.2571655696    0.5906394374
 C    3.3144271293    0.2475866358    0.6394288399
 O    3.9104595030    1.0386268040   -0.3497222525
 C    0.7774003078   -0.4623593056    1.2637035456
 H    0.6255944327    2.0713689442    0.2062449894
 H   -0.6945964294    1.8452028184   -0.9500891192
 H   -1.0220283427    1.7782303647    0.7898075237
 H   -1.7286679481   -0.5071560385   -1.2598365011
 H   -1.1200086997   -1.8589585314   -0.2915128320
 H   -2.0739836626   -0.5791377482    0.4742350457
 H    1.0755609156   -1.3091785848   -1.4265869907
 H    1.5317614540    0.4055371650   -1.5936097944
 H    3.4816797364   -1.8100964990    1.5129995312
 H    3.7659375397   -1.7317752363   -0.2854198253
 H    3.4441766717    0.7253313459    1.6065217308
 H    3.9522329559    0.5294029740   -1.1650771242
 H    0.7849500958    0.2224478008    2.1182300672
 H    0.4709854341   -1.4539972162    1.6144346504