10

 O    0.0157923289    0.0192731848   -0.0474144044
 C    0.0076096557    1.2084752886    0.0427217841
 C   -1.1279009760    2.2822233043    0.1124356278
 C   -0.0123830231    3.3209509903   -0.0686245239
 O    0.8541070088    3.1666032880    1.0463232037
 C    1.0689372461    2.3008866941   -0.0894736499
 H   -1.8057268929    2.1682036317   -0.7388848095
 H   -1.6966165963    2.3617307892    1.0404526773
 H   -0.0359013023    4.2774714669   -0.5749655706
 H    2.0541872611    2.2935381121   -0.5396697345