20

 C   -0.1829794289    1.5622789357    0.1172964853
 C    0.0676475003    0.0504198180    0.0211179027
 C    0.7498520125   -0.3649822353   -1.2491478897
 N    1.5239242953   -1.6348517913   -1.3764258583
 C    2.1795042836   -0.3390510799   -1.6870758616
 C    1.7970245745   -0.0123709084   -3.1380809951
 C    0.3208821177   -0.0820502560   -2.6879051319
 C   -0.9023416311   -0.4425368998   -3.3969069773
 O   -0.6147534383    0.9234131687   -3.0335262453
 H    0.7609265051    2.1163643813    0.0920427867
 H   -0.7963319985    1.9048134375   -0.7186180939
 H   -0.6954068826    1.8103553771    1.0516435202
 H    0.6807094714   -0.2816863086    0.8697089810
 H   -0.8854430604   -0.4888792017    0.1084862931
 H    1.8065332144   -1.8941230149   -0.4301866330
 H    3.0624416765   -0.0179854399   -1.1483231830
 H    2.0576981676    1.0074789916   -3.4325169056
 H    2.1294324099   -0.7255855415   -3.8959637538
 H   -0.8681770133   -0.6508737729   -4.4650011822
 H   -1.7289590757   -0.9038413997   -2.8587893582