14

 O   -0.1687896814    1.4372758608   -0.0161460099
 C   -0.0450730437    0.0772209711   -0.0115123623
 C   -0.2685134292   -0.7929458708   -1.2399169898
 C   -1.1506707997   -1.0005382374   -0.0365803262
 N   -0.3438136004   -1.8171250665    0.9214545150
 C    0.5483845889   -0.7449654046    1.1443410255
 O    1.3742107455   -0.5510790583    1.9853540659
 C   -2.5580095680   -0.8869295355    0.0399424209
 C   -3.7558537556   -0.8034716455    0.1171425301
 H    0.4970579532    1.8104582825   -0.6048238652
 H   -0.7258057699   -0.2456533077   -2.0594757588
 H    0.4294578742   -1.5783879037   -1.5126106787
 H   -0.7782310515   -2.3022477682    1.6957768965
 H   -4.8128228723   -0.7241828561    0.1836474970