19

 C    0.0987251796    1.5791214352    0.3674318732
 C    0.1273915468    0.1306263468    0.0026656443
 O   -0.9274345012   -0.7086313312    0.4782694951
 C    0.4387948185   -1.0939774382    0.7920420817
 C    0.8812744121   -1.7999823283   -0.4652200457
 C    0.8400190103   -2.8988001011   -1.2087234960
 C    0.6580842838   -2.4834015142   -2.6716419011
 C    0.0875150657   -1.0246301261   -2.5682670083
 C    0.7468563869   -0.5265985745   -1.2751683137
 H    1.0762153827    2.0414602267    0.1972159845
 H   -0.6373889974    2.1154607997   -0.2423043991
 H   -0.1743892271    1.7066589086    1.4184137518
 H    0.6784877266   -1.2338137494    1.8390436426
 H    0.8435929225   -3.9316425781   -0.8811049614
 H    1.6066375803   -2.5012230181   -3.2278658833
 H   -0.0231811703   -3.1577546715   -3.2020234632
 H    0.2982836247   -0.4213226829   -3.4556934492
 H   -0.9976054744   -1.0785609984   -2.4322428130
 H    1.7272312798   -0.0630204450   -1.4569991693