19

 O   -0.8860521836    1.1829659152    0.3248855669
 C    0.1998592591    0.7767752104    0.0055796909
 C    1.4417336167    1.6570627569   -0.0490292243
 O    2.5457105851    0.8048370476   -0.2820388410
 C    3.7674891758    1.5315722673   -0.3247763710
 C    3.8676803433    2.3999066880   -1.5835903487
 C    2.5526631254    3.1187309921   -1.8867875701
 C    1.4400177443    2.3587986077   -2.5701930430
 C    1.3065433954    2.7318694858   -1.1171821919
 H    0.3838823426   -0.2807990748   -0.2861169823
 H    1.5434125365    2.1465685448    0.9361051395
 H    3.8476134114    2.1583098845    0.5782041629
 H    4.5686802965    0.7884613703   -0.2906640955
 H    4.6716130935    3.1301225015   -1.4413956766
 H    4.1573919375    1.7764560676   -2.4369518934
 H    2.6444517666    4.1676526980   -2.1489109270
 H    0.8174514580    2.8783223027   -3.2896006322
 H    1.6353536488    1.3179100868   -2.8081118561
 H    0.5965327772    3.5105849976   -0.8611414571