19

 C   -0.0638908395    1.4910959875    0.1350300104
 C    0.0431589453    0.0122346633   -0.1681142220
 O    1.1028365602   -0.5199019223   -0.4407793326
 C   -1.2257726805   -0.7749189093   -0.1151636141
 O   -2.3772301868    0.0016346542   -0.0014608260
 C   -1.3011894542   -2.0920883265   -0.8815625108
 C   -1.2657517589   -2.1480952781    0.6072941927
 C   -0.1021582309   -2.7253597301    1.3684096240
 O   -2.5299932142   -2.3880952676    1.1864714977
 H    0.9314469815    1.9357418776    0.1159598723
 H   -0.7123325322    1.9785114533   -0.6000708323
 H   -0.5388200052    1.6491415103    1.1083720666
 H   -3.0100041772   -0.5395074518    0.4946067302
 H   -2.2478177030   -2.2982812533   -1.3687885335
 H   -0.4029164483   -2.3867538312   -1.4123439522
 H    0.8392808383   -2.4538552587    0.8904689386
 H   -0.0801337688   -2.3491188692    2.3996310868
 H   -0.1849847248   -3.8167026544    1.4046437567
 H   -2.4427285306   -2.2603126937    2.1385932075