17

 N   -0.0570172427    1.4418618569    0.0395257484
 C    0.0019271503    0.0040779449   -0.0010599237
 C   -0.5013171174   -0.7312022579    1.2376877386
 C   -1.3283939620   -0.7277286706    0.0031681992
 C   -2.6898971891   -0.1051782136   -0.2724583273
 O   -3.0190419790   -1.1885058676   -1.1706090780
 C   -1.7745169689   -1.8713931133   -0.9003865094
 C    1.0826466799   -0.6091085390   -0.7453674687
 N    1.9454448272   -1.0703734580   -1.3644837802
 H    0.7636477182    1.8222924789    0.5013884217
 H   -0.0800363247    1.8279243779   -0.8996723791
 H    0.0063614883   -1.6470365892    1.5201272725
 H   -0.8063672745   -0.0902682737    2.0578817309
 H   -3.3676134764   -0.0635075110    0.5897984115
 H   -2.6828859409    0.8697020793   -0.7726231999
 H   -1.1777176039   -2.0321431565   -1.8062009059
 H   -1.9340870742   -2.8323670175   -0.3947624108