19

 C    0.8740112395    0.0943421178    1.1686021274
 C   -0.1309054102    0.0870897846   -0.0033615328
 C   -0.6382934139    1.4420191171   -0.2501850736
 N   -1.0180086842    2.5195544385   -0.4236436311
 C    0.5310094546   -0.4585627270   -1.2742821968
 C    0.8323351902   -1.9643149824   -1.4915863958
 C   -0.6803058417   -2.1131136971   -1.7575340313
 N   -0.3575833243   -0.7948195758   -2.4926098111
 C    0.8881426700   -1.5614369337   -2.9819159617
 H    1.2082778855   -0.9257217580    1.3765399843
 H    1.7493615265    0.7039589453    0.9275704974
 H    0.4145448879    0.5009497501    2.0722939128
 H   -0.9900116491   -0.5266123670    0.2832454269
 H    1.3407491360    0.2231699497   -1.5571321870
 H    1.5062852889   -2.6209153569   -0.9300027318
 H   -0.9985095726   -2.9100491357   -2.4339256003
 H   -1.3887617477   -2.0142074661   -0.9343850410
 H    1.6998433257   -0.9094443773   -3.3147754562
 H    0.6561337387   -2.3265363360   -3.7261301484