18

 N    0.0486614421    1.4577188020    0.1782416602
 C    0.0129415138    0.0580018083    0.0223302416
 C   -1.0775945137   -0.7859095341   -0.0380793262
 N   -0.5721043489   -2.0483946405   -0.1208870980
 N    0.7688278326   -2.0805766842   -0.1152050065
 C    1.1434978025   -0.8032757460   -0.0248680271
 C    2.5619972014   -0.3894704864   -0.0029496460
 C    3.6605739049   -1.4167312319    0.1090950824
 C    3.4728824115   -0.6808843313   -1.1873955172
 H    0.7144937410    1.8910966571   -0.4507125610
 H   -0.8564707054    1.8846105916    0.0271271280
 H   -2.1385849534   -0.5927338168   -0.0270772302
 H   -1.0816583098   -2.9134129158   -0.1532742443
 H    2.7299639552    0.5575244591    0.5016111346
 H    4.5201168561   -1.1712286911    0.7228259772
 H    3.3477174599   -2.4530604261    0.1510969428
 H    3.0334569192   -1.2256249492   -2.0154943377
 H    4.2018539712    0.0711165354   -1.4706702627