16

 O    0.1156964772    1.3979378844   -0.0284229227
 C    0.0250368656    0.0181041646    0.2356069172
 C   -1.4090566645   -0.4810155203   -0.0212991524
 O   -1.8001560902   -0.0789315653   -1.3304946349
 C   -1.5227423486   -1.9673033262    0.1359289107
 C   -1.8063462418   -2.7694346579    1.2154560537
 N   -1.7158176223   -4.0262859105    0.7171958656
 N   -1.4029541289   -4.0240573266   -0.5880443003
 N   -1.2815351771   -2.7762649637   -0.9371880149
 H   -0.3385356847    1.5219411190   -0.8726653453
 H    0.7166984491   -0.5706498844   -0.3906030278
 H    0.3033010517   -0.1400378995    1.2836997541
 H   -2.0817894597    0.0319058694    0.6754898641
 H   -1.5537563624   -0.8011209584   -1.9250415856
 H   -2.0578248676   -2.5643572789    2.2420756197
 H   -1.8622037160   -4.9065479156    1.1859677790