15

 O    0.7173926660    0.9848619650    0.6150678547
 C    0.3165153950   -0.2630531362    0.2451247242
 C    0.5524884813   -1.5853082461    1.0344805642
 C   -0.2751619970   -2.0542050056   -0.2214642661
 C   -1.1921718739   -0.8068030111   -0.0278232085
 C   -2.1694251569   -0.7431433761    1.1100725085
 O   -2.3236821379   -1.5815090747    1.9639209687
 C    0.6346941545   -1.0978494064   -1.0060399973
 O    1.2511445756   -1.0052717742   -2.0221604121
 H    0.9593749448    1.4795528340   -0.1774409290
 H    1.5861734627   -1.9285717666    1.0983228317
 H    0.0255530001   -1.6769261732    1.9800735037
 H   -0.5981482000   -3.0607868362   -0.4601212693
 H   -1.6545618646   -0.3896855178   -0.9286023668
 H   -2.7829635195    0.1857330853    1.1057777035