15

 C   -0.0699876088    1.4711480044    0.0083809869
 N    0.0404041623    0.0279068599    0.0225905075
 C    0.1450062221   -0.8068031936   -1.0316300087
 O    0.1765172699   -0.3032720085   -2.2805159325
 N    0.1996745058   -2.0745260697   -0.7012345050
 C    0.1092117773   -2.0770476285    0.6738595307
 O    0.1450198914   -3.2293854926    1.3874323329
 C    0.0144215865   -0.8085959922    1.1609384275
 O   -0.1440578115   -0.2770724718    2.4038888475
 H    0.8191720485    1.9288900244   -0.4354294760
 H   -0.9487028055    1.7915162954   -0.5588998026
 H   -0.1708931987    1.8056316226    1.0414172267
 H    0.2354669395   -1.0607753146   -2.8757099825
 H    0.2086976134   -3.9420220433    0.7413702412
 H    0.6766545981   -0.3743169818    2.9006400965