16

 C   -0.0198115617    1.5293487303    0.0290967157
 C   -0.0517465062    0.0273966964   -0.0050624787
 C   -1.1868223821   -0.7175751511   -0.1538646929
 C   -1.1812303586   -2.1333758547   -0.1812158962
 C    0.0254694846   -2.7607778463   -0.0555129641
 N    0.2529811524   -4.1096585664   -0.1198554294
 O    1.1602866113   -2.0718740672    0.1010327814
 C    1.2163824676   -0.6461448016    0.1353994870
 O    2.3083654531   -0.1642031168    0.2817850171
 H    0.6096973321    1.9309215192   -0.7726416140
 H   -1.0260533290    1.9428576080   -0.0793790615
 H    0.4082851031    1.8958786267    0.9686008656
 H   -2.1398120508   -0.2045407580   -0.2547543129
 H   -2.0887181766   -2.7073046240   -0.3072510754
 H   -0.5336583785   -4.7108173282    0.0649542076
 H    1.1293309295   -4.4184523264    0.2727423108