16

 C    0.0481203514    1.3986008397    0.1217394809
 C    0.0270541091   -0.0545813025    0.0519760164
 C    0.0013021043   -1.2584942368   -0.0038826480
 C    0.0024542498   -2.7231025042   -0.0714839453
 C   -1.4096492361   -3.2982246246   -0.2161276376
 O    0.8750906932   -3.1885267564   -1.1041043764
 C    0.6737388249   -3.2137068546    1.2318771754
 O    0.0827428865   -3.6430802699    2.1829100685
 H    0.9735330006    1.8020457615   -0.3029372849
 H   -0.7924694364    1.8358124432   -0.4276864924
 H   -0.0184654050    1.7406668193    1.1601572354
 H   -1.8948478332   -2.8886760360   -1.1057595437
 H   -1.3474359157   -4.3851169988   -0.3098782394
 H   -2.0094611419   -3.0548478283    0.6630807741
 H    0.7662707069   -2.6068611738   -1.8634792712
 H    1.7792794117   -3.1191985879    1.1945652380