15

 O    0.0239850632   -0.0195275706   -0.0414525054
 C   -0.0083854981    1.1744845518   -0.0071237864
 C   -1.2528777369    2.0641954700    0.2008545695
 C   -0.6763720818    3.4609158537    0.1446004673
 C    0.5640516042    3.8203978449    0.9710053924
 C    1.3226474369    2.5609024034    1.3679603459
 N    1.1725086159    2.0292087965   -0.0595681514
 C    0.6912790510    3.3842073204   -0.4667530551
 H   -1.9852886312    1.8912561903   -0.5948147226
 H   -1.7307019580    1.7842475177    1.1452530487
 H   -1.3085960287    4.3022004548   -0.1142308418
 H    0.6837382217    4.8089063963    1.3970059559
 H    2.3802681206    2.7404072709    1.5727794446
 H    0.9099216293    1.9117877985    2.1488843263
 H    1.0561936420    3.8681239014   -1.3626456481