19

 C   -0.1357894267    1.4582477843   -0.0218533631
 C    1.4404516997    1.5060129418    0.0971319741
 C    1.4975797436    0.1315297355   -0.6310739638
 O    1.9183836608    0.1848416336   -2.0117858767
 C    2.4416675549   -1.1591073750   -1.9374090076
 C    2.1119388513   -1.2792466566   -0.4338548136
 C    0.9149737465   -2.1889062818   -0.0295472177
 C   -0.2823036789   -1.2450925423    0.0883647280
 C    0.0404827061   -0.0181231190   -0.3077522011
 H   -0.7260165319    1.7369215595    0.8541717938
 H   -0.4824899929    2.0357918508   -0.8838183487
 H    1.9461342917    2.3190792892   -0.4285712135
 H    1.7843361042    1.4597637564    1.1327753550
 H    1.8947504588   -1.8533899107   -2.5882798567
 H    3.5057830568   -1.1845665148   -2.1995907440
 H    2.9800338178   -1.3955585750    0.2159066591
 H    0.7569837476   -2.9971501645   -0.7564703769
 H    1.0907014244   -2.6827099563    0.9343634617
 H   -1.2110421741   -1.5629591851    0.5512314617