19

 C    0.0489209109    1.5992552998   -0.0404557909
 C   -0.0059705487    0.0919429558    0.0296577842
 O    0.9177311505   -0.5876654685   -0.9430443331
 C    0.9296658631   -1.7072413633    0.0343349746
 C    1.7432810853   -2.4490734934    1.1777388755
 C    2.9110270054   -1.5518057705    1.5597039552
 C    2.1270789630   -0.2108702703    1.5308678850
 C    0.7386456166   -0.7510858211    1.1193588139
 O    0.6340060060   -1.9414478784    2.0524520138
 H    1.0491893446    1.9863125851    0.1601570776
 H   -0.2558553443    1.9338485774   -1.0370190882
 H   -0.6477885023    2.0267893840    0.6880546118
 H   -1.0246517295   -0.2759941909   -0.1420184204
 H    0.0455396033   -2.3198444380   -0.1622797649
 H    1.8348191496   -3.5350857282    1.2110548087
 H    3.3008611337   -1.8038449245    2.5479198887
 H    3.7290910207   -1.5961620421    0.8355586890
 H    2.0662377028    0.2690482163    2.5103899050
 H    2.5383534993    0.4964500109    0.8113057445