19

 C    0.0347064696    1.4303846440   -0.0133796514
 N   -0.0602965454   -0.0178972896   -0.0923661754
 C    0.5586159289   -0.7352210664   -1.0717646720
 N    0.8659562493   -1.9758550855   -1.0193695059
 C    1.4025495456   -2.3007809738   -2.3185770487
 C    2.4763497396   -3.3448455495   -2.4464954320
 C    1.0766465653   -3.6265633893   -2.9534341975
 C    1.4281906336   -0.9871318306   -3.1145004176
 O    0.8162281915   -0.0385451377   -2.2165063974
 H    1.0209745433    1.7856987613    0.3184178947
 H   -0.1719462112    1.8608717840   -0.9938077823
 H   -0.7192695677    1.7943051966    0.6887899602
 H   -0.1011587302   -0.5210023160    0.7803374510
 H    3.2647515201   -3.1854026657   -3.1763384313
 H    2.7931997444   -3.8353565677   -1.5332227543
 H    0.4567763307   -4.3053871414   -2.3790778546
 H    0.9156328926   -3.6568095988   -4.0271000061
 H    2.4402719653   -0.6374851871   -3.3470407955
 H    0.8398412949   -1.0164614670   -4.0371708240