19

 C    0.0712858062    1.5242417480   -0.0030095478
 C    1.3226387522    0.6790293196   -0.0074442927
 C   -0.0333352613    0.0204053752    0.0034169370
 C   -0.5157455759   -0.7408034653    1.2503166127
 C   -1.5826452094   -1.7181935144    0.7209926935
 C   -1.0701279341   -2.0748499489   -0.6837753669
 C   -0.5683027095   -0.7250786187   -1.2314268232
 H   -0.1793491372    2.0615232745    0.9065475664
 H   -0.1917179490    2.0504346947   -0.9158956369
 H    1.9079028313    0.6371762807   -0.9209531086
 H    1.9157164758    0.6415594556    0.9015478276
 H    0.3151900279   -1.3059762556    1.6913310104
 H   -0.8990811364   -0.0749251633    2.0296495797
 H   -1.7226003889   -2.5894550683    1.3672181509
 H   -2.5520047532   -1.2102853189    0.6416730467
 H   -0.2350876991   -2.7820235075   -0.6029190809
 H   -1.8300136270   -2.5383606319   -1.3194048176
 H   -1.4073974020   -0.1712113728   -1.6713596367
 H    0.1863179194   -0.8389734827   -2.0158191935