14

 C    0.1368429477    1.4539143363    0.1487718290
 N    0.1456749109   -0.0006843911    0.0947225825
 C    0.3772854887   -0.5818754098   -0.9929922967
 N    0.3949360459   -1.9673507508   -1.0876201455
 C    0.6386847708   -2.6853030987   -2.2318333444
 O    0.6485704182   -3.8941152603   -2.2882267621
 C    0.8896975074   -1.8009067417   -3.3963275239
 N    0.8889105387   -0.5244893291   -3.3821794324
 O    0.6294710757    0.1074139338   -2.1660015317
 H    1.1030436990    1.8817963390   -0.1457502735
 H   -0.6266839274    1.8845189611   -0.5107718179
 H   -0.0789844889    1.7632045894    1.1733047131
 H    0.2102176365   -2.4691497479   -0.2287952172
 H    1.0938884067   -2.2683367302   -4.3534184294