23

 C   -0.0300593005    1.6791157570    0.1397099880
 C    0.0388229935    0.1477239565    0.1559643067
 C   -1.3224549146   -0.5284479842   -0.0201017906
 C   -1.8567005187   -0.6609179428   -1.5019090970
 C   -1.3853638475    0.2015389138   -2.6647350355
 C   -1.3817715160   -2.1186008051   -1.4459642366
 O   -1.0281844354   -2.9005088984   -2.2839672539
 C   -1.3013994191   -2.1025389815    0.0844319482
 C   -0.1784828260   -2.8693256649    0.7679403382
 H    0.9587594873    2.1181008513    0.3052295728
 H   -0.4079655164    2.0609783061   -0.8126032003
 H   -0.6936668868    2.0473526860    0.9301055588
 H    0.7402921290   -0.2012792155   -0.6133439029
 H    0.4659437094   -0.1741801009    1.1136813318
 H   -2.0423522608   -0.0618455883    0.6585211326
 H   -2.9543162209   -0.6685399610   -1.4709825047
 H   -0.2959490694    0.2931404439   -2.6897281161
 H   -1.6932634013   -0.2615321524   -3.6074307515
 H   -1.8140406102    1.2072785037   -2.6266615093
 H   -2.2713779377   -2.4371668052    0.4753067914
 H    0.8034818195   -2.5755565527    0.3872823609
 H   -0.1859743565   -2.7112595289    1.8511876330
 H   -0.2940698909   -3.9413576766    0.5825840158