18

 C   -0.0006128021    1.5235668416   -0.0548005420
 C    1.3156205689    0.7920938058    0.0267720733
 C    0.0199611631    0.0179249925    0.0290533558
 C   -0.4325626843   -0.6807074272    1.2682245207
 C   -0.4693890233   -2.1962052958    1.3668960037
 C   -1.7508269036   -1.4208998431    1.4741738588
 O   -2.1733103957   -1.0872848554    2.7912476236
 C   -1.1802308919   -0.3045448956    3.2842764056
 N   -0.1974684212   -0.0081249457    2.5338054779
 H   -0.3209113597    2.0614772785    0.8302525703
 H   -0.2864721740    1.9805764512   -0.9957610712
 H    1.9388725588    0.7409191214   -0.8590657435
 H    1.8550257720    0.8490368888    0.9647807100
 H   -0.2193905630   -0.5237557715   -0.8816326346
 H   -0.3292520850   -2.7432984508    0.4404114983
 H   -0.0630049950   -2.6729095900    2.2529882793
 H   -2.5743065419   -1.5230036628    0.7794238726
 H   -1.3178109321    0.0130222281    4.3106594413