16

 N    0.1870459223    1.4308193746    0.0457351890
 C   -0.0451017560    0.0398417996    0.0085786940
 C   -1.1892912959   -0.7246007902    0.0693886498
 C   -0.8056957977   -2.0909206390   -0.1061209547
 C   -1.7027259690   -3.2938159319   -0.0971912194
 O   -1.1728834587   -4.3850298393   -0.8402344478
 C    0.5611980016   -2.1110296609   -0.2636425941
 N    1.0116084098   -0.8108355078   -0.1949002012
 H   -0.6764412787    1.9376832670   -0.1054737058
 H    0.5664449219    1.7341323244    0.9386015252
 H   -2.1890876484   -0.3519306518    0.2378650482
 H   -1.8391992773   -3.6836932387    0.9194642804
 H   -2.7048835820   -3.0098097516   -0.4588715855
 H   -0.9314565003   -4.0363184348   -1.7052862076
 H    1.2385499187   -2.9371718266   -0.4010522909
 H    1.9476251399   -0.4981538730   -0.3865147495