14

 N    0.0197705026   -1.1048535255   -0.0046193054
 C    0.0022646730    0.0515430153    0.0021574104
 C   -0.0197175241    1.4932193831    0.0105270220
 C   -0.6435150872    2.4223487531    1.1010069956
 C   -0.0482939310    3.3731324359    0.0214124509
 C    1.2099915213    2.4569015929    0.0014938699
 C   -0.6690490063    2.4344457839   -1.0545669470
 H   -1.7316039730    2.3922285170    1.1903774727
 H   -0.1538883698    2.4110287269    2.0772627791
 H   -0.0648322947    4.4613361702    0.0277174009
 H    1.8319644007    2.4480530419    0.8992543384
 H    1.8108708107    2.4581943391   -0.9105078706
 H   -0.2021694002    2.4341247706   -2.0418921107
 H   -1.7589533519    2.4050629356   -1.1189311563