21

 C    0.0491267772    1.5663633331    0.3449416838
 C    1.4991198631    1.6043621551   -0.2222030670
 C    1.3568564670    0.1417593708   -0.7531904049
 C    1.8854556640   -0.2805533793   -2.1305127032
 C    3.0465476754   -1.2757627832   -1.7899221053
 C    2.6662752384   -1.8004024138   -0.4066478689
 C    1.7937839419   -0.9676127033    0.1518113905
 C    0.5856749472   -0.8827837415    1.0633214366
 C   -0.0649626611    0.0689311089   -0.0090942863
 H   -0.0762488116    1.8188933893    1.4020611945
 H   -0.6368218617    2.1880042737   -0.2370574135
 H    1.6377786668    2.3391742933   -1.0197820230
 H    2.2955687541    1.7512257638    0.5135255223
 H    1.1095569119   -0.8138513312   -2.6916894504
 H    2.2138332760    0.5617518618   -2.7475075278
 H    3.1192876817   -2.0848727579   -2.5250416075
 H    4.0240486126   -0.7729224369   -1.7905651371
 H    3.0083341097   -2.7543440002   -0.0210917694
 H    0.0771080753   -1.8327765989    1.2483502088
 H    0.7439043481   -0.3880543727    2.0276046405
 H   -0.9778912159   -0.2999052910   -0.4791873427