19

 C    0.7843080251    1.4478668314    0.2302545881
 C   -0.0659905457    0.2019620680    0.0003484338
 C    0.5362430118   -0.8002386950   -1.0311361376
 C    1.0291014148   -1.6848406775    0.1441280594
 C    1.1717257039   -3.2123849632    0.1069558618
 O    2.6032888553   -3.0969877105    0.4075943323
 C    2.5243873616   -1.7280200864    0.4509844731
 O    3.4030403622   -0.9533639406    0.6661846675
 C    0.0966060388   -0.8931341295    1.0982475527
 H    1.8265554077    1.1800792079    0.4337496145
 H    0.7670578963    2.0999235846   -0.6497569108
 H    0.4093424056    2.0243333820    1.0828874786
 H   -1.1019543783    0.4869937692   -0.2011036228
 H   -0.2277167017   -1.3140960070   -1.6214945536
 H    1.3054605175   -0.4139539314   -1.7045813390
 H    0.6564065568   -3.7666598034    0.8951616692
 H    1.0196734358   -3.6899285360   -0.8640620313
 H    0.5301504470   -0.5777790750    2.0506289332
 H   -0.8295204246   -1.4412560177    1.2933360007