20

 C   -0.1005502880    1.4961649579   -0.0260050410
 C    1.1651887527    0.7161331520    0.0222181885
 N   -0.1416407163    0.0300700394   -0.0234978869
 C   -0.2568764287   -0.5558789143   -1.3772741400
 C    0.8204981064    0.0973588984   -2.2709886620
 C    1.9180897241    0.5117579169   -1.2756764521
 C    2.9881787164    1.5406155415   -1.7113470879
 C    3.9869070741    0.3830304164   -1.5309220235
 O    2.9401548504   -0.5162172751   -1.1149882096
 H   -0.4743960768    1.9594245346    0.8824393950
 H   -0.3496407490    2.0354866007   -0.9371045403
 H    1.7377209834    0.6378157109    0.9417107586
 H   -0.0702584243   -1.6294810663   -1.2765955751
 H   -1.2741023090   -0.4251308566   -1.7585401111
 H    1.2215743036   -0.5865966041   -3.0213206527
 H    0.4371282104    0.9782326753   -2.7962287882
 H    2.8779746022    1.9161285528   -2.7304053941
 H    3.1182432269    2.3837992225   -1.0305848904
 H    4.4857416575    0.0373758350   -2.4447670362
 H    4.7428073340    0.5206274918   -0.7483631711