18

 O    0.1292149944    1.1538516504   -0.5156005639
 C    0.1090019083   -0.1365698383    0.0417976568
 C   -0.0170310598   -0.2912642077    1.5734795948
 O   -1.2030279731   -1.1005902283    1.4111950509
 C   -1.2797244792   -0.7979603077    0.0053439879
 C   -2.5712204019   -0.0794377267   -0.4539533680
 N   -2.9852707648   -1.2513171525   -1.3123066240
 C   -1.8954107644   -1.4113902967   -2.2875400293
 C   -1.6877514402   -1.9327424667   -0.9177532909
 H    1.0357140882    1.4761193212   -0.5209708892
 H    0.8860566768   -0.7799383736   -0.3912451959
 H    0.7772402761   -0.8295609130    2.1020172269
 H   -0.2283615493    0.6580938245    2.0819086028
 H   -3.2629093064    0.0354125435    0.3827666022
 H   -2.4672795828    0.8635137734   -0.9974592499
 H   -2.1201700245   -2.1316851031   -3.0682578627
 H   -1.3477428649   -0.5313146538   -2.6197914871
 H   -1.6334676427   -2.9881186846   -0.6718611912