14

 C   -0.4465868710    1.3208931103    0.2129493562
 N    0.0346277857   -0.0570475950    0.1711483006
 C    0.7170902763   -0.4110635293   -1.0596308851
 C    1.5745460561   -1.6558055554   -0.8269867753
 O    1.7803239027   -2.5082752801   -1.6452363852
 C   -0.3022924796   -0.6941732733   -2.1667752800
 O   -0.2306538630   -0.2538752773   -3.2802826786
 H    0.3433404481    2.0715989218    0.0405798053
 H   -1.2152371651    1.4685669542   -0.5525932154
 H   -0.9057650616    1.5137332311    1.1858587293
 H    0.6334803157   -0.2401350955    0.9695573258
 H    1.4030515124    0.3725018278   -1.4397881977
 H    2.0215261820   -1.7071229885    0.1951287584
 H   -1.1381082789   -1.3444773809   -1.8293341384