13

 N    0.0393639351    1.3339402540    0.3100005101
 C   -0.0471853530   -0.0234929659    0.0570268337
 C   -1.1247069069   -0.8330789546   -0.1207638464
 O   -0.6372753834   -2.1320354293   -0.2720496105
 C    0.6875326626   -1.9859722042   -0.1616739547
 O    1.4588049688   -3.0774548474   -0.3164818725
 C    1.0186719008   -4.2806535109    0.1978457444
 O    1.6161186368   -5.2845877514   -0.0071196446
 N    1.1183088871   -0.7872210305    0.0313789620
 H    0.9437424902    1.7114661524    0.0634411360
 H   -0.7152042747    1.8862802446   -0.0702871078
 H   -2.1911369523   -0.7135706348   -0.1594786927
 H    0.0983834689   -4.1735893320    0.7899035129