23

 C   -0.0268007902    1.5358189150   -0.0933702007
 C    0.1939225218    0.0392583441    0.0581176205
 O    0.5901116954   -0.4784146748   -1.1965020675
 C    0.6863057278   -1.8912087234   -1.2674408239
 C    0.7548142940   -2.2676000732   -2.7460303643
 C    0.7626038528   -3.7914187643   -2.9314531716
 C    1.6951996081   -4.4730803449   -1.9644153337
 C    2.2152144510   -3.8672793719   -0.8978002755
 C    1.9119614968   -2.4397706996   -0.5173004849
 H    0.8945502054    2.0270233668   -0.4193512560
 H   -0.8017102332    1.7352661422   -0.8389622743
 H   -0.3362833324    1.9759081893    0.8594689398
 H    0.9587485046   -0.1531835434    0.8269666337
 H   -0.7332292651   -0.4552183747    0.3951900819
 H   -0.2232307124   -2.3389312906   -0.8285965108
 H   -0.0876371252   -1.8111578590   -3.2741270406
 H    1.6706349312   -1.8358571923   -3.1677315865
 H   -0.2531568753   -4.1960309321   -2.8068151991
 H    1.0469640983   -4.0401679425   -3.9615839400
 H    1.9419778451   -5.5129008811   -2.1662968453
 H    2.8929123416   -4.4126843005   -0.2450522220
 H    2.7715989924   -1.7908613891   -0.7404315761
 H    1.7606411775   -2.3754925398    0.5670978171