14

 C   -0.0514077560    1.4963688348    0.0105559470
 C    1.4230124607    1.8677373925   -0.0014978640
 C    2.1759856186    0.7597889859   -0.0146877993
 N    1.3433292659   -0.3739351798   -0.0128587432
 C    1.3847041209   -1.7492313157   -0.0206122417
 C    0.0628556037   -2.1301318790   -0.0098972287
 N   -0.7849125171   -1.0356861309    0.0039700297
 C    0.0213540746   -0.0043836447    0.0017835299
 H   -0.5684777114    1.8840898813    0.8966713014
 H   -0.5852251818    1.8935617341   -0.8613203806
 H    1.7961251679    2.8806293982    0.0003948285
 H    3.2500798847    0.6497363656   -0.0255574188
 H    2.3047800485   -2.3082430786   -0.0324441902
 H   -0.3277575993   -3.1365263637   -0.0114892400