19

 C    0.1953505647    1.5026211960   -0.0428750088
 C    0.0541679495    0.0159397056   -0.0351403999
 C    0.1622136186   -0.9043923912   -1.0549330891
 C   -0.0543383635   -2.2010414449   -0.4993126627
 C   -0.2889382471   -2.0359032049    0.8483167226
 N   -0.2252780628   -0.6822655346    1.1121337691
 N   -0.1067017356   -3.4046858762   -1.2322978715
 C    1.1246283065   -3.9095230203   -1.8362317682
 C    0.5105069085   -4.5950484828   -0.6643222798
 H    1.0191619965    1.8455422037    0.5961700887
 H    0.3994469378    1.8511362394   -1.0577474834
 H   -0.7161310077    2.0070045261    0.3021897918
 H    0.3689166022   -0.6806652186   -2.0905069330
 H   -0.5200591267   -2.7516757062    1.6194382189
 H   -0.3547039953   -0.2686741828    2.0183999068
 H    1.0214771538   -4.3241346460   -2.8348898541
 H    2.0392543062   -3.3483187650   -1.6581025205
 H    1.0228085943   -4.4901540386    0.2901222963
 H   -0.0423742898   -5.5212883887   -0.7925121432