19

 C   -0.4614964865    1.0173351982    0.6415081182
 C    1.0177889683    0.8772041168    0.3377851366
 C    0.0747449188   -0.2259517661   -0.0139110696
 O    0.1952651320   -1.3995822344    0.7447334464
 C   -0.9893757567   -2.1166394155    0.8670344020
 C   -1.2027191571   -2.9846819644    2.0712366681
 C   -0.7409050010   -2.2241849287    3.3122165391
 O   -1.5631604404   -1.0723875670    2.9757942699
 C   -2.0776129330   -1.7515370247    1.8342817581
 H   -0.7660438878    0.9131190377    1.6760281849
 H   -1.0532709764    1.7034480099    0.0450358407
 H    1.4502638060    1.4627218945   -0.4656722908
 H    1.6797282456    0.6943038063    1.1764440859
 H   -0.1546019313   -0.4036871739   -1.0647169166
 H   -1.3619826214   -2.5540427351   -0.0622952370
 H   -1.4124774071   -4.0447311811    2.0215676138
 H   -1.0856439587   -2.6715542988    4.2499201439
 H    0.3215437644   -1.9712409156    3.3748338235
 H   -3.1260317976   -1.6128271680    1.5928442428