18

 C    0.5608662949    0.6991264088   -0.4488279034
 O   -0.5405634782    0.5468218436    0.4337013301
 C   -1.5500687544   -0.3899690429    0.2377560198
 C   -2.4977494008   -0.1921370272    1.4122060300
 C   -2.1998503008   -0.5964676839   -1.1857400975
 N   -0.9298795035   -1.3508478741   -1.5793419319
 C   -1.2095476990   -1.8759003352   -0.1711721273
 C   -2.6658140703   -1.9771720338   -0.6747772901
 O   -3.5370679351   -2.7767207724   -0.8326282756
 H    1.1596404138    1.5057321315   -0.0159574221
 H    1.1692374650   -0.2079551035   -0.5166959725
 H    0.2495268529    0.9806871980   -1.4594239084
 H   -2.8735174758    0.8346255605    1.4111820905
 H   -3.3485922330   -0.8766265226    1.3798178093
 H   -1.9573618457   -0.3485811296    2.3497273816
 H   -2.6744642954    0.1240323395   -1.8492525684
 H   -1.1306991526   -2.0651310010   -2.2840889178
 H   -0.5627142920   -2.6043243254    0.3142484539