22

 C   -0.0028217067    1.5483089002    0.1150020954
 C   -0.0389228298    0.0212037984    0.0043807889
 C    0.6213044208   -0.5178339975   -1.2662295890
 C    0.6764108975   -2.0631456914   -1.3217806420
 N    0.6536656093   -2.3631075546   -2.7401976284
 C    0.8701504112   -3.6915119715   -3.2597442975
 C    0.2038830163   -1.3289132253   -3.5216247244
 O    0.0378478934   -1.3718717322   -4.7235073961
 C   -0.0679388368   -0.1459221183   -2.5915661117
 H    1.0273594576    1.9212930838    0.1034799109
 H   -0.5362337189    2.0234250811   -0.7147539425
 H   -0.4685935595    1.8868463902    1.0452931062
 H    0.4598034802   -0.4179766855    0.8786847901
 H   -1.0798705708   -0.3278550744    0.0404131519
 H    1.6546330059   -0.1502977973   -1.3066014551
 H    1.5815819659   -2.4639927280   -0.8499226514
 H   -0.1870505702   -2.5151466713   -0.8059346979
 H    0.1379318960   -4.4048512922   -2.8577564692
 H    0.7624841598   -3.6426476759   -4.3447095201
 H    1.8741975903   -4.0543896242   -3.0088446823
 H   -1.1559102744   -0.0580886081   -2.4715931499
 H    0.2838526829    0.7826771538   -3.0437892659