20

 C   -0.0223999838    1.6598003521   -0.1823156648
 C   -0.0633986203    0.1531994355   -0.0202338729
 C   -1.3896145333   -0.4805915099   -0.4156149603
 O   -1.7275853366   -0.2354397860   -1.7722488448
 C    1.1860146468   -0.6520573687   -0.1956866127
 N    0.5657475900   -0.5149793410    1.1221629293
 C    1.2652302171    0.2566148676    2.1350512289
 C    2.0023477048   -0.6820095469    3.0800702311
 O    2.9917640383   -0.3800761515    3.6933741472
 H    0.9812827784    2.0724764476   -0.0616281419
 H   -0.3841543320    1.9187055827   -1.1808464297
 H   -0.6847053902    2.1469022054    0.5432364664
 H   -1.3551935991   -1.5539745975   -0.1832952406
 H   -2.2016509030   -0.0408781274    0.1748268033
 H   -1.0587550331   -0.6597728309   -2.3200886552
 H    1.1596248595   -1.6499006008   -0.6290991326
 H    2.1091111609   -0.1040677046   -0.3805564940
 H    1.9814977985    1.0015428211    1.7600122152
 H    0.5223906655    0.7943987024    2.7425972059
 H    1.5303353915   -1.6855056791    3.1684965425