21

 C   -0.0736880261    1.5548645933   -0.0343898196
 C    0.0797827155    0.0531107849    0.0438505832
 O   -1.0607549528   -0.6398905022   -0.4106437743
 C    1.3705565453   -0.6885195116   -0.2285149367
 C    2.5769597306   -0.0062716045    0.3608637549
 C    3.1551397431   -0.8468462929    1.4711471960
 C    1.9220208587   -0.0265905110    1.7629325799
 C    1.8988631475    1.0211032255    2.8441742922
 C    0.7104348031   -0.7134639713    1.1758973553
 H    0.8164603674    2.0771558840    0.3197000676
 H   -0.2455853112    1.8625465522   -1.0741886259
 H   -0.9344715483    1.8821385023    0.5576441245
 H   -1.1703150723   -0.4398076551   -1.3468229205
 H    1.3862388678   -1.5035753267   -0.9445482366
 H    3.1406067777    0.8012461412   -0.0943573227
 H    3.1040225756   -1.9311784054    1.4142946304
 H    4.0718387901   -0.4661818591    1.9136241644
 H    2.8673572913    1.5251047267    2.9288945190
 H    1.1367532199    1.7845291746    2.6588974997
 H    1.6801307475    0.5688158426    3.8191651060
 H    0.1632779196   -1.5363439574    1.6233333333