17

 C   -0.3261418513    1.5394772507   -0.0163352859
 N    0.0712909812    0.1407232536    0.0710905797
 C    1.3480358273   -0.4051291959   -0.3254944946
 C    2.6329301208    0.4394523537   -0.3481077214
 C    2.9208956593    0.8238146146    1.1007090874
 O    1.9525885882    1.6861036298    1.7077127152
 C    1.8577841561    0.2780194830    1.9617103561
 C    0.8655949319   -0.4899192254    1.1054433626
 H    0.4921481525    2.2631024241    0.0010198377
 H   -0.8987564311    1.6635710026   -0.9424774818
 H   -0.9917868355    1.7687106083    0.8207769612
 H    1.3010106896   -1.2438980171   -1.0183174412
 H    3.4548488473   -0.1764193133   -0.7294734650
 H    2.5636845650    1.3197196817   -0.9969218798
 H    3.9443458958    0.9865498351    1.4321665590
 H    2.0143120315   -0.0214325849    2.9946246122
 H    0.4422244811   -1.3912452706    1.5436932485