12

 O   -0.0583412481    1.2772247418    0.0105169681
 C    0.0412696208   -0.0485454082    0.0023899416
 N    1.1558411122   -0.7297556154   -0.0083448972
 N    0.6851998070   -2.0371529119   -0.0127300633
 C    1.1039626279   -3.3407428269   -0.0227869098
 N    0.0465421426   -4.1232621060   -0.0200249879
 N   -1.1124565612   -3.3491992274   -0.0089196828
 C   -0.6704773608   -2.1203253073   -0.0047727715
 N   -1.1027516131   -0.8046901272    0.0048725934
 H    0.8382522989    1.6394897009    0.0069598641
 H    2.1345197404   -3.6510651769   -0.0310145810
 H   -2.0480088366   -0.4646460455    0.0140409964