20

 C   -0.1413710300    1.4879862856    0.0898847380
 C    0.0649491649   -0.0045381899   -0.0188675210
 O   -0.2363918722   -0.7434551631    1.1770621853
 C    1.1312229386   -0.6804509649    0.7503178712
 C    1.7340527817   -1.9716873153    0.2270565059
 C    1.6892986388   -2.0520566121   -1.3155067326
 N    0.4445841917   -1.6639814179   -1.9734640406
 C   -0.8343119296   -2.0372154429   -1.3811550115
 C   -0.3686742466   -0.6207424357   -1.3292004464
 H    0.4051230759    2.0158985965   -0.6989940045
 H   -1.2031630313    1.7383632211   -0.0132570541
 H    0.2024097877    1.8526014807    1.0606617732
 H    1.7620095519   -0.0704947462    1.3973210337
 H    2.7780491392   -2.0556621179    0.5459035168
 H    1.2009722027   -2.8138842108    0.6803163666
 H    2.4679408322   -1.3963769701   -1.7250537405
 H    1.9317257393   -3.0701147794   -1.6383404246
 H   -1.6051403326   -2.3278155462   -2.0899842824
 H   -0.8556198028   -2.5677482043   -0.4338321730
 H   -0.7921430796    0.0937085228   -2.0320704095