16

 O   -0.0198398931    1.2971976590    0.2397926824
 C    0.0488225480   -0.0288949682    0.0363815194
 N    0.1671618750   -0.6432322288   -1.1083804550
 C    0.1904300877   -1.9892978329   -0.7741499713
 C    0.0750250794   -2.1710461890    0.5757218944
 N   -0.0089820481   -0.8754116193    1.0948319005
 C    0.0664028508   -3.3719086042    1.4326817567
 C   -1.2226924451   -3.9326795879    1.9382888982
 N   -0.4566284979   -4.6412117276    0.9029245477
 H    0.0396235818    1.7059801617   -0.6330932540
 H    0.3047607264   -2.7480560610   -1.5332219905
 H   -0.1324578733   -0.6142373984    2.0583448682
 H    0.9458434669   -3.5125449801    2.0611341888
 H   -1.2526498530   -4.4272195095    2.9050454408
 H   -2.1382471710   -3.4238660608    1.6499313216
 H   -0.8860833646   -4.4680975732   -0.0030591279