17

 C   -0.1221313391    1.3992794744    0.2726627031
 C    0.1654730093   -0.0425343457    0.0225863986
 O   -0.6774636366   -1.0167182708    0.6302379681
 C    0.7264646638   -1.1168813988    0.9130999293
 C    1.3651912612   -1.8496127922   -0.2678995322
 C    0.7597890601   -0.7474621644   -1.2195867339
 O   -0.1575911867   -1.1371486050   -2.1991190817
 C    1.1952350293   -0.9444778684    2.3043121279
 O    0.5436280776   -0.4501655718    3.1911725992
 H    0.7286250992    2.0212106757   -0.0214848364
 H   -0.9917270526    1.7177009230   -0.3126143497
 H   -0.3373271651    1.5581189351    1.3321205887
 H    2.4578943998   -1.8444744570   -0.2549301869
 H    1.0010839318   -2.8662216025   -0.4331126668
 H    1.5344813412   -0.1588945745   -1.7168723919
 H   -0.8905214245   -1.5602248743   -1.7331871714
 H    2.2432666212   -1.2826694928    2.4654254659