21

 C   -0.6235304233    0.8802237129   -1.5984922021
 C    0.3426156541   -0.1689595319   -1.0757418932
 C    1.8632744415   -0.0231768215   -1.3429991661
 C    2.1377325081   -0.6096556011    0.0661877364
 C    3.2962746228   -0.0821336342    0.8950433803
 C    0.6664720480   -0.2176764920    0.4633176672
 N    0.6159200152    1.1157654186    1.0572708065
 C   -0.0754242780   -1.2165979013    1.2438252451
 N   -0.6649922751   -1.9895811956    1.8720935798
 H   -0.3271134319    1.8831243501   -1.2794911717
 H   -0.6373685834    0.8665038563   -2.6934576232
 H   -1.6476583550    0.6932757007   -1.2557320469
 H    0.0132453999   -1.1673792179   -1.3793115754
 H    2.2767803464   -0.5590464764   -2.1998304097
 H    2.1584009827    1.0280282936   -1.4013161666
 H    2.1870194358   -1.7010367773    0.0034514454
 H    3.2474293505    1.0056597315    0.9937743727
 H    3.3096513711   -0.5234965420    1.8981898120
 H    4.2477198240   -0.3333025284    0.4144385579
 H   -0.3493615041    1.4208369315    1.1443030653
 H    0.9962449009    1.0910157343    1.9991581361