18

 C    0.4727719928    1.2267736151    0.0504338543
 N   -0.2514415619   -0.0248135941   -0.0185307349
 C   -0.1723693027   -0.9597597427   -1.0882054464
 O    0.1358287229   -0.7999299852   -2.2327888558
 C   -0.7407818618   -2.0912039368   -0.1471852215
 C   -0.1800943195   -2.9778574267    1.0339411478
 C    0.9937213687   -1.9937220704    1.1794902516
 C   -0.2844059011   -1.1258526672    0.9429685062
 C   -1.0247168037   -2.0163358412    1.9959616288
 H    1.4567436865    1.1011765950    0.5236843445
 H    0.6202875611    1.5834460789   -0.9721919189
 H   -0.0942886869    1.9766412153    0.6095734158
 H   -1.8218651536   -2.1637991158   -0.2910659608
 H   -0.1455207609   -4.0658312557    1.0999684120
 H    1.4649041948   -1.9288931966    2.1622551866
 H    1.7289604502   -1.9931373785    0.3708124251
 H   -2.1111878626   -2.0802308924    1.9177786921
 H   -0.6890002323   -1.9659084312    3.0353987135