21

 C   -0.2035554844    1.5520291600   -0.3398021209
 C   -0.0131692777    0.0483581994   -0.1234228421
 C    0.7229959099   -0.6323778955   -1.2827574093
 C    0.9249061367   -2.1321271222   -1.0811585438
 C   -0.3449736452   -3.0032154918   -1.3749429865
 C    0.2486104854   -3.2108980257   -2.7732850521
 O   -0.2085966335   -3.2796489516   -3.8808698711
 C    1.6508353653   -2.8400229242   -2.2946171659
 O    2.4806969135   -2.1318531120   -3.1636507709
 H    0.7603232750    2.0599924539   -0.4545896732
 H   -0.7904475076    1.7508855604   -1.2433999033
 H   -0.7253387853    2.0136664551    0.5041267556
 H    0.5466396184   -0.1216286370    0.8058543743
 H   -0.9917791039   -0.4270989301    0.0230904661
 H    0.1717169637   -0.4559616863   -2.2179064634
 H    1.7047188817   -0.1647853499   -1.4246902744
 H    1.3986916322   -2.3308331181   -0.1169489497
 H   -0.3781629107   -3.9276807009   -0.7916806954
 H   -1.3236271618   -2.5202935307   -1.3400955878
 H    2.1804851851   -3.7271280547   -1.9210021943
 H    1.9695074132   -1.9527733183   -3.9627637118