15

 O    0.0952689190    1.4351357765   -0.1595737588
 C   -0.0378766946    0.0596566882    0.0209150829
 C   -0.4716725084   -0.6975718939    1.2415879141
 N   -1.5888721469   -0.2070746727    2.1131309370
 C   -2.1000586165    1.1169392044    1.6568134955
 C   -2.4533571653   -0.0947101088    0.8953366576
 C   -1.3594478770   -0.6498788717   -0.0477466711
 C   -1.6319206129   -1.6654285990   -1.0073916845
 N   -1.8625015327   -2.4921823326   -1.7849732741
 H    0.9387670000    1.7031029527    0.2236994865
 H    0.7136832522   -0.5233547889   -0.5170540019
 H    0.1016852977   -1.5329537199    1.6256998962
 H   -2.8612571855    1.4829514632    2.3400694319
 H   -1.4317175884    1.8570850909    1.2462731750
 H   -3.4424841706   -0.5385763584    0.8822513737