17

 C   -0.3020969867    1.4284013890   -0.0898596596
 N   -0.2922232272   -0.0235720329   -0.2051680204
 C    0.5535131304   -0.5892077153   -0.9214905275
 O    1.5830040025   -0.0563141574   -1.7082695185
 C    2.0201628215   -1.3841179545   -2.1063206602
 C    3.3936637670   -1.6602094878   -1.6942364327
 N    4.4773436530   -1.9028277157   -1.3754424802
 C    0.8738360787   -2.0316316147   -1.2621416513
 C    1.2175925320   -2.9624519581   -0.1079852153
 H    0.5103594463    1.9259380801   -0.6311059605
 H   -1.2594158695    1.8079908957   -0.4625736948
 H   -0.2403783542    1.6988435990    0.9691283122
 H    1.9306497799   -1.5130937279   -3.1883795650
 H    0.1153792147   -2.4787379417   -1.9103348936
 H    2.0023453149   -2.5413652434    0.5256786765
 H    0.3280514599   -3.1174260876    0.5079290778
 H    1.5575752767   -3.9345964066   -0.4761350067