20

 C   -0.0768557857    1.5220347248   -0.0047949892
 C    0.0964391911    0.0374563683    0.0262818404
 N   -0.8113139175   -0.8649939971    0.7806447999
 C    0.6561230223   -0.8806616802    1.0385050338
 C    1.3637925826   -1.7219767827   -0.0660940453
 C    2.7707601441   -2.2102698518    0.0742164738
 O    2.8841245672   -3.3002597897    0.9826989747
 C    0.3764347812   -2.2553962911   -1.0787413737
 C    0.7588267276   -0.7985543724   -1.1177424764
 H    0.8368083590    2.0170313308   -0.3522978038
 H   -0.8901937540    1.8136391052   -0.6803487490
 H   -0.3097639342    1.9106225870    0.9925840692
 H   -1.2327165505   -0.3068330809    1.5233650263
 H    1.0557484197   -0.6911828467    2.0270700939
 H    3.1691416039   -2.4687511902   -0.9207166817
 H    3.4158873596   -1.4250826671    0.4867503917
 H    2.2387058141   -3.9613852569    0.7103206380
 H    0.8241507137   -2.8524178872   -1.8687881705
 H   -0.6203674797   -2.5502712504   -0.7780263559
 H    1.2557581753   -0.3436547717   -1.9659984962