21

 C   -1.6403166198    0.6609767417   -1.8305939233
 C   -2.4046093734   -0.4391944210   -1.1270238108
 O   -3.4112653688   -0.9300227498   -1.5886458219
 C   -1.8317057180   -0.9352068973    0.2010096170
 C   -1.0140683317   -2.2227593322    0.0133511748
 O    0.0546695800   -1.8784801197   -0.8486112504
 C   -0.6625575981   -2.9127192268    1.3654144532
 C   -1.8655882148   -3.8695022030    1.1478851916
 C   -1.8789360537   -3.4674112921   -0.3519064221
 H   -2.1113844369    0.8994526435   -2.7849827622
 H   -1.6055484008    1.5576044985   -1.2003372741
 H   -0.6066801012    0.3333455881   -1.9808326432
 H   -1.1819825825   -0.1804287093    0.6559333834
 H   -2.6677131359   -1.1361450226    0.8763609389
 H    0.5442338821   -2.6808949289   -1.0552316408
 H    0.2949471691   -3.4383584351    1.2846742598
 H   -0.6421460736   -2.2895680218    2.2636075213
 H   -1.7078981196   -4.9243778078    1.3786909884
 H   -2.7630677874   -3.5344849820    1.6737464670
 H   -2.8357955915   -3.2796925188   -0.8395542805
 H   -1.2991652236   -4.1689805535   -0.9619153463