15

 N   -0.0808162605   -1.0661846097   -0.4736535339
 C   -0.0474447743    0.0508974932   -0.1793565538
 C    0.0195435427    1.4785148924    0.1535765412
 O   -0.0097263005    1.7300063354    1.5706381283
 C    1.2890198703    2.3798172266    1.5461940553
 C    1.4022540708    2.1385455207    0.0453216712
 C    2.5810290311    1.7028406597   -0.7624480363
 C    1.9151981178    3.0323019029   -1.0383983317
 H   -0.7927035946    2.0015792533   -0.3677901831
 H    1.2191206563    3.4269911684    1.8633037078
 H    2.0153919232    1.8520623513    2.1751583484
 H    3.5511299473    1.7038474357   -0.2761924069
 H    2.4363223102    0.8952974688   -1.4726899751
 H    1.3223948267    3.1304279176   -1.9422301126
 H    2.4315123835    3.9397682038   -0.7420258688