20

 C    0.8468887850   -0.3738592580    1.3398905972
 C    0.0081428759   -0.0388937047    0.1035926824
 C    0.7309074116   -0.3431959712   -1.2257291864
 C    0.9433644764   -1.8164182680   -1.4829215532
 C    0.3065029750   -2.2279587728   -2.5750122920
 C   -0.4148617441   -1.0988423232   -3.2550745596
 N   -0.0618329738    0.0410341333   -2.4061235758
 C   -0.2758599518    1.3146301658   -2.8136553981
 O   -0.8612423950    1.6248141208   -3.8328316352
 H    1.0651810643   -1.4444564523    1.4056752579
 H    1.8033650387    0.1609919713    1.3286961620
 H    0.3199723956   -0.0895448768    2.2551182357
 H   -0.9378733985   -0.5922933500    0.1194118254
 H   -0.2513339261    1.0262466351    0.1163084106
 H    1.6911523448    0.1965156092   -1.2227551296
 H    1.5379163465   -2.4324960945   -0.8211765989
 H    0.2871085384   -3.2395835311   -2.9603099651
 H   -0.0844547883   -0.9257697137   -4.2873320705
 H   -1.5024624675   -1.2510683437   -3.2992996386
 H    0.1470872531    2.0598157645   -2.1099080380