19

 C    0.1107615427    1.5235336671   -0.0118939919
 C   -0.0078366613    0.0188060381    0.0224229383
 C   -1.3787540140   -0.6064398753   -0.2221670679
 C   -1.3563991356   -1.9558409363    0.5320361975
 C   -0.1773655128   -1.8210425092    1.5302253600
 N    0.6905049848   -0.7087212062    1.0907376864
 C    1.2062839805   -0.8130689366   -0.2966039473
 C    1.1419140536   -2.0249747015   -1.0698572542
 N    1.1313633191   -2.9968460816   -1.6988073479
 H    1.1178332906    1.8457604109    0.2638712211
 H   -0.1156408250    1.9084022432   -1.0118533122
 H   -0.5954349630    1.9766441679    0.6922581304
 H   -2.1364828547    0.0682497638    0.1906686099
 H   -1.5992161052   -0.7254107264   -1.2868220949
 H   -2.2989492276   -2.1475191640    1.0503106076
 H   -1.1923456079   -2.7844026087   -0.1573839620
 H   -0.5318319835   -1.5502687383    2.5295732958
 H    0.4074182004   -2.7402090468    1.6240205687
 H    2.1503132290   -0.2905163703   -0.4326300474