16

 O   -0.0497420522    1.4765717585   -0.0468732394
 C    0.0783530596    0.0638339003    0.0385409584
 C   -1.2719636047   -0.7035014388    0.1382558320
 C   -1.1661711593   -1.8444404905   -0.8752239888
 C   -1.7332483805   -3.1887374642   -0.6797548651
 O   -2.3484195343   -2.2634265089   -1.5758235227
 C    0.0645046709   -1.5833834213   -1.6655888666
 C    0.7499661179   -0.5537871223   -1.1688449294
 H   -0.4939997314    1.6756457113   -0.8790478049
 H    0.6819800108   -0.0921234101    0.9402053636
 H   -1.4851795970   -1.0517044203    1.1512400915
 H   -2.0870364876   -0.0352851329   -0.1568865896
 H   -1.2631441635   -4.0539730257   -1.1474929069
 H   -2.2900522328   -3.4031555124    0.2324079220
 H    0.3329976969   -2.1899361300   -2.5228946878
 H    1.6886253571   -0.1662763429   -1.5486486862