23

 C    0.4217571736    1.3365283880    0.5178600482
 C    0.0345478793   -0.0630550130    0.0258332140
 C   -1.5076282993   -0.1645814034   -0.1522766403
 C   -2.2542854631    0.0007034997    1.0888325122
 C   -2.8516319727    0.1302174688    2.1245865806
 C    0.7395730756   -0.5256158620   -1.2588853933
 C    0.7404002021   -2.0341767221   -1.4506388955
 C    0.6381944198    0.3184530412   -2.5103454096
 C    1.9569018445    0.2002529602   -1.7858338113
 H    1.4778864616    1.3855469125    0.7948896075
 H    0.2330374385    2.1040879385   -0.2418748909
 H   -0.1691855273    1.5963827321    1.4001039758
 H    0.3099412837   -0.7741638238    0.8159153495
 H   -1.8304295848    0.5930725436   -0.8782773687
 H   -1.7665876366   -1.1337501411   -0.5930721700
 H   -3.3903378209    0.2444782558    3.0322170171
 H   -0.2729266132   -2.4501858625   -1.4797901116
 H    1.2307769589   -2.3108537815   -2.3890725558
 H    1.2780185113   -2.5320810609   -0.6349744256
 H    0.5187075946   -0.1884765935   -3.4622667312
 H    0.1226810032    1.2715476280   -2.4533740054
 H    2.3221761775    1.0754428972   -1.2632117106
 H    2.7396693338   -0.4000191917   -2.2379479355