17

 C    0.0388860000    1.5240167677    0.1821531704
 C   -0.0521287752    0.0118575419   -0.0192975764
 O   -1.3987516979   -0.4371409696   -0.0731417060
 C    0.7091612634   -0.4579382512   -1.2741024496
 C    0.7144882422   -1.9987166076   -1.4454740615
 O    0.1514658074   -2.2119622037   -2.7674833368
 C   -0.2154661088   -0.9890219773   -3.1961904539
 N    0.0301667168    0.0379064601   -2.4924247080
 H    1.0758561547    1.8384968668    0.3415497126
 H   -0.3416668682    2.0502043903   -0.6984812356
 H   -0.5512335211    1.8191686593    1.0535482075
 H    0.3822697586   -0.4974126885    0.8504765035
 H   -1.7804908884   -0.0492480300   -0.8711299641
 H    1.7257499748   -0.0479637952   -1.2454730024
 H    1.7098718190   -2.4465568279   -1.4273711800
 H    0.0647214876   -2.4973058003   -0.7215430490
 H   -0.7080777151   -0.9828588550   -4.1629385908