20

 C   -0.0502537891    1.5763201733    0.0328688536
 C    0.0172688533    0.0474332731    0.0101873353
 C   -1.3751930869   -0.5947265796   -0.0126545162
 N   -1.3459796707   -2.0539947987    0.0007909087
 C   -1.2746346694   -2.7360728838    1.2788732196
 C   -1.3306297211   -2.7071894775   -1.2077541618
 N   -1.3733609999   -4.1009485486   -1.1388589433
 O   -1.2432042472   -2.1224894133   -2.2764729675
 H    0.9510128931    2.0170588305    0.0400512404
 H   -0.5763876577    1.9615085878   -0.8473388229
 H   -0.5797597938    1.9409752756    0.9207677255
 H    0.5600408957   -0.2949867609   -0.8769937871
 H    0.5758359953   -0.3128249368    0.8840094970
 H   -1.9641899575   -0.2586438983    0.8503423550
 H   -1.9018813306   -0.2852714863   -0.9180364182
 H   -2.2659656997   -2.9966076047    1.6812460617
 H   -0.6787394817   -3.6483635181    1.1962800842
 H   -0.7824163726   -2.0887839106    2.0098429545
 H   -1.9420335713   -4.5210631250   -0.4190313170
 H   -1.5303122183   -4.4969127182   -2.0539246417