21

 C   -1.5650753429   -0.1824455453    0.2121862723
 C   -0.0380197468   -0.0734174867    0.1769854001
 C    0.5871332894   -0.6131012976   -1.1207693838
 C    2.1159117155   -0.3327485871   -1.1800955462
 C    2.4399466542    1.0866935711   -1.2219754111
 C    2.6886984845    2.2621060795   -1.2679970716
 C    0.3992166297   -2.1328499213   -1.2238221683
 C   -0.2421597952   -2.6673783794   -2.4878917997
 O    0.7718521668   -2.8610483252   -0.3316073349
 H   -2.0241147202    0.3650894476   -0.6188941187
 H   -1.8968327507   -1.2248187607    0.1528201703
 H   -1.9639480104    0.2336895583    1.1420527571
 H    0.2620915065    0.9730584470    0.2927227126
 H    0.3942889676   -0.6303903497    1.0157217223
 H    0.1163701397   -0.1279014819   -1.9836835280
 H    2.5830789558   -0.8063448164   -0.3087004007
 H    2.5471275212   -0.8241107645   -2.0621483875
 H    2.9228517220    3.2971222493   -1.3033179547
 H   -1.2615647008   -2.2740118545   -2.5804224169
 H    0.3068523006   -2.3187392922   -3.3705447162
 H   -0.2665557466   -3.7576338503   -2.4701119763