21

 C   -0.1080887764    1.5135269967   -0.0096946805
 C    0.0194459984   -0.0201667364   -0.1040679315
 C    0.7742654007   -0.4132967757   -1.2931240292
 C    1.4217847183   -0.7273981748   -2.2567062243
 C    0.6726529859   -0.6080378133    1.1610461205
 C   -0.0940736067   -0.5216313605    2.5284859696
 C    0.0606943932   -2.0395931882    2.6857782666
 C   -0.6059340024   -2.7405000249    1.5386891606
 C    0.7527479021   -2.1317276864    1.3223502346
 H    0.8792728512    1.9778275263    0.0752371036
 H   -0.5976272616    1.9210950468   -0.8979168270
 H   -0.6971244067    1.7933280943    0.8689288029
 H   -0.9923955812   -0.4389775720   -0.1924805821
 H    1.9807930474   -1.0103461036   -3.1138314064
 H    1.6683032980   -0.1662270828    1.2673197082
 H    0.4473549850    0.0625252762    3.2752312185
 H   -1.1274813605   -0.1581786057    2.4868949710
 H    0.3073364955   -2.5509013395    3.6080171536
 H   -0.6121542443   -3.8244727382    1.5919266777
 H   -1.4969020121   -2.3195685935    1.0776661415
 H    1.5990030863   -2.7383194749    1.0247355222