16

 N   -0.0402104524   -1.0945100690   -0.1397070428
 C   -0.0125956780    0.0589835248   -0.0556420245
 C    0.0132760433    1.4999679634    0.0250628402
 N   -0.4622382537    2.2579023719   -1.1671505533
 C    0.8579443598    2.9474265984   -1.3000055379
 C    1.3173430460    2.3353413400    0.0441464535
 N    0.9667896075    2.9768100039    1.3679979555
 C   -0.3658933634    3.6140385405    1.2803839126
 C   -0.3156099404    2.1514590809    1.3960450927
 H   -0.7204530037    1.6713390096   -1.9516871003
 H    1.4699720153    2.5935775466   -2.1372584916
 H    0.7826401309    4.0381765247   -1.3525484804
 H    2.3053485584    1.8835478558    0.0952671050
 H   -0.5982772938    4.1731003223    2.1811406220
 H   -0.7126872989    4.0629695943    0.3563774742
 H   -0.6147681469    1.5905642120    2.2749078252