18

 C   -0.0645914459    1.5415897723   -0.0320753376
 C    0.0603323830    0.0356459624    0.0312327287
 C    1.3879184708   -0.6553720527   -0.1558193180
 O    2.5578663533    0.1005352919   -0.2629445152
 C    0.7332619643   -0.6772247698    1.2189925021
 C    1.3557437976    0.1259752183    2.3531206997
 C    0.1387468186   -1.9243988031    1.6230868796
 C   -0.3608589790   -2.9629499385    1.9699946679
 H    0.8721987041    2.0396440738    0.2254351193
 H   -0.3410731558    1.8567319326   -1.0447620725
 H   -0.8418532496    1.9055578722    0.6475336269
 H   -0.7931973461   -0.5029329033   -0.3702144471
 H    1.4031048578   -1.5979222015   -0.7009744720
 H    2.5767050646    0.4985178322   -1.1399188145
 H    1.9318540448    0.9688668421    1.9721437905
 H    0.5829799649    0.4979092406    3.0327860144
 H    2.0335562299   -0.5094009491    2.9302191398
 H   -0.7986824473   -3.8802172803    2.2761402880