14

 O   -0.1835989946   -0.0295343808   -0.1568593004
 C   -0.0733551169    1.1648539576   -0.0928661573
 N    1.1286730462    1.8503972436   -0.0113320483
 C    1.4066173937    3.2964909708    0.0767400707
 C    2.9337185840    2.9546638036    0.0762095019
 C    3.7205976911    3.3741762984    1.2120405409
 C    4.3635907656    3.7125360813    2.1687951093
 C    2.4816349977    1.4567955393    0.0370470216
 O    3.0215869971    0.3987194538    0.0375638297
 H   -0.9311067650    1.8675362596   -0.0930530784
 H    1.0608280165    3.8665667210   -0.7882553976
 H    1.0549575635    3.7534224998    1.0034295380
 H    3.4180175677    3.2261342462   -0.8671101969
 H    4.9405103334    4.0073529059    3.0105806769