20

 C   -0.0837741389    1.5222492786    0.0672046028
 C    0.0248786441    0.0264951190    0.0237409795
 C    0.8074622588   -0.7933440362   -0.9926916627
 N   -0.1609222585   -1.9428024857   -0.8333436160
 C    0.3903708793   -2.9009910761    0.1540302056
 C    0.6238339710   -2.0996933450    1.4663078083
 C   -0.2498899990   -0.8655355211    1.2343065148
 O   -0.7877357403   -0.1792281455    2.3209185778
 C   -1.0477993649   -1.0517018844   -0.0355381577
 H    0.8774280018    1.9769840304    0.3350513980
 H   -0.3805454056    1.9211688448   -0.9092638233
 H   -0.8177422864    1.8388797432    0.8112058114
 H    0.7399884145   -0.3804542511   -2.0046731359
 H    1.8555178460   -1.0377409563   -0.7780586925
 H   -0.3523546484   -3.6902015148    0.3108923022
 H    1.2963277165   -3.3667234378   -0.2432649470
 H    0.2830735496   -2.6421978444    2.3554727701
 H    1.6765775001   -1.8467705021    1.6282469342
 H   -1.4217059943   -0.7593598555    2.7571095550
 H   -2.1252164254   -1.0159869398   -0.1483947046