16

 O    0.1449105004   -0.1172762913   -0.0105959019
 C    0.0687102758    1.0715393084   -0.1821270439
 C    1.2275136712    2.0380338248    0.0052882242
 C    1.3444087411    2.9962410230   -1.1437474389
 C    1.9967963382    2.7459998552   -2.4695651099
 C    2.4150195374    3.9452445115   -1.6371184189
 C    1.2963421681    4.9787365172   -1.6737502781
 O    0.3094655774    3.9826181755   -1.2844340329
 H   -0.8847735132    1.5524710245   -0.4914497939
 H    1.0410509375    2.6078715678    0.9266606581
 H    2.1470188447    1.4609409705    0.1336115661
 H    2.7222195086    1.9385926227   -2.4912497060
 H    1.4264261665    2.8802039676   -3.3848631184
 H    3.4285465007    4.1084805961   -1.2968988724
 H    1.3810340415    5.7528747754   -0.9032438524
 H    1.0617550540    5.4407362410   -2.6398914810