13

 N    0.0873913677   -1.1713794894    0.0106214636
 C    0.0438437706   -0.0180708792   -0.0093515673
 C   -0.0235264591    1.4578736478    0.0059885888
 C   -0.6166900782    1.9941494529    1.3607531112
 O    0.5457023500    2.2210706903    2.1177687821
 C    1.4745463757    2.7290570948    1.2036523231
 O    1.2884527406    1.9936232143   -0.0125557286
 C   -0.8025995531    1.9383310750   -1.1497582543
 N   -1.4323193822    2.3417187373   -2.0291128388
 H   -1.1738935752    2.9199930381    1.1646003796
 H   -1.2500148247    1.2687727507    1.8695633271
 H    1.3058138401    3.7991496725    1.0058852335
 H    2.4851333377    2.5504596751    1.5751125200