12

 O    0.0108099421   -0.1051886722    0.2362556837
 C    0.0141214747    1.0602952716   -0.0465969887
 C    1.3048895527    1.8601134911   -0.2232292145
 C    1.2370986453    2.8438331213   -1.3342714546
 N    0.3446908992    2.8843490995   -2.2532255399
 O    0.7183768865    3.9863751934   -3.0608490418
 C    1.8476286474    4.5477238753   -2.5567314623
 O    2.4409403270    5.4812548765   -2.9751118259
 O    2.1843547876    3.8060667266   -1.4305149166
 H   -0.9198462469    1.6454433877   -0.1636282209
 H    1.4958585143    2.4095835296    0.7094790090
 H    2.1409349701    1.1678625896   -0.3634685475