16

 N   -0.0379364624    1.4753966321    0.1413449267
 C    0.0307149533    0.0602569302   -0.0094066114
 C    1.2364126817   -0.6304987923    0.6955314786
 N    0.9856046428   -2.0820578474    0.7104163672
 C    1.5363990825   -1.4559660005   -0.5125695615
 C    0.3480066444   -0.8172465431   -1.2717081690
 O   -0.9315547315   -1.4928299478   -1.1269950805
 C   -1.2765980786   -0.7296238175   -0.0196564388
 N   -2.3400618590   -0.6867113209    0.6391921931
 H    0.8338426881    1.9250505745   -0.1184389330
 H   -0.7862399558    1.8757841397   -0.4136377006
 H    1.8873350679   -0.1526187959    1.4178992339
 H    1.7632784189   -2.5239483785    1.1993349098
 H    2.4813849592   -1.7786965771   -0.9307812046
 H    0.5175524547   -0.4341951001   -2.2773251893
 H   -3.0202084261   -1.3657248655    0.2920132993