20

 C    0.2940661525    1.6138984402    0.5787288011
 C    1.3267025928    0.7257501618   -0.0070043391
 C    2.2381420636   -0.0380168558    0.9441302713
 C    1.2968625115   -0.8813614597    1.8407733622
 C    1.0459082699   -0.3851002560    3.2838385017
 O   -0.2204738361    0.2649056193    3.2870746842
 C   -1.0359063595   -0.4281355822    2.3483983844
 C   -0.1146701712   -0.7722820055    1.1715413903
 N   -0.0658786059    0.2580984401    0.1152529575
 H    0.3188953409    1.8091878323    1.6462502759
 H   -0.1338271090    2.4118941762   -0.0217872466
 H    1.6854649516    0.9089609324   -1.0164002772
 H    2.9016350826   -0.6921046875    0.3701309890
 H    2.8795047441    0.6287073404    1.5303074980
 H    1.6415532265   -1.9170061916    1.8697591182
 H    1.0321774587   -1.2367082233    3.9822510929
 H    1.7895952435    0.3346718998    3.6384485686
 H   -1.4457331547   -1.3478038799    2.7969770128
 H   -1.8643588673    0.2260317830    2.0672123708
 H   -0.4160978645   -1.7066113542    0.6903679642