14

 N   -0.0366046497    1.3121993659    0.0111830890
 C   -0.0753352820    0.0516057038    0.0038018977
 O    1.0649217012   -0.7620088217   -0.0069867222
 C    0.7415544589   -2.1666386368   -0.0138319685
 C   -0.7459424293   -2.1420293251   -0.0059901348
 C   -1.2113722340   -0.8632150520    0.0041338321
 N   -2.5847035905   -0.8213781454    0.0113973049
 C   -2.9342805478   -2.0856675954    0.0057713015
 N   -1.8478980095   -2.9455779683   -0.0052197400
 H    0.9300713923    1.6411168317    0.0081788070
 H    1.1810862340   -2.6270836477   -0.9079842187
 H    1.1902998550   -2.6378719131    0.8700630364
 H   -3.9466831595   -2.4621591731    0.0087865477
 H   -1.8866545590   -3.9512708428   -0.0111123122