19

 C   -0.2063583737    1.4109677596    0.0279210035
 C    1.2873939263    1.4896887400   -0.3865696327
 C    1.5628264480    0.2519237107    0.5134802401
 C    0.0315392202   -0.0616312275    0.4533331145
 C    2.5438580763   -0.7864780312    0.0860662615
 C    3.3084955615   -0.8070215836   -1.0402587204
 O    4.0799702897   -1.9285634676   -1.0908780732
 C    3.8011460713   -2.6436556819    0.0293509495
 C    2.8767393624   -2.0017410718    0.7864050770
 H   -0.4204836682    2.0514552743    0.8885195622
 H   -0.9573760135    1.6022085875   -0.7415513577
 H    1.4136559367    1.2450864824   -1.4457102779
 H    1.8389203921    2.4077686776   -0.1710056039
 H    1.8067796872    0.5919050702    1.5274294187
 H   -0.4507234345   -0.4220125838    1.3652616534
 H   -0.1878567151   -0.7579792848   -0.3611061363
 H    3.4266839735   -0.1250008404   -1.8654434710
 H    4.3372411089   -3.5722618379    0.1372659218
 H    2.4709267608   -2.3390468519    1.7279650709