18

 C    0.1125172819    1.6088322054   -0.1480257370
 C    0.1227521335    0.0921939677   -0.1250354452
 C    0.7319674205   -0.7501372971   -1.2715679138
 C    1.2286552991   -1.7034773050   -0.1133511062
 C    2.3626808913   -0.7584567181    0.0842497941
 N    1.0707020375   -0.5844383239    0.8421457722
 C    2.1808001048   -0.2563625695   -1.3230480079
 C    3.1305514495   -0.3028063107   -2.4288718412
 O    2.6511612951    0.9482305659   -1.8940599873
 H    1.0959049887    2.0241232868   -0.3754811477
 H   -0.5925886440    1.9723508402   -0.9035272308
 H   -0.2104707664    1.9903296930    0.8259727883
 H   -0.8707897524   -0.2914080210    0.1296383081
 H    0.1894955913   -1.0063974733   -2.1793926219
 H    1.1054567553   -2.7526479237    0.1154821169
 H    3.2648530802   -0.8656181788    0.6706881912
 H    4.1818635580   -0.5139508923   -2.2369940767
 H    2.7869411563   -0.5404029257   -3.4348217050