17

 C   -0.0083803738    1.5177792640   -0.0025914203
 C   -0.0032981262    0.0628826548   -0.0021759821
 C    0.0016245364   -1.1434747173   -0.0009466603
 C    0.0223027475   -2.5617826510    0.0031896180
 C    0.7411314971   -3.4693298658   -0.9969618329
 O   -0.3122101617   -4.4752320775   -0.9178333578
 C   -1.0936528896   -3.6291932499   -0.0697081990
 C   -0.3624152908   -3.4386246422    1.2087113667
 O    0.4648542522   -4.4278006155    1.7187477193
 H    0.7388931851    1.9126494541   -0.6999735156
 H   -0.9837067046    1.9150775309   -0.3058515271
 H    0.2213441072    1.9205826512    0.9902544813
 H    0.7885136540   -3.0511322736   -2.0059700995
 H    1.7175147796   -3.8631082784   -0.6957747300
 H   -2.1610721304   -3.5711548429   -0.2519087534
 H   -0.8817004023   -2.8825773983    1.9831677199
 H    0.4642477203   -5.1412761327    1.0653040929