15

 C   -0.0311325237    1.4686784248   -0.0193343164
 C    0.0057941881   -0.0233458692    0.0307547524
 N   -0.0269874400   -0.7680359700   -1.0682736017
 N    0.0223972376   -2.0224487428   -0.6152945228
 N    0.0859238945   -2.1462804212    0.7181564703
 C    0.0768914445   -0.8943532495    1.1461481926
 C    0.0090501523   -3.1653866283   -1.5015442936
 N    0.0608191367   -4.3247268859   -0.8073543753
 O   -0.0434208732   -3.0322583851   -2.6945612539
 H    0.8618106756    1.9037205436    0.4415233214
 H   -0.0833677945    1.8028246932   -1.0568795346
 H   -0.9007730913    1.8626620507    0.5168961089
 H    0.1198455912   -0.6664538454    2.2002296752
 H    0.1128280585   -4.3205293103    0.1972839619
 H    0.0678703939   -5.1812621346   -1.3311011844