17

 C    0.0177800493    1.4163476266   -0.0301830060
 O   -0.0048124213   -0.0039110467   -0.0312470710
 C    0.6820699178   -0.5772211687   -1.0871405807
 O    2.0605658642   -0.2825975620   -0.9611083279
 C    2.8566946731   -0.9355610049   -1.9314804925
 C    2.6877175886   -2.4556260784   -1.9159240480
 O    3.5498930461   -3.1951699692   -2.3402908752
 C    1.3834182162   -2.9341474924   -1.4130793954
 C    0.4345112412   -2.0634945429   -1.0570585518
 H    1.0321972636    1.8009791272    0.1141728214
 H   -0.3861798466    1.8169075552   -0.9718062082
 H   -0.6171649404    1.7376173726    0.7972947631
 H    0.3197951474   -0.1573438546   -2.0533979754
 H    2.6197488566   -0.5781244525   -2.9503708923
 H    3.8992856092   -0.6876321358   -1.7240262332
 H    1.2312149101   -4.0085436558   -1.3952178610
 H   -0.5569581949   -2.3748762475   -0.7424476159