17

 O   -0.0253471543    0.0468107620    0.4138347949
 C   -0.0132402167    1.1807767643    0.0097889322
 O   -1.1937860123    1.8289281281   -0.2048479064
 C   -1.1706062513    3.0370290340   -0.9767777940
 C   -0.0828330469    3.9901792788   -0.5403525466
 C   -0.1200950219    5.4050361101   -1.0771335009
 C   -0.4042041911    5.1643591414    0.3753220172
 C    1.2024746008    3.2884750467   -0.3731107905
 C    1.2272131465    1.9632443679   -0.1897546659
 H   -1.0248231650    2.7725945772   -2.0334215176
 H   -2.1653465497    3.4759002014   -0.8675429689
 H    0.8239288412    5.8630368085   -1.3523954977
 H   -0.9479869812    5.6682874307   -1.7276082343
 H   -1.4274075051    5.2486880623    0.7252993101
 H    0.3440886048    5.4541822443    1.1042201746
 H    2.1217201325    3.8696894518   -0.3902937827
 H    2.1455542097    1.4038033906   -0.0617373935