15

 C   -0.0346675030   -1.2261724029   -0.0017171511
 C   -0.0095343269   -0.0231998191   -0.0007563983
 C    0.0033267326    1.4093199773    0.0213109361
 C   -0.3701791529    2.2266054978   -1.2513168676
 O    0.8758906530    2.9646031622   -1.2034141879
 C    1.3030861704    2.2774267177   -0.0278044299
 C    0.8948207897    2.9251083027    1.3276685064
 O   -0.4018363798    3.5046526860    1.1554902853
 C   -0.3307678417    2.1056613330    1.3832743867
 H   -0.0510169194   -2.2879555036   -0.0121105070
 H   -0.4338788710    1.6144702562   -2.1561262274
 H   -1.2409204231    2.8800508298   -1.1574173744
 H    2.3071206696    1.8516984907   -0.0848724496
 H    1.5216284454    3.3387192965    2.1091684190
 H   -0.8876397629    1.6863486057    2.2128954797