10

 O   -0.0353430557   -0.0540013829    0.0027344171
 C    0.0266227600    1.1494673265    0.0093490170
 N   -1.1734874870    1.9198260021    0.0291621453
 C   -1.1677256704    3.2638759845    0.0362520453
 N   -0.0748280943    3.9682194240    0.0254494488
 C    1.0690140508    3.2073299896    0.0060194758
 N    1.1850309537    1.9126298522   -0.0025064630
 H   -2.0377304095    1.3937236135    0.0377586457
 H   -2.1364790894    3.7592520193    0.0517544953
 H    1.9933492519    3.7829668212   -0.0034562672