16

 C    0.0661168434    1.5039247448    0.1368507641
 C    0.0163797854    0.0016267490   -0.1639930190
 C   -1.3917666281   -0.5728312603   -0.0309766633
 C   -1.5822302192   -2.1008594849   -0.0594655047
 O   -0.8803925913   -2.6199027687    1.0645006010
 C   -2.2311538170   -2.1454966842    1.2745446961
 C   -2.0842263593   -0.6279939212    1.3742541648
 O   -2.4587009365    0.2029920105    2.1464355979
 H    1.0903900986    1.8816446900    0.0666475175
 H   -0.5483113716    2.0705833143   -0.5716108357
 H   -0.3092258983    1.7163641882    1.1418461058
 H    0.3831990941   -0.1879779305   -1.1810016626
 H    0.6798103757   -0.5428804411    0.5155977146
 H   -2.0907186913   -0.0681186166   -0.7123859912
 H   -1.7498019324   -2.7586649630   -0.9036241469
 H   -2.9440766021   -2.8352095363    1.7098949416