19

 O    0.1142344936    0.2766275317    1.0901252954
 C    0.0880720552    1.3327731256    0.4888290435
 N    1.1806021929    1.9626053432   -0.0032867938
 C    2.5283931857    1.4065728284    0.1653271867
 C    3.3956515319    2.2863497548   -0.7486925308
 C    2.6452704669    3.6109815971   -0.7616667525
 C    3.1836247730    4.8237316342   -0.0969407921
 N    3.0403803190    4.7593364455   -1.5672114231
 C    1.1683205647    3.2386945055   -0.7190401945
 H   -0.8480344413    1.8902318910    0.2821325961
 H    2.8402655154    1.4800420386    1.2144532875
 H    2.5374722358    0.3476141152   -0.1035630549
 H    4.4253768491    2.3775490664   -0.3950744147
 H    3.4208248082    1.8672164506   -1.7622323002
 H    2.5135591230    5.5243896439    0.3941836457
 H    4.1806357821    4.7713304615    0.3336223077
 H    3.9451495126    4.5945908749   -2.0021607985
 H    0.7790267388    3.1300434040   -1.7406007254
 H    0.5607854635    3.9885632677   -0.2036455423