19

 C    0.0609407136    1.5323147174   -0.1706701735
 C    1.4361505017    2.1423248367   -0.0416396321
 C    2.2673621379    2.0460248736    0.9957002472
 C    2.1067979855    1.2812522487    2.2849139393
 C    1.1158868779    0.1257272479    2.3391101953
 O   -0.2959463560    0.4927153033    2.4641600722
 C   -0.6345045577   -0.4359835993    1.4281533094
 C   -0.0564545486    0.0389656955    0.1336001913
 C    0.8135553439   -0.7316153697    1.1148183235
 H   -0.6188571304    2.0683577868    0.5043101346
 H   -0.3120237797    1.7069524952   -1.1842061525
 H    1.7545244331    2.7662220630   -0.8743160636
 H    3.2055660518    2.5955699352    0.9322655357
 H    3.0878616546    0.8642526610    2.5538187220
 H    1.8641385437    1.9728799940    3.1064263654
 H    1.3645248803   -0.5085451287    3.2001709864
 H   -1.5090796885   -1.0601507765    1.5706888540
 H   -0.3303475124   -0.5888561582   -0.7113610699
 H    1.3077803696   -1.6586729757    0.8580994355