19

 O   -0.0204519586    1.4085012504   -0.1396853088
 C    0.0096077064   -0.0040222633    0.0188705142
 C    0.6094133940   -0.4883423960    1.3882767314
 C   -0.4602996420   -1.3793748164    1.9942725144
 C   -1.5583752277   -1.3874423180    1.2280232131
 C   -2.9504807435   -1.9693900909    1.2148423336
 C   -3.6211741627   -1.2984700914   -0.0337012318
 C   -2.5141069261   -0.4812364427   -0.6762278986
 C   -1.3928878053   -0.5544099068    0.0478218292
 H    0.8903134024    1.7147934268   -0.1996595356
 H    0.5730052309   -0.4600827187   -0.8099787422
 H    1.5663806319   -1.0092123029    1.2568867909
 H    0.8109180078    0.3888791595    2.0184616912
 H   -0.3215047128   -1.8966069766    2.9367289490
 H   -2.9252746691   -3.0593548415    1.1102835782
 H   -3.4986391426   -1.7576522846    2.1377126868
 H   -4.0345965637   -2.0425815997   -0.7260747906
 H   -4.4658766739   -0.6607496463    0.2583850221
 H   -2.6615014153    0.0911396592   -1.5841751067