23

 C   -0.9932774988    1.0893889415   -0.6296907375
 C   -0.2185926085   -0.1016132173   -0.0661233770
 C   -1.1454510572   -1.1863593426    0.4828168353
 O    0.5710352615   -0.6661835460   -1.1201374195
 C    1.9862745780   -0.7149720866   -0.9785337222
 C    2.6324621277    0.6749421689   -0.8935522043
 C    2.4318118881   -1.6156680228    0.1904762717
 C    2.4394814066   -1.4023812455   -2.2735278899
 O    3.5808399005   -1.4467429559   -2.6496827172
 H   -0.3105503452    1.8614130892   -0.9945258306
 H   -1.6209935772    0.7668022857   -1.4664268172
 H   -1.6389279488    1.5323878166    0.1354694504
 H    0.4332227353    0.2515749840    0.7426616040
 H   -1.7783278514   -1.5797927414   -0.3189976037
 H   -0.5711094970   -2.0172842738    0.9012219389
 H   -1.7936878031   -0.7848780954    1.2684958203
 H    2.4281859185    1.1532837108    0.0686386589
 H    3.7144101503    0.5780775720   -1.0108467557
 H    2.2550092118    1.3191571977   -1.6924570587
 H    1.9781047539   -2.6078219225    0.1084287720
 H    3.5191983090   -1.7271078485    0.1774609365
 H    2.1425764041   -1.1816569299    1.1521704183
 H    1.6050269717   -1.8794103684   -2.8317011729