17

 C   -0.0193135147   -1.1822060605   -0.0984596966
 C   -0.0175465475    0.0199834706   -0.0484508307
 C   -0.0301889891    1.4560273322    0.0104945552
 C    0.4881604758    2.2171276813   -1.2214525753
 C    1.3022220388    2.1917924648    0.0346342888
 O    1.3813743447    3.3813084307    0.7579507341
 C    0.6473541580    3.4062663307    1.9778878047
 C   -0.7773293843    2.9457307399    1.8053723896
 C   -1.0961688539    2.0618432259    0.8639023604
 H   -0.0177702683   -2.2430576350   -0.1393141506
 H    0.8110196921    1.6230544494   -2.0683803913
 H   -0.0075603718    3.1526188945   -1.4523148275
 H    2.2073227169    1.5888550965    0.0630747377
 H    1.1541867724    2.8011895628    2.7488396073
 H    0.6807467396    4.4472889966    2.3131585032
 H   -1.5290457546    3.3657349697    2.4667041190
 H   -2.1162044542    1.7248426099    0.7088895821