17

 O    0.1177487705    1.3933121130   -0.1020792998
 C    0.0177675256    0.0287977040   -0.0051924299
 C   -0.3337654205   -0.8023168197   -1.1802240535
 C   -1.1962922205   -0.9431342700    0.0606579630
 C   -0.4462693919   -1.7575188209    1.1272184983
 O    0.4408373054   -2.8192572710    0.6629950413
 C    1.6143101061   -1.9755723057    0.7749218644
 C    0.7275842659   -0.7597046241    1.1237765998
 O    1.0503266585    0.1185063859    2.1568445882
 H    0.1789923804    1.7299416974    0.8015018836
 H   -0.8063866647   -0.2315236091   -1.9735376431
 H    0.2769378272   -1.6324020925   -1.5211921814
 H   -2.2654163829   -0.7720233943    0.0340774071
 H   -1.0042727295   -2.0318695386    2.0259187591
 H    2.2603482473   -2.2945424054    1.6059869578
 H    2.2022133472   -1.9403920531   -0.1486731311
 H    1.2460088159   -0.3854620059    2.9537274963