21

 O   -0.2414957056    1.3902247036   -0.0802960808
 C    0.0076709386   -0.0139823686   -0.0195603692
 C    0.7028228784   -0.4844056102   -1.2218916665
 C    1.3049885403   -0.8420489703   -2.1994750964
 C    0.7534161578   -0.4273249961    1.2678751814
 C    2.1459845336    0.2007655918    1.4539926230
 C    2.4331445706   -0.0313251249    2.9440890825
 C    1.0753911572    0.2328277124    3.6377303735
 C   -0.0111130799   -0.0399823668    2.5577570580
 H    0.5657026493    1.8156137434   -0.3879446195
 H   -0.9906455563   -0.4693522016    0.0076554931
 H    1.8209399328   -1.1646607518   -3.0700364879
 H    0.8725202280   -1.5176719890    1.2257870980
 H    2.9011012877   -0.2256790556    0.7887355939
 H    2.0940188477    1.2795589662    1.2537004186
 H    2.7399047888   -1.0731789117    3.0967708559
 H    3.2382574709    0.5995209287    3.3315169482
 H    0.9445303406   -0.3906798389    4.5263435270
 H    1.0190163487    1.2725887365    3.9749113639
 H   -0.5995503355    0.8616093441    2.3679731090
 H   -0.7099833235   -0.8259349714    2.8583738142