14

 N   -0.0202600570    1.4004229382    0.1468976243
 C    0.0193765243    0.0256177803    0.0566766062
 C   -1.1704752766   -0.7325437227    0.0419341720
 N   -1.2103159349   -2.0530084012    0.0073951038
 C   -0.0448717980   -2.7194685604   -0.0153526711
 C    1.1933253586   -2.0691466504   -0.0056918531
 C    1.2256977629   -0.6858604622    0.0297188078
 C   -0.1042534063   -4.1533634726   -0.0545364186
 N   -0.1127706348   -5.3104417323   -0.0868917544
 H    0.8009773750    1.9039513401   -0.1498811794
 H   -0.8832072645    1.8488333893   -0.1193620031
 H   -2.1307569981   -0.2189194458    0.0605110792
 H    2.1095193311   -2.6470910665   -0.0283497569
 H    2.1733629084   -0.1565769739    0.0392477234