18

 C   -0.2391362526    1.4342585392   -0.0209102257
 C    0.0108699634   -0.0840589545   -0.0302975112
 C    0.7351418680   -0.4994104911   -1.2411088639
 N    1.3002135740   -0.8602008705   -2.1829303917
 C    0.7744212142   -0.5603917429    1.2082850695
 O    1.9764373302    0.1064481158    1.4585247349
 C   -0.0091383494   -1.1071676737    2.3864484780
 C    0.7931487890   -2.0331392596    1.5091186611
 O    0.0635910122   -2.9098127196    0.7063450438
 H    0.7076929634    1.9798616047   -0.0120316163
 H   -0.8007202631    1.7437384544   -0.9050743407
 H   -0.8152320935    1.7070112080    0.8683752044
 H   -0.9478188032   -0.6114226440   -0.0520952244
 H    1.7792737932    0.9378804236    1.9041634641
 H    0.3740752227   -0.9024979784    3.3796389478
 H   -1.0891660677   -1.1650505573    2.3043359859
 H    1.7260141086   -2.4167494712    1.9193675195
 H    0.5689397004   -3.0671136628   -0.1004882750