18

 C    0.0083627300    1.5087883483    0.1871490109
 C   -0.0387705057   -0.0148133138    0.0661456451
 C   -1.4703765758   -0.5463244049   -0.0435471805
 O   -2.1158119235   -0.0712031173   -1.2084201561
 O    0.5975519460   -0.4863038623   -1.1250711863
 C    2.0106509313   -0.4185738536   -1.1227638282
 C    2.5343757523   -1.0799297993   -2.3112715837
 C    2.9897939709   -1.6159076797   -3.2844431781
 H    1.0333516028    1.8894836976    0.1891111519
 H   -0.5392828237    1.9628435054   -0.6419450085
 H   -0.4608105517    1.8229728067    1.1250218450
 H    0.4446970244   -0.4782114723    0.9426155055
 H   -1.4396097101   -1.6462709116   -0.0223614737
 H   -2.0617619661   -0.2055347715    0.8125961845
 H   -1.5311061891   -0.2956833694   -1.9423772205
 H    2.3627198676    0.6243945862   -1.1040123281
 H    2.4137240710   -0.9063749145   -0.2190828018
 H    3.3886838895   -2.0924108241   -4.1456602074