22

 C    0.7930809523    1.2684934741   -0.6373303209
 C    0.0143375875    0.0447166975   -0.1383949469
 C    0.6868087354   -0.6074372917    1.0528152808
 C    0.6403310343   -2.0287162987    1.4554715371
 N    1.9543601049   -1.3732861691    1.0118403230
 C    1.9150998588   -2.2330116126   -0.2247692493
 C    0.6766390270   -3.0220098749    0.2983120934
 C    1.0161310447   -4.4380946023    0.7518014236
 O   -0.5077196659   -3.0138606480   -0.4834165379
 H    1.7919726300    0.9881465613   -0.9874890914
 H    0.2697184248    1.7571473287   -1.4648064004
 H    0.9232878391    2.0083465691    0.1601378306
 H   -0.9887399578    0.3521020132    0.1834470885
 H   -0.1444574517   -0.6730758202   -0.9443825575
 H    0.7238611413    0.0587354259    1.9160083734
 H    0.4759936174   -2.3262984107    2.4880155664
 H    1.7748060412   -1.6839972435   -1.1591593295
 H    2.8288164657   -2.8282562015   -0.2915501002
 H    1.8932934744   -4.4451636934    1.4047629934
 H    0.1717003238   -4.8738589162    1.2953875036
 H    1.2380559433   -5.0771920183   -0.1123392153
 H   -0.4564342703   -3.7412206685   -1.1132190845