16

 N   -0.0280308330    1.4043063046    0.1120565893
 C   -0.0085614289    0.0156055145    0.0418130287
 C   -1.1766302963   -0.6913061663   -0.0141199049
 N   -2.4265840821   -0.0413583943   -0.0638376107
 C   -1.1693799494   -2.1348265071   -0.0825950600
 N   -2.2437684884   -2.8203213820   -0.1641859693
 O    0.0723047683   -2.7596527663   -0.0774809207
 C    1.2157866360   -2.0446476829    0.0166735711
 C    1.2376791272   -0.7048450611    0.0790217567
 H    0.8183686139    1.8537950367   -0.2078795961
 H   -0.8528111300    1.8009918495   -0.3245430627
 H   -2.5883298958    0.5422466427    0.7514251810
 H   -3.1577319567   -0.7444709979   -0.1229179897
 H   -2.0439589266   -3.8169905160   -0.2177817517
 H    2.0872997257   -2.6855849257    0.0364922275
 H    2.1831061660   -0.1822598184    0.1550576414