23

 C    0.1578555694    1.4457375738   -0.2703147590
 C   -0.0843257756   -0.0323550651    0.0688878209
 C    0.6374416489   -0.4897935791    1.2962043556
 C    2.0994355920   -0.7747291416    1.5879701301
 C    2.1051244192    0.1552560115    2.7970959342
 C    0.5675293461   -0.0554759994    2.8280601629
 C    0.4036509507   -1.5543678294    3.1921048591
 C    1.0222286672   -1.8559055376    1.8269027490
 C    1.0484553675   -3.1734831853    1.1098649400
 H    1.2219445487    1.6389118664   -0.4402861222
 H   -0.3888950093    1.7389935254   -1.1720672446
 H   -0.1723009440    2.0959182861    0.5467000153
 H   -1.1633808640   -0.2044636931    0.1869155421
 H    0.2285165424   -0.6569927812   -0.7783668743
 H    2.8926118495   -0.9473788998    0.8695471786
 H    2.6693431972   -0.1361364778    3.6917079429
 H    2.3723787286    1.1776313943    2.5141134251
 H   -0.0923212839    0.6977949829    3.2554353497
 H    0.9093893240   -1.9116009669    4.0985894678
 H   -0.6483299613   -1.8568006048    3.2200017025
 H    0.0489915880   -3.6209990187    1.0557523158
 H    1.4174344705   -3.0634918291    0.0841220359
 H    1.7048944881   -3.8905236314    1.6177329825