19

 C   -0.2419855557    1.4681334966    0.0703378276
 N    0.1057289177    0.0520119612   -0.0399683268
 C    0.7574301862   -0.5035512469    1.1383503513
 C   -0.1437446571   -0.5182654952    2.3161021122
 N   -0.9187366021   -0.4892523555    3.1738069713
 C    1.3132446233   -1.9292855596    0.8411725316
 C    2.3223391113   -1.8950877770   -0.3221926828
 C    1.9089516961   -2.5105143322    2.0409045537
 C    2.4291065638   -2.9721425972    3.0206552962
 H    0.6752818801    2.0585541670    0.1674015568
 H   -0.7448818999    1.7806835463   -0.8482969087
 H   -0.8947015300    1.7043901370    0.9247896065
 H   -0.7282283912   -0.4898974143   -0.2460729621
 H    1.6092267309    0.1415515443    1.3861355294
 H    0.4558828513   -2.5498636301    0.5446516379
 H    1.8653097629   -1.4416191136   -1.2026639883
 H    3.2049795678   -1.3108082295   -0.0447807238
 H    2.6505720884   -2.9090009090   -0.5621056172
 H    2.8687602262   -3.3862480924    3.8942672151