13

 C    0.4102996914    1.1771493605    0.5828838618
 C   -0.3362690523    0.3487928612   -0.4664249516
 C    0.5693979543   -0.3516002958   -1.4268581564
 C    1.9231588800   -0.3911713476   -1.5426868865
 O    2.2573197889   -1.1658698173   -2.5746711692
 N    1.0284971950   -1.6339789249   -3.1299512137
 N    0.0900580945   -1.1503996028   -2.4496763691
 H    1.0713083668    0.5493548423    1.1893893936
 H    1.0199752934    1.9569175862    0.1147341063
 H   -0.2956843525    1.6670077164    1.2582126623
 H   -0.9713319478   -0.3971526131    0.0267926321
 H   -1.0218930885    0.9907151509   -1.0328740914
 H    2.7292147168    0.0604220840   -0.9892980483