18

 O   -0.0573577834    1.6097228021    0.0182594897
 C    0.1267040213    0.2017323665    0.1151385968
 C   -1.2540324039   -0.4440907601   -0.0037330165
 C   -2.1583428847   -0.0265192034    1.1837737181
 C   -3.4814082370   -0.6316873619    1.1459494825
 C   -4.5700789419   -1.1384621037    1.1062554872
 N   -1.8533871719   -0.0959950381   -1.2793130014
 C   -2.1793819923   -1.0150644390   -2.2273577451
 O   -2.0382996429   -2.2148630032   -2.1221438777
 H    0.8047602303    2.0343394003    0.0076515932
 H    0.7667418740   -0.1735309643   -0.6953173078
 H    0.5872638260   -0.0771966588    1.0751143381
 H   -1.1415664148   -1.5307184033   -0.0114106522
 H   -1.6507334424   -0.3039663539    2.1165080619
 H   -2.2401770972    1.0664396277    1.1949508991
 H   -5.5301388698   -1.5904203126    1.0714900705
 H   -1.9340377577    0.8846344443   -1.4990176435
 H   -2.5997427815   -0.5337757388   -3.1326244828