16

 O    0.2399394883    1.1668722233   -1.6658543338
 C    0.1189159194    1.4744873948   -0.5065711133
 C   -1.2075376209    2.0445255921    0.0154733268
 O   -1.2104117322    2.3440815751    1.3908603913
 C   -0.6142292844    3.5834114705    1.7188895166
 C    0.8739997230    3.6524913472    1.5162315692
 C    1.6667524888    2.6973504582    1.0310620250
 C    1.2317341681    1.3344935036    0.5275016067
 H   -1.4782913355    2.9170267765   -0.5993040871
 H   -1.9753302700    1.2804894914   -0.1499833261
 H   -1.1005397338    4.4009641175    1.1550197827
 H   -0.8507175823    3.7551803526    2.7766028537
 H    1.3186399988    4.5995800944    1.8173655586
 H    2.7283148542    2.9096513587    0.9423134697
 H    0.8609896042    0.7200603675    1.3564547620
 H    2.0639124247    0.8128782864    0.0521927579