16

 C   -0.0773061718    1.4555341454   -0.0353984470
 C   -0.0000704042    0.0036777310   -0.0202323657
 C    0.0828645170   -1.2008822743   -0.0112692514
 C    0.1035199638   -2.6123512031    0.0135047827
 C    1.1355913434   -3.4453622570   -0.1620866263
 C    0.6752379882   -4.8668685684   -0.0474172395
 O   -0.7238097374   -4.7921320464    0.2120775866
 C   -1.1457042595   -3.4362257901    0.2631737623
 H    0.5702746145    1.8956528708    0.7314105385
 H    0.2367097075    1.8597492767   -1.0044612798
 H   -1.0993170842    1.8014093987    0.1538109750
 H    2.1603733761   -3.1605644451   -0.3589885891
 H    0.8555653661   -5.4424736748   -0.9701049091
 H    1.1801859941   -5.4072439529    0.7700227253
 H   -1.5912794752   -3.2122513940    1.2441454577
 H   -1.9163629083   -3.2476754564   -0.4994185301