20

 C   -0.6915757711    1.2767540903    0.0673933565
 C   -0.1580399104   -0.1485651916    0.0656297639
 C    1.0729497787   -0.4461195273   -0.8171738312
 O    1.8807115382   -0.7837480974    0.3304341064
 C    0.7661162649   -0.6198744041    1.2376695106
 C    1.0673351898    0.3103563873    2.3845018114
 C    1.9645947597    1.5014747315    2.2020315337
 N    0.5101673924   -0.0158264152    3.4897100759
 O    0.7819041550    0.9123237034    4.5031118136
 H    0.1131498207    2.0132422325    0.1480639227
 H   -1.2361716058    1.4818189177   -0.8605658136
 H   -1.3818335315    1.4376663145    0.9018044136
 H   -0.9819028263   -0.8486871514   -0.0936938476
 H    0.9719508193   -1.2926625483   -1.5074033029
 H    1.4826619646    0.4122022446   -1.3652739075
 H    0.4454310732   -1.5788313950    1.6592783973
 H    2.7030722915    1.5342325935    3.0080521569
 H    2.4794966477    1.4471178790    1.2428952370
 H    1.3944072807    2.4348840157    2.2636390390
 H    0.3440979788    0.5161324003    5.2640661843