21

 C   -0.0639158676    1.5749102826    0.0347102757
 C   -0.1600962391    0.0532443042   -0.0933239407
 C    0.7669459271   -0.5162110403   -1.1820893702
 C    0.7221099234   -2.0098415512   -1.2671287537
 C    0.2610821868   -2.8018843685   -2.2892154049
 N    0.4231574871   -4.1067434439   -1.8695342135
 C    0.0851283844   -5.3050936630   -2.6076118760
 C    0.9697265725   -4.0401222063   -0.6229359933
 N    1.1635361196   -2.8036444244   -0.2274373714
 H    0.9549394299    1.8869413005    0.2908753361
 H   -0.3336751509    2.0725497122   -0.9041162454
 H   -0.7327527412    1.9528068372    0.8145434084
 H    0.0937068201   -0.4231620569    0.8598332182
 H   -1.1939583433   -0.2384670647   -0.3173311275
 H    0.5013551822   -0.0874667491   -2.1562707015
 H    1.7963602149   -0.1986020875   -0.9696483518
 H   -0.1550641176   -2.5683539145   -3.2559826941
 H    0.6452075534   -5.3595135596   -3.5465487104
 H    0.3379879800   -6.1776199431   -2.0019729155
 H   -0.9851974456   -5.3381484773   -2.8348181825
 H    1.2037958741   -4.9330058362   -0.0604215360