21

 C   -0.0776925656    1.5766843295   -0.1228818406
 C    0.0285911512    0.0487805132   -0.0420883380
 C    0.7601119321   -0.5133534161   -1.2628312680
 O    0.0292485937   -0.1573448678   -2.4266663162
 C    0.7238125451   -0.4361384607    1.2413466639
 C   -0.0819941645   -0.1417326394    2.5211041113
 O   -1.3549296383   -0.7268884618    2.4743136184
 C    0.6767559540   -0.6312700826    3.7358197389
 O    0.2000339882   -1.4272655253    4.5089283424
 H    0.9115110167    2.0451563458   -0.0400551069
 H   -0.5089595993    1.8701194366   -1.0820117692
 H   -0.7114939766    1.9836015219    0.6703079671
 H   -0.9822423314   -0.3750074265   -0.0518207807
 H    1.7864368306   -0.1084047148   -1.2988422707
 H    0.8427260304   -1.6081863040   -1.1694132562
 H    0.5150001430   -0.4681126706   -3.1957152002
 H    0.8785887674   -1.5214379078    1.1867003161
 H    1.7154199534    0.0303016811    1.3287899150
 H   -0.1692835411    0.9540667364    2.6368563838
 H   -1.4068440692   -1.3022423502    3.2539349780
 H    1.6985421701   -0.2221226468    3.8759239216