16

 O    1.3592285774    1.6830578262   -0.5088593746
 C    0.5047015085    0.6815457869    0.0338523653
 C    0.2382240269   -0.3878358790   -0.9316640203
 C    0.0772984723   -1.2722524808   -1.7292852377
 C    1.0745171797    0.1153560977    1.3285894705
 C    1.0289538078    0.9336286753    2.5783010408
 C    0.1579394044   -0.3104054932    2.4694833331
 C   -1.2669834514   -0.1675396585    2.3556133589
 N   -2.4149077337   -0.0498973609    2.2693775044
 H    2.0817159454    1.2371642488   -0.9645916955
 H   -0.4340327761    1.2005607134    0.2613746585
 H   -0.0947555751   -2.0459678060   -2.4367054120
 H    1.9382084304   -0.5276488580    1.1866725482
 H    1.8646824043    0.8923091494    3.2666212880
 H    0.5236838382    1.8915903628    2.5325754557
 H    0.4648957510   -1.1833427842    3.0350423967