16

 O   -0.2937997567    1.3754688029   -0.6456719163
 C   -0.6219393129    0.0240714917   -0.7818372056
 C   -1.0793773877   -0.5711879081    0.5355740856
 O   -1.1811167800    0.1326724664    1.5179692569
 C   -1.3717283718   -2.0708042966    0.5889336706
 C   -2.3187808256   -2.4804464253    1.7431468229
 O   -3.4408094852   -3.0940702462    1.0580999649
 C   -3.1366481467   -3.0500122690   -0.2535540082
 N   -2.0421964439   -2.5361070360   -0.6413453520
 H   -0.4956219308    1.5997677073    0.2757157943
 H   -1.4289411822   -0.1352202874   -1.5137100143
 H    0.2337373178   -0.5631784312   -1.1524457955
 H   -0.3919103294   -2.5615405866    0.6686486980
 H   -1.8899759180   -3.2204563049    2.4214261987
 H   -2.6733178312   -1.6204898757    2.3143446852
 H   -3.8892584555   -3.4787828113   -0.9057965954