18

 C   -0.0928869795    1.5973818463    0.0893604648
 C    0.0200101652    0.0585866667    0.0049603270
 C    0.7133754451   -0.4372129549   -1.2872410156
 C   -0.0579249141   -0.1064267865   -2.5614463996
 O    0.6171397318   -0.7491910035   -3.6289844223
 C    0.7175332719   -0.4614556049    1.1749689175
 C    1.3080222261   -0.8835167464    2.1417379344
 C    1.9717080847   -1.3595631540    3.2354327433
 N    2.5361953963   -1.7638646438    4.1671145078
 H    0.8961350418    2.0598334841    0.0217749129
 H   -0.7117218885    1.9814342891   -0.7252184257
 H   -0.5482075008    1.9013874499    1.0349152600
 H   -0.9973458507   -0.3592610488    0.0252789123
 H    1.7203013616   -0.0109144266   -1.3508056732
 H    0.8314723761   -1.5241895255   -1.2397696333
 H   -1.0973589902   -0.4651521631   -2.4690806861
 H   -0.1001711885    0.9817606657   -2.7182939474
 H    0.1824423116   -0.5081557638   -4.4521788469