17

 C   -0.0652735623    1.5056142222    0.0105182692
 C    0.0765753398   -0.0078100728    0.0021586510
 O    1.1586425314   -0.5469088346   -0.0116910532
 C   -1.2243305816   -0.8037912753    0.0100131008
 C   -1.0193889055   -2.3166932831   -0.0004783925
 C   -2.3356070312   -3.0817430421    0.0078670884
 O   -2.0330866100   -4.4672735067   -0.0029069712
 H    0.9214410275    1.9698696228    0.0038479106
 H   -0.6364106368    1.8408020441   -0.8626051600
 H   -0.6207894291    1.8326289747    0.8967040231
 H   -1.8054758431   -0.4870392434    0.8886394307
 H   -1.8221419120   -0.4771991085   -0.8537079256
 H   -0.4402948466   -2.6080398766   -0.8822521931
 H   -0.4234698276   -2.6178781705    0.8666541041
 H   -2.9217288099   -2.8077359526    0.9017180054
 H   -2.9388161065   -2.7976856497   -0.8713624965
 H   -2.8602820266   -4.9574298079    0.0026526187