23

 O   -0.2342092782    1.5254511623    0.0405597036
 C   -0.0484816252    0.1096849053   -0.0334641984
 C    0.6855135948   -0.2954478441   -1.2946121301
 C    0.3148259987   -1.5652853636   -2.0205385357
 C   -0.0105570282   -0.2243503294   -2.6283826148
 C    0.6257087673   -0.4392109997    1.2251329277
 C    1.9897487557    0.1560954620    1.6873622309
 C    1.4875127445    0.0612556058    3.1531210261
 C    0.0379571864   -0.0535302095    2.6105199714
 H    0.5922829590    1.9435004935   -0.2207080756
 H   -1.0690410618   -0.2958418087   -0.0783263728
 H    1.7454842092   -0.0451803549   -1.2885584049
 H    1.1093670222   -2.1560908437   -2.4625456831
 H   -0.5050537569   -2.1545122651   -1.6225331864
 H   -1.0470611382    0.0956961158   -2.6320070123
 H    0.5579920993    0.1011644035   -3.4925005147
 H    0.7049808285   -1.5279621646    1.1285450636
 H    2.9025681375   -0.3824532106    1.4210179229
 H    2.0967185759    1.2007512740    1.3765219079
 H    1.8177541521   -0.8650065071    3.6324516907
 H    1.7154208486    0.8959967241    3.8202909641
 H   -0.4502776923    0.9226873710    2.5542330214
 H   -0.6360910889   -0.7649233363    3.0943833085