16

 O   -0.1938108774    1.4440517193   -0.0158704000
 C   -0.0280127666    0.0505390340   -0.0522719762
 C   -1.3716414255   -0.6435725600    0.0156687720
 O   -2.0767857923   -0.6515505167   -1.2282695270
 C   -1.3529291111   -1.8256688547   -0.8500966457
 C   -0.0100739344   -1.9384075131   -1.5451052590
 C    0.6234210687   -0.5248748451   -1.3642916803
 C    0.4010535780    0.3478836004   -2.5157471723
 N    0.2974993431    1.0317724344   -3.4413812198
 H    0.6603714727    1.8719172029   -0.1356541030
 H    0.5765569982   -0.3013179201    0.8007182901
 H   -1.9813873272   -0.5549348739    0.9101603733
 H   -1.9517855918   -2.7107844003   -0.6534331660
 H    0.6056020921   -2.6926297054   -1.0434571663
 H   -0.0960467906   -2.2206405083   -2.5970604837
 H    1.7074376643   -0.6067377432   -1.2384796861