19

 C    0.0137699591    1.4600091156   -0.1954699206
 C    0.0100752111   -0.0147103088    0.0420544528
 O    0.6711635395   -0.8744144285   -1.0201130421
 C    0.1921419644   -1.7904718343   -0.0094498014
 C    0.1027170789   -3.2450007431    0.3802036747
 C   -0.6705940755   -2.9648611917    1.7362972670
 C   -0.8109687578   -1.4028164944    1.7458284509
 C    0.5424078196   -0.8923610241    1.2068189725
 C   -1.1333531494   -1.0373174519    0.2811792520
 H    1.0381438131    1.8380646039   -0.2660456725
 H   -0.5089608861    1.7033223009   -1.1254161014
 H   -0.4900623820    1.9705435391    0.6314982381
 H   -0.4779670057   -3.8553624072   -0.3161472289
 H    1.0733432551   -3.7211772531    0.5407683619
 H   -1.6468389371   -3.4584266742    1.7495387463
 H   -0.1054419057   -3.3250999421    2.6009747802
 H   -1.3214707941   -0.9582319446    2.6004098460
 H    1.5195677047   -0.8402401840    1.6876684312
 H   -2.0566601620   -1.1496419576   -0.2877315967