20

 C    0.0009698677    1.4688405929   -0.2911344447
 C    0.1020380524   -0.0241870476   -0.0763530506
 C    1.4334488451   -0.7141429393   -0.0058520166
 C    0.5733039032   -0.5883785625    1.2427878596
 C    0.9716385529    0.2304469910    2.4609966858
 C    1.0609352255   -0.8559431346    3.5435188764
 O    0.1583549893   -1.8974120066    3.1306022753
 C   -0.0646558886   -1.8241124150    1.7841218527
 N   -0.7155069018   -2.6757050710    1.1135629258
 H    0.8286018697    2.0045692931    0.1849525843
 H    0.0258618853    1.7070153388   -1.3598591007
 H   -0.9342682251    1.8688908895    0.1156427770
 H   -0.6914525330   -0.6138674883   -0.5273319158
 H    1.5243095779   -1.7032427118   -0.4399204246
 H    2.3302658754   -0.1025017676   -0.0462243361
 H    1.9138476514    0.7700938804    2.3452436565
 H    0.1938076283    0.9591508415    2.7157187038
 H    2.0722530409   -1.2752003388    3.6139729943
 H    0.7504866438   -0.5206916451    4.5354504090
 H   -1.0275462803   -3.4446594591    1.7070148987