20

 C   -0.0310263833    1.5658788648   -0.1407052407
 C    1.5380522068    1.5921992593   -0.1568070023
 C    1.5333922816    0.0780136882    0.1165486524
 C    2.3117523815   -0.7268849325    1.1211817462
 O    1.4847208178   -1.7206784327    1.7172223504
 C    0.2670369385   -1.2152712735    2.2420760720
 C   -0.7243171874   -0.7891336643    1.1375156539
 C    0.0298989668    0.0529179083    0.1365290600
 N    0.7829485582   -0.6447361808   -0.9053636355
 H   -0.4413242234    2.1425605767    0.6924837531
 H   -0.5536595245    1.8631263487   -1.0567895523
 H    2.0294157655    1.9077380592   -1.0834351151
 H    1.9475457995    2.1805684938    0.6684855165
 H    3.1519667611   -1.2695346561    0.6769806586
 H    2.7090026699   -0.0475321277    1.8955960482
 H   -0.1510077486   -2.0195312985    2.8540558959
 H    0.4716016043   -0.3564229837    2.9047099942
 H   -1.1399819355   -1.6751862765    0.6495967003
 H   -1.5536475703   -0.2303610678    1.5855037603
 H    0.7694166512   -0.1503418349   -1.7958353061