21

 C   -0.0230167948    1.5285992541    0.0596679286
 C   -0.0000469349    0.0259972492    0.0863346652
 C    1.2064782011   -0.7865256121   -0.3154833749
 C    0.6508035084   -0.9619218053    1.0715530827
 C    1.3944932337   -0.7801617126    2.3699219339
 O    1.7717231524   -2.0300082351    2.9288026454
 C   -0.5747580846   -1.8868945471    0.9717760044
 O   -1.2426929860   -2.1279005001    2.2002281418
 C   -1.2495245255   -0.8687774359    0.0005111464
 H    0.9534954344    1.9479230878    0.3232685560
 H   -0.2802138615    1.9003555036   -0.9398932861
 H   -0.7621752182    1.9348860670    0.7602414198
 H    1.1234218433   -1.5849013086   -1.0517018373
 H    2.1394415937   -0.2322382541   -0.3715183441
 H    2.3166909461   -0.2098703192    2.2184762104
 H    0.7795744921   -0.2081463823    3.0851120436
 H    0.9460573012   -2.4978921171    3.1054170591
 H   -0.3734971031   -2.8809802537    0.5611327345
 H   -1.5401798077   -1.2818444962    2.5534327949
 H   -2.1274925003   -0.4162536608    0.4748880242
 H   -1.5411660097   -1.2278531515   -0.9927501287