21

 C    0.2267117875    1.5981073914   -0.0244954112
 C    0.1953059655    0.0691000590    0.0365514431
 C    0.4946970247   -0.5771486977   -1.3236912178
 O    1.7636978121   -0.1577776488   -1.8324365216
 C    2.7424929299   -1.1006680180   -1.4079319558
 C    2.0509997802   -2.4689203224   -1.4853494793
 C    0.5774500971   -2.1109590560   -1.2944622988
 C   -0.4079152039   -2.9822469987   -0.6453395181
 O   -0.3765571474   -2.8422882518   -2.0685617612
 H    1.1976209240    1.9472397673   -0.3845541340
 H   -0.5385888192    1.9798914110   -0.7095653452
 H    0.0433850651    2.0371592883    0.9606661930
 H    0.9178470745   -0.2929840080    0.7794006422
 H   -0.7898828236   -0.2729939614    0.3754782385
 H   -0.2604246598   -0.2656861963   -2.0539121631
 H    3.6037496507   -1.0054834781   -2.0735103149
 H    3.0800044169   -0.8851044908   -0.3822000986
 H    2.1702390851   -2.9163138295   -2.4762158292
 H    2.4212001715   -3.1790700835   -0.7419773111
 H   -0.0948152480   -3.9533225237   -0.2616568977
 H   -1.2825885429   -2.5584906525   -0.1532913993