16

 O    0.0463173668   -0.0370369526    0.0374570654
 C    0.0031225060    1.1707325918    0.0032350845
 C   -1.2931024028    1.9739483617    0.0223870399
 C   -1.3408791636    3.0109942664   -1.1015873928
 N   -1.0601724148    4.4109713081   -0.7471400506
 C   -0.0738653458    3.6557459167   -1.5373041965
 C    1.2069262730    3.2674545322   -0.8471475819
 O    1.2071054299    3.2677134760    0.5657997801
 C    1.2608710730    1.9907520415   -0.0844666356
 H   -2.1240119402    1.2693239261   -0.0437746363
 H   -1.3497637312    2.4995447452    0.9816181110
 H   -2.0878797718    2.8271957681   -1.8693262255
 H   -1.5805583677    5.0397406345   -1.3535297279
 H    0.0458010796    3.8992544309   -2.5902032268
 H    2.1313335506    3.6247221557   -1.3007008409
 H    2.1926689590    1.4378946076    0.0085124737