14

 O    0.1696513022    0.3612071721    1.0835617311
 C    0.3941692201    0.9589781727    0.0618621067
 C    1.5308294226    1.9288804495   -0.0869657727
 C    1.8466699879    2.7655791532    1.1466847018
 N    2.7154823530    1.7177970932    0.7140824114
 C    3.0817200719    0.5514911203    1.3538141939
 O    3.1017458429   -0.5425276740    0.8393743669
 C    3.6065685151    0.7338226394    2.7829234521
 O    3.5691470362    1.7637732915    3.4001168833
 H   -0.2485007118    0.8465653481   -0.8353702098
 H    1.6895904365    2.3487447891   -1.0762669866
 H    2.2135530239    3.7788846150    1.0142580051
 H    1.2231292889    2.5840548417    2.0166765433
 H    4.0083111707   -0.2154054019    3.1909318737