10

 O    0.0020073939    0.0042403394    0.0029592952
 C   -0.0141127915    1.1919583042    0.0096439492
 O   -1.1208262813    1.9547149316   -0.1943525774
 C   -0.8113496750    3.3303100199    0.0380181278
 C    0.7247933472    3.3513425229    0.0054586899
 O    1.0715239070    1.9821249774    0.2223804022
 H   -1.2719810591    3.9352545165   -0.7448456034
 H   -1.2155230415    3.6282173973    1.0112034165
 H    1.1205842942    3.6710428523   -0.9642504143
 H    1.1689569157    3.9597163283    0.7951515270