18

 O   -0.4752494034    0.0929366218    0.0213135235
 C   -0.2314778350    1.2709223318    0.0265137881
 N   -1.0175208787    2.3949254827    0.0491263624
 C    0.0902911298    3.3553371745    0.0375414916
 C    1.0606703892    2.1270034331    0.0109776723
 C    2.0075673747    1.9597089415    1.2255343711
 C    3.3809598881    2.1750537028    0.6368662241
 C    3.3579672871    2.1855859880   -0.6938522206
 C    1.9649848889    1.9793318689   -1.2380795167
 H   -2.0193801006    2.5136489140    0.0673085563
 H    0.1215450234    3.9914631105   -0.8532296939
 H    0.1525540107    3.9772883104    0.9366562436
 H    1.7670351988    2.6565555514    2.0369505509
 H    1.9169485058    0.9485942403    1.6464087428
 H    4.2691841485    2.2630827659    1.2523659753
 H    4.2244189748    2.2835801536   -1.3382023064
 H    1.8595600988    0.9750467585   -1.6716566821
 H    1.6967817790    2.6889852602   -2.0294811122