16

 C   -0.1237077437    1.4651818561    0.0057083981
 O    0.1051994059    0.0521430928    0.0559426944
 C    0.6697510434   -0.5114990570   -1.0771738783
 C    0.4713491414   -2.0489850500   -1.1399222265
 O   -0.2335962068   -1.9246388496   -2.4126623864
 C   -0.1706668283   -0.5515855457   -2.3683445493
 N   -0.6471488739    0.3244319946   -3.1255011883
 C    2.1172501386   -0.1087308286   -1.3523196349
 O    2.7514103156    0.6478544234   -0.6696834394
 H    0.8193769007    2.0172402458   -0.0112751240
 H   -0.7288859563    1.7326429006   -0.8665501639
 H   -0.6715580847    1.7059305371    0.9184818904
 H    1.3618734517   -2.6725385723   -1.2421348760
 H   -0.1843157322   -2.4124666160   -0.3474429800
 H   -1.1931729984   -0.0860844247   -3.8858892455
 H    2.5529135471   -0.5977543263   -2.2535526004