16

 O   -0.1322249636    0.7319677313   -1.0657123318
 C    0.0140886315    1.3098030989   -0.0104479110
 N    1.1766957412    1.3688844242    0.6965543367
 C    2.4167601118    0.7863994985    0.2224160770
 C    3.4619152985    1.8681369223   -0.0237064361
 O    3.7813294485    2.6113666362    1.1836994396
 C    5.1811507234    2.2576082967    1.1580807113
 C    4.9343843451    1.4298454352   -0.1096111973
 O    5.5817141335    0.7365595340   -0.8296996932
 H   -0.8033663865    1.8529109657    0.5025221190
 H    1.2121525830    1.9261478879    1.5359145132
 H    2.7976735387    0.0623802223    0.9524533685
 H    2.1937935053    0.2584027318   -0.7076321416
 H    3.1410200573    2.5380102651   -0.8322629359
 H    5.8396716337    3.1252529994    1.0267936777
 H    5.4988289685    1.6896030307    2.0412016740