20

 O   -0.4132534997    1.2827988389    0.8513505842
 C   -0.1287332470    0.1996466241   -0.0201748842
 C    0.8440748340   -0.7925696043    0.6143678170
 O    0.0301738523   -1.5376289779    1.5194461896
 C   -1.2784798480   -1.7061290324    0.9389789446
 C   -1.3491394507   -0.7113816541   -0.2476390432
 C   -1.5050028803   -3.1470565319    0.5465305334
 C   -2.0668041034   -4.1084669002    1.5217890313
 N   -2.8786947983   -3.6505407594    0.3778462309
 H   -0.5316742949    0.9136327246    1.7344353483
 H    0.2468806555    0.6418363328   -0.9461048855
 H    1.3044218863   -1.4440914150   -0.1446073770
 H    1.6348959483   -0.3043203467    1.1897080014
 H   -2.0075953034   -1.4446951160    1.7195152480
 H   -2.2754501956   -0.1352250898   -0.2680978492
 H   -1.2554920254   -1.2445945211   -1.1993520625
 H   -0.8115529477   -3.5187204474   -0.2068172444
 H   -1.7768764647   -5.1543377241    1.4855418321
 H   -2.3080511991   -3.7390847306    2.5155071489
 H   -3.5446891582   -2.9467477294    0.6915765764