18

 O    0.2510939787    1.0990199234    0.6236371093
 C   -0.0497722449   -0.0088817164   -0.2140678104
 C   -1.4682519481   -0.4857723897   -0.0390001043
 C   -1.9879221535   -0.9793153396    1.2962531622
 C   -3.3601786426   -1.4318932464    0.8495245487
 C   -3.8756005745   -0.5541678916   -0.2863077137
 C   -3.2770707401   -1.9025091365   -0.5784867673
 N   -2.0200499261   -1.2974540124   -1.1718928743
 C   -2.5894958221    0.0559721006   -0.8621090268
 H   -0.3471330345    1.8140503863    0.3825574934
 H    0.1321448945    0.2132200938   -1.2753800841
 H    0.6481293381   -0.8005103496    0.0777385924
 H   -1.3825051424   -1.8037489683    1.6893102042
 H   -2.0091371210   -0.1780649434    2.0408135649
 H   -4.0745190828   -1.8911706558    1.5210830268
 H   -4.8871190364   -0.1879138623   -0.3846995632
 H   -3.6850986874   -2.8158725487   -0.9890452513
 H   -2.5170609149    0.8734305567   -1.5718687463