17

 C   -0.0194006637    1.5349680466    0.1346450414
 C    0.0087450783    0.0554543176   -0.0668485513
 C   -0.0020857716   -0.7487954124   -1.1878949222
 C   -0.0393404983   -0.8073421387   -2.6433919176
 C   -0.0194211251   -2.1002918672   -3.0268120249
 C    0.0343413136   -3.0522448084   -1.8365827652
 C    0.0419295788   -2.0757642272   -0.6948884851
 N    0.0781488210   -2.1395510038    0.6221693774
 N    0.0573212200   -0.8263251947    0.9831773959
 H    0.8777958177    1.8949845268    0.6522009403
 H   -0.0709995539    2.0426736310   -0.8306608411
 H   -0.8884226284    1.8512774920    0.7237489773
 H   -0.0768944394    0.0442847481   -3.3110116964
 H   -0.0383940238   -2.4529259410   -4.0502423785
 H   -0.8284935428   -3.7301067773   -1.8157336705
 H    0.9276180757   -3.6892743314   -1.8623385262
 H    0.0780289621   -0.5980473602    1.9627537567