18

 C    0.0329344598    1.5118504844    0.0699742515
 C   -0.0665774717    0.0168487547    0.0049840420
 C   -1.2018083015   -0.6820460058    0.1184536936
 C   -1.2055843748   -2.1883718960    0.1111995930
 O   -2.4279695072   -2.7291105449   -0.3772419771
 C   -0.0015870195   -2.7224742189   -0.6829756541
 C    1.3089958498   -1.9921660904   -0.4224828327
 O    2.4028364944   -2.5107209986   -0.4914827896
 N    1.1611149540   -0.6429152377   -0.1702066778
 H    0.6771051201    1.8278917413    0.9002160153
 H    0.4684948534    1.9186105073   -0.8506542772
 H   -0.9515136934    1.9588005867    0.2155845308
 H   -2.1448702782   -0.1724959674    0.2764812942
 H   -1.1497047864   -2.5620908470    1.1438387781
 H   -2.5807894103   -2.3494292083   -1.2502890531
 H    0.1557104025   -3.7885400135   -0.5160090575
 H   -0.2140372292   -2.5871271212   -1.7540848343
 H    2.0232687180   -0.1262688847   -0.0749818150