15

 N   -0.1488054184   -1.1282944269   -0.0986615523
 C   -0.0805613015    0.0249740901   -0.0268307032
 C    0.0510203120    1.4346757939    0.0846613487
 C   -0.7027124918    2.4735329450    0.8440205311
 C    0.5321564623    3.3650431976    1.0846119850
 C    0.4406147278    4.4760796948    0.0095563477
 C    0.4446606695    3.2931450582   -0.9703798696
 C    1.2511026793    2.4200255283    0.0368492846
 N   -0.7896413963    2.4474469886   -0.6477087347
 H   -1.6209111499    2.3753175183    1.4081836789
 H    0.8814905575    3.5256110615    2.1015027933
 H   -0.4205079304    5.1491964614    0.0144938967
 H    1.3707893694    5.0478392485   -0.0589904742
 H    0.6290470670    3.3766562823   -2.0390428908
 H    2.3133630636    2.1985897583    0.0178552288