14

 O    0.0082850222    1.3116079067   -0.0443376064
 C    0.0063958196   -0.0519078224    0.0588753712
 C    1.1655957377   -0.9765475503   -0.4660989522
 C   -0.2322762189   -1.0524251782   -1.0130008942
 N   -0.5624992764   -2.0849714426    0.0695745207
 C    0.9473198426   -2.1921252153    0.4316271722
 C    0.5994402508   -1.6469244384    1.8275485888
 O    0.9962379343   -1.7979581499    2.9426807418
 C   -0.5932526117   -0.9639031240    1.1435389775
 H    0.7200126515    1.6728197776    0.4970784934
 H    2.0671703523   -0.5620772844   -0.8979664097
 H   -0.6600576820   -1.0166760560   -2.0057952189
 H    1.4733851841   -3.1315293676    0.2711805121
 H   -1.5301122260   -0.7139825653    1.6365200138