18

 C   -0.3978600196    0.9585166202    1.3484711215
 O    0.0879737311   -0.3840328982    1.4998814597
 C    0.8369317015   -0.8426659150    0.4892735295
 O    1.0984131924   -0.2156451546   -0.5060500041
 C    1.2887110693   -2.2935049261    0.7148330557
 C    2.6943505416   -2.5179086544    0.1716847870
 O    1.2786053868   -2.6636914115    2.0868472540
 C    0.1155852744   -3.1037627010    2.6126430279
 N    0.0467882773   -3.3772863295    3.8410755962
 H   -1.0290239625    1.0397762821    0.4601667039
 H   -0.9715820962    1.1672408425    2.2506892825
 H    0.4372331914    1.6562506787    1.2531918967
 H    0.5749045711   -2.9188817020    0.1561881460
 H    3.4200621605   -1.9542420589    0.7636726133
 H    2.9488424793   -3.5783612993    0.2265466309
 H    2.7473754228   -2.1788950067   -0.8635589045
 H   -0.6910786891   -3.1999219209    1.8733461566
 H   -0.8845651320   -3.7188110356    4.0685789171