15

 C   -0.5235157656   -0.6693723467   -0.9579633776
 C   -0.1338514329    0.1580032389   -0.1800898733
 C    0.3357722792    1.1530338909    0.7791807379
 C    1.6286953948    1.8069682130    0.3737966557
 N    2.7006137207    1.7989650598    1.0517140596
 C    3.6807104279    2.5821815700    0.2822287352
 C    2.9240626604    3.0033482280   -1.0052454374
 O    1.5937181571    2.4687874763   -0.8116548241
 H   -0.8676073711   -1.3977185221   -1.6497028959
 H   -0.4250977372    1.9360684564    0.8960654353
 H    0.4949137727    0.7003058882    1.7613949639
 H    4.0162474966    3.4409546512    0.8733209551
 H    4.5627699630    1.9699214340    0.0693811257
 H    2.8413242695    4.0854819452   -1.1356396214
 H    3.3376087049    2.5663013270   -1.9183935687