11

 O    0.0593235775   -0.0555073205    0.0031666962
 C   -0.0213779281    1.1425966523    0.0074041534
 C    1.1506600942    2.0186968327    0.0013517730
 N    2.1419272002    2.6111615691   -0.0042086119
 N   -1.2468581072    1.8203642105    0.0184216117
 C   -2.5041978434    1.2809474027    0.0260568056
 C   -3.3252417822    2.3675524313    0.0352386590
 N   -2.5542625096    3.5120053149    0.0329860810
 N   -1.3120361342    3.1949661380    0.0230587751
 H   -2.6654311248    0.2173314158    0.0240920131
 H   -4.4014189523    2.4170806832    0.0432277839