18

 O   -0.0124755106    1.3949183057    0.2658217723
 N    0.0780529033    0.0004058079    0.2023466224
 C   -1.0537381750   -0.5695713192   -0.0456063657
 C   -0.9903987554   -2.0766631119   -0.0898226069
 C   -1.5269364407   -2.7016146281   -1.3912316184
 C   -3.0217763209   -2.6618339833   -1.5337681725
 C   -3.8348101698   -1.6514685694   -1.1847640964
 C   -3.4877152259   -0.3443700788   -0.6478288697
 C   -2.3098618006    0.1458142919   -0.2035270635
 H    0.8903188840    1.6434126142    0.4892444812
 H    0.0540351098   -2.3622451485    0.0576884795
 H   -1.5634787664   -2.4821287788    0.7537397346
 H   -1.0581838447   -2.2068685461   -2.2547799485
 H   -1.1974856532   -3.7455885125   -1.4348475327
 H   -3.4826862165   -3.5438385533   -1.9723224122
 H   -4.8980953530   -1.7891654925   -1.3670333671
 H   -4.3205498456    0.3560692706   -0.6340043207
 H   -2.2779126987    1.1873992121    0.0931572543