14

 C   -0.1901630350    1.4794324420    0.0126800824
 C    0.0734797182   -0.0109509767    0.0251484733
 N    0.2925634149   -0.7108413450    1.0633290853
 N    0.0425479406   -0.6891329625   -1.2268149892
 C    0.2596831721    0.0032119964   -2.4360893348
 O    0.1378617755   -0.4556943333   -3.5355098524
 C   -0.2185068825   -2.0980014482   -1.2078120513
 O   -0.0893467557   -2.8257112786   -2.1466854932
 H    0.6723292172    2.0395428099   -0.3633905800
 H   -1.0511702901    1.7375322758   -0.6102494669
 H   -0.3804222739    1.8147237281    1.0338624953
 H    0.2261562263   -0.1407205367    1.9045131627
 H    0.5711411452    1.0456710400   -2.2579010609
 H   -0.5538895329   -2.4075531511   -0.2090689303