20

 C    0.4150898485    1.4355870147   -0.2347365090
 C    0.2803094807   -0.0797371499   -0.0819363153
 C   -0.0800404714   -0.4984722557    1.3514307187
 O   -1.2666554450    0.0947887103    1.8310967803
 O   -0.5891065657   -0.6631657391   -1.0691677044
 C   -1.9227116655   -0.2068584229   -1.1637023731
 C   -2.8819896134   -1.3004663195   -0.6719587274
 N   -3.6016612762   -1.9222688919   -1.6362988457
 O   -2.9951533264   -1.5953028390    0.5110181130
 H    1.2748198195    1.7861046085    0.3450697788
 H    0.5756335985    1.7054830953   -1.2822845537
 H   -0.4649139422    1.9589330245    0.1464725457
 H    1.2440729971   -0.5467648501   -0.3205291104
 H   -0.1355753243   -1.5951681612    1.3897580996
 H    0.7424909066   -0.1852022119    2.0089099587
 H   -1.9969096538   -0.4856223806    1.5488276086
 H   -2.1104038815    0.6849778788   -0.5608653193
 H   -2.1283828026    0.0373273414   -2.2151755023
 H   -3.4282374427   -1.7612187583   -2.6127782301
 H   -4.1973059102   -2.6909801733   -1.3716881327