12

 O   -0.0389735679    1.3832667487   -0.0120054755
 C   -0.0312509783   -0.0015935463   -0.0071698909
 C   -0.4418501450   -0.7247625802    1.2665683658
 C   -1.3614770453   -0.7338684253    0.0816783112
 C    1.0363333031   -0.5985962371   -0.8307178443
 O    1.8237061046    0.0858789224   -1.4463182192
 H    0.7020462350    1.6320765813   -0.5876788122
 H    0.0752962439   -1.6385864495    1.5392139314
 H   -0.6832030758   -0.0650030385    2.0916221314
 H   -2.2255591792   -0.0803444792    0.1045003177
 H   -1.4904472128   -1.6541024300   -0.4781353102
 H    1.0749168977   -1.7070514865   -0.8523137252