17

 O   -0.1186026997    0.0372764974   -0.2348187541
 C   -0.1246701477    1.2194667839   -0.1129598563
 O   -1.2205299095    2.0089163774   -0.2596766257
 C   -0.8936311047    3.3487759367    0.1117810252
 C    0.6428972267    3.3693062745    0.0984287088
 C    1.3297400859    4.1424119815   -1.0564827616
 C    1.6157925908    5.2936674086   -0.0521488711
 C    1.3463718780    4.2959962848    1.1103839060
 O    0.9606444394    1.9781083369    0.1902620339
 H   -1.3452114928    4.0350176718   -0.6076200010
 H   -1.2992218909    3.5510175756    1.1101554652
 H    2.2443381617    3.6262645671   -1.3574769066
 H    0.7311827807    4.3584462400   -1.9446384399
 H    2.6049986458    5.7507199656   -0.0927227511
 H    0.8645785260    6.0859534890   -0.1005152752
 H    0.7599768686    4.6379508504    1.9671127622
 H    2.2654151918    3.8289516187    1.4718520612