21

 C   -0.1345191720    1.5579205940    0.0185016306
 C    0.0312378061    0.0398498013    0.0081963546
 C    0.9168172187   -0.5313768677   -1.0957552209
 C    2.3304775275   -0.6301028566   -0.5420116766
 C    2.2882002346   -0.1255533775    0.8929180984
 C    0.8304481874   -0.5647227507    1.1943548430
 O    0.2802779979   -0.2246221378    2.4377692372
 C    0.8746953241   -2.0662815578    0.8000605009
 C    1.4435315970   -1.8657834705   -0.5983718011
 H    0.8239819574    2.0786914561   -0.0637166524
 H   -0.7542467895    1.8823970214   -0.8241276644
 H   -0.6214810286    1.8829567632    0.9426805571
 H   -0.9641621301   -0.4222084962   -0.0100517970
 H    0.7272816218   -0.3465211252   -2.1454710999
 H    3.2007971576   -0.5275886489   -1.1769159174
 H    3.0092520247   -0.6327834505    1.5458642121
 H    2.4333712444    0.9531887858    0.9921754331
 H    0.8357197006   -0.6013082019    3.1278691679
 H    1.5318079645   -2.6511218489    1.4551616851
 H   -0.1223658536   -2.5179106457    0.8099195005
 H    1.6519585795   -2.6867949058   -1.2719958807