19

 O    0.1322215647    1.5173027707    0.0479604834
 C    0.1633687630    0.1180530859    0.0028721686
 C    0.0970550759   -0.5703676461    1.3924830354
 O   -1.3482669731   -0.2585492092    1.3855345583
 C   -1.2348031061   -0.5532397970   -0.0589482730
 C   -0.9843299526   -2.0692490636   -0.0348157779
 C    0.0679405044   -2.6897876211   -1.0018810226
 C    1.1231464428   -2.7033445770    0.1480496661
 C    0.0766887476   -2.0828950174    1.1214575470
 H   -0.5592091657    1.7434932614    0.6851078840
 H    0.9378175079   -0.1625065658   -0.7110894368
 H    0.6286631840   -0.1756528190    2.2591194204
 H   -2.0479102005   -0.1412285592   -0.6577540201
 H   -1.9074448849   -2.6331616270    0.1030846362
 H   -0.2043845692   -3.6871287215   -1.3534317390
 H    0.3185913255   -2.0843948244   -1.8770270810
 H    1.4383183212   -3.7082272733    0.4366897553
 H    2.0236105945   -2.1062746609   -0.0189293131
 H   -0.1465552494   -2.6558102657    2.0220600787