18

 C    0.0216487390    1.4287978286    0.3541195639
 C   -0.1072134792   -0.0309508230   -0.0121784732
 C    0.6075870703   -0.6759554516   -1.1864013835
 C    1.5285502359    0.0887791505   -2.0816993932
 C    2.1193131900   -0.5390914940   -3.2725924671
 O    1.0173977270    0.3618444179   -3.3870448028
 N    0.9811411321   -0.9607522771    0.1846397606
 C    2.1836843697   -0.7575101324    0.8244674023
 O    2.3166801922   -0.1932378994    1.8847867403
 H    0.9850777921    1.8524611959    0.0651446163
 H   -0.7707483314    2.0036511853   -0.1348809846
 H   -0.0751812420    1.5510204962    1.4359406718
 H   -1.0804503573   -0.4608449955    0.2234314406
 H    0.0903456464   -1.4858792922   -1.6999500853
 H    2.0693657904    0.9160554650   -1.6230104743
 H    3.0685897609   -0.1720469038   -3.6592741444
 H    1.8949552884   -1.5813335847   -3.4958388003
 H    3.0201283653   -1.2477419557    0.2882251629