22

 C    0.0881473358    1.5245626357   -0.0259479422
 C   -0.0318653877   -0.0150259607    0.0154247741
 C   -1.5100757724   -0.4167314056    0.0839533335
 C    0.7110193011   -0.6572888194   -1.1862693822
 C    2.1855696674   -0.7522985588   -0.7508061206
 C    2.1109614846   -1.1052743930    0.7479701762
 C    0.7773498609   -0.5500120928    1.1969426033
 N    0.3120650201   -0.5070678314    2.3795600437
 O    1.2265273323   -1.0426452166    3.3096149029
 H    1.1303546856    1.8528325945   -0.0893325351
 H   -0.4450543073    1.9248250812   -0.8954682420
 H   -0.3439345107    1.9631799964    0.8779201092
 H   -2.0499710024   -0.0503891202   -0.7962654825
 H   -1.6208320082   -1.5048511771    0.1235957811
 H   -1.9836955505   -0.0006893505    0.9770645310
 H    0.3133233592   -1.6649496658   -1.3596320390
 H    0.5708962653   -0.0895400572   -2.1110343796
 H    2.7503717824   -1.4862163984   -1.3312526868
 H    2.6845857420    0.2133719069   -0.8862926617
 H    2.1135101061   -2.1910519162    0.9089194851
 H    2.9354422858   -0.7097845742    1.3476056165
 H    0.7467249606   -0.9503155169    4.1393356550