18

 C    0.0794790124    1.4535839624    0.2584303829
 C    0.0041426544   -0.0224164197   -0.0937936348
 C    0.6311103116   -0.4906731349   -1.3682408538
 N    1.2549448590   -0.8244015596   -0.0823274416
 C   -1.1612920508   -0.7101395797    0.4112083471
 C   -2.1607297865   -1.2386591672    0.8271780103
 C   -3.3179525957   -1.9473132226    1.3520600819
 C   -2.9284770903   -3.2239011844    2.1042845493
 O   -3.5844659006   -4.2290836396    2.0862215134
 H    0.9659262421    1.9125536930   -0.1914615859
 H   -0.8038479342    1.9867470358   -0.1059632858
 H    0.1299470468    1.5905663236    1.3432675568
 H    0.1997632990   -1.3342608179   -1.8978055126
 H    1.0914618244    0.2634997231   -2.0020912245
 H    2.0399864338   -0.2007442691    0.0939835686
 H   -3.8566584818   -1.3127706010    2.0730405363
 H   -4.0369917601   -2.2183313272    0.5718111303
 H   -1.9870918534   -3.1410709549    2.6885733021