18

 C    0.1964091376    1.4366715140    0.0587569269
 N    0.0578443014   -0.0047038103   -0.0156018055
 C    0.1463254194   -0.7869777869   -1.1504787739
 C   -0.0500183409   -2.0741134088   -0.7301154275
 N   -0.2560852330   -2.1119786798    0.6287113660
 C   -0.1851862163   -0.8584770324    1.0233112566
 N   -0.3267912363   -0.3501557683    2.3262004890
 C   -1.2812924508   -1.0635755989    3.1966334315
 C    0.1758622962   -1.2124665343    3.4132014404
 H    1.1866059384    1.7488538136   -0.2875526263
 H   -0.5638215577    1.9306417623   -0.5543159454
 H    0.0684950805    1.7317766025    1.0999002144
 H    0.3355509211   -0.3549688642   -2.1193073940
 H   -0.0547751388   -2.9745646613   -1.3254857207
 H   -1.8711285932   -0.4215613955    3.8440814341
 H   -1.8010969561   -1.9051984684    2.7500140420
 H    0.6249122959   -2.1530917378    3.1105738581
 H    0.6692459027   -0.6811603156    4.2216356044