22

 C    0.0306231402    1.4752276664   -0.1429837798
 C   -0.0299738874   -0.0349779928    0.0990840679
 C   -1.4415023922   -0.5827879315   -0.0422065749
 O   -1.3980123559   -1.9898770379    0.2004158500
 C   -2.5731812004   -2.6419475696    0.1025127145
 N   -2.6359320312   -3.8845083262    0.3011177124
 C   -3.9028836636   -4.5163893727    0.1817654591
 C   -3.9266364304   -5.9268788860   -0.3613520183
 C   -4.1867384833   -5.6820872981    1.1013230017
 H    1.0537039464    1.8459417663   -0.0362749330
 H   -0.3122372588    1.7335321947   -1.1509624172
 H   -0.5960106813    2.0209613938    0.5710111978
 H    0.6203957921   -0.5618872146   -0.6078985226
 H    0.3384087901   -0.2764373220    1.1022909029
 H   -2.1175708463   -0.0992226580    0.6779204947
 H   -1.8321868035   -0.3883640953   -1.0516729700
 H   -3.4317183743   -2.0040663603   -0.1580646950
 H   -4.7530053005   -3.8795824818   -0.0759696862
 H   -4.7564544422   -6.2119590795   -0.9984865617
 H   -2.9684970836   -6.3506173039   -0.6372638642
 H   -3.4023424456   -5.9426163291    1.8017325767
 H   -5.1969423286   -5.7973415619    1.4781645354