16

 C   -0.2859094161   -1.2645538232   -0.3018296618
 C   -0.1406439884   -0.0836825384   -0.1366646786
 C    0.0244400529    1.3488009826    0.0708993604
 C   -0.5936070472    1.8604906864    1.3799891669
 O   -0.0056719548    1.3168883285    2.5595791444
 C    0.4471258997    2.6015348103    2.1047047035
 C    1.7131804415    2.5578398470    1.2847202686
 C    2.3333891783    1.2220996803    1.0786413723
 N    1.4538047240    1.7864405935    0.0468164581
 H   -0.4129999093   -2.3084812429   -0.4498124600
 H   -0.4685708060    1.8859807386   -0.7508446186
 H   -1.6595816427    2.0722505702    1.4286074640
 H    0.2439074234    3.4378873287    2.7667295469
 H    2.2794905172    3.4789938424    1.1828067436
 H    3.3745117802    1.1504249164    0.7767849872
 H    1.9632128572    0.4095668095    1.6934739731