12

 O   -0.0053311746   -0.0411076510    0.0026967054
 C   -0.0239436150    1.1736471215    0.0062630960
 C    1.1861751397    1.9670526703    0.0002894368
 C    2.2112314408    2.5963817665   -0.0048884066
 C   -1.3151184120    1.9080395315    0.0171137943
 N   -1.3643183834    3.2240232395    0.0211172964
 O   -2.7025776155    3.5430673047    0.0311636815
 C   -3.4299650646    2.4078500096    0.0329456218
 C   -2.6154697258    1.3264950362    0.0242643336
 H    3.1139822521    3.1576821970   -0.0093957116
 H   -4.5002212841    2.5411074389    0.0406360255
 H   -2.8654955976    0.2801786854    0.0229804569