18

 C    0.0123802794    1.4949101094    0.0068617511
 C   -0.0078701604    0.0391706040   -0.0081128780
 C   -0.0372452186   -1.1653036477   -0.0312874437
 C   -0.0472402203   -2.6305690913   -0.0137960858
 C   -1.4775935769   -3.1911871524   -0.0763420471
 C    0.8207672657   -3.1812187502   -1.1745832595
 C    0.6401652188   -3.0503461750    1.2976018157
 O    0.1615844696   -3.7832666495    2.1199294595
 H    0.9029384248    1.8867659627   -0.4965031112
 H   -0.8655034201    1.9075150661   -0.5022732805
 H    0.0123927392    1.8813432482    1.0319320683
 H   -1.9541147725   -2.9040859090   -1.0171216205
 H   -1.4572064111   -4.2816033563   -0.0045994688
 H   -2.0794586047   -2.8102216529    0.7511207404
 H    1.8543691727   -2.8318197271   -1.0956095696
 H    0.8177054128   -4.2756800757   -1.1654090407
 H    0.4204021619   -2.8372131366   -2.1316748933
 H    1.6546751999   -2.6103393867    1.4241027738