19

 C    0.0442273448    1.3549787664    0.0993329064
 O   -0.0870018020   -0.0403977890   -0.0800609345
 C   -1.3805138016   -0.5230768065   -0.0236701592
 C   -2.5642767088   -0.0176318709   -0.8972904699
 C   -3.4316213881   -0.7530550916    0.1525520830
 C   -2.9868288774   -2.2359538529    0.1651767918
 C   -2.1256565853   -2.0894965686    1.4012206966
 C   -1.4750657311   -2.0630784533    0.0365326561
 C   -2.3246775582   -0.5512905273    1.2573873061
 H    1.1142677246    1.5742350599    0.1096820543
 H   -0.4250919014    1.9209432272   -0.7169654262
 H   -0.3952318780    1.6853074515    1.0513680150
 H   -2.6953805426    1.0671847443   -0.8275488253
 H   -2.6160664121   -0.3359884083   -1.9430355814
 H   -4.4810341951   -0.5115468039    0.3098147910
 H   -3.5110728328   -3.1077916890   -0.2041770652
 H   -1.9747757478   -2.7479609693    2.2456980872
 H   -0.8214034662   -2.7836783815   -0.4361041885
 H   -2.3598859808    0.2052145527    2.0369471625