21

 C   -0.0663982974    1.5950056314   -0.0452080744
 C   -0.0470217585    0.0647925038   -0.0130283062
 C   -1.4479928201   -0.5443208538   -0.0876218024
 N   -1.4144977338   -1.9933843031   -0.0360174314
 C   -0.9174391527   -2.7236020623   -1.2350818361
 C   -2.1103863619   -3.6398213282   -1.0972286772
 C   -2.7149343958   -2.7117872837   -0.0681891250
 N   -2.3863641800   -4.7479574506   -1.6355644246
 O   -3.6223405727   -5.2366046390   -1.1714444730
 H    0.9466046249    2.0049286355    0.0054733726
 H   -0.5305751171    1.9688776984   -0.9645787940
 H   -0.6324404648    2.0028915575    0.7996921810
 H    0.5553612736   -0.3115809296   -0.8500733776
 H    0.4391854973   -0.2928488832    0.9016896301
 H   -2.0438530555   -0.1951591292    0.7655099610
 H   -1.9615530579   -0.1781904844   -1.0015234976
 H   -0.9453224293   -2.1278086803   -2.1629611631
 H    0.0781393323   -3.1664293318   -1.1298581322
 H   -3.0264057899   -3.1531153529    0.8843821260
 H   -3.5519467564   -2.1208017056   -0.4752185743
 H   -3.6967247643   -6.0758336486   -1.6381726919