13

 O   -0.0702579112    0.0029458101    0.0252801691
 C   -0.0644576106    1.1971200146    0.0200642127
 N   -1.0328036341    2.1582926594   -0.0579372974
 C   -0.1510503963    3.3219405664    0.0334295351
 C    1.0536325051    2.3205074476    0.0782090525
 C    1.8983917160    2.3401596531    1.2406460443
 C    2.5965921335    2.3468680226    2.2274744618
 C    3.3853670910    2.3639675480    3.3407212365
 N    4.0566165905    2.3841017893    4.2888994597
 H   -2.0362332745    2.0782957396   -0.1298175395
 H   -0.1659124323    3.9731854490   -0.8446462337
 H   -0.2769590055    3.9125762509    0.9440574627
 H    1.6461330384    2.3244799593   -0.8412347839