27

 C    0.1172372663    1.5076906507   -0.0220170476
 C    0.0123135905   -0.0208317310    0.0384866136
 C    0.7250104296   -0.5878232440    1.2718790093
 C   -1.4558037882   -0.4532847587   -0.0046501138
 O   -1.5003023657   -1.8633449232   -0.0923780241
 C   -2.7787836694   -2.5167873405   -0.0898714105
 C   -3.6381422659   -2.0611401644   -1.2805286142
 C   -2.4207866424   -3.9995200661   -0.2368899892
 C   -3.5179140897   -2.2825722633    1.2380013622
 H    1.1641250371    1.8269928661   -0.0265806700
 H   -0.3595531096    1.9111550329   -0.9218852898
 H   -0.3638255125    1.9712212678    0.8478452765
 H    0.4896221092   -0.4397423848   -0.8575191014
 H    0.2983243777   -0.1711455513    2.1929788061
 H    0.6203663239   -1.6741613581    1.3124438838
 H    1.7917068931   -0.3410085962    1.2597084022
 H   -1.9693698479   -0.0902106596    0.9003812661
 H   -1.9495325122    0.0133390728   -0.8708168946
 H   -3.0803049569   -2.1709358309   -2.2154719621
 H   -4.5448320194   -2.6702717559   -1.3482362928
 H   -3.9511699667   -1.0173284807   -1.1853288951
 H   -1.7865718703   -4.3191688055    0.5948046242
 H   -3.3212761927   -4.6205322558   -0.2482146385
 H   -1.8699788163   -4.1644507675   -1.1671377647
 H   -3.8264115065   -1.2400840740    1.3586562106
 H   -4.4219070506   -2.8980106070    1.2824007763
 H   -2.8762982743   -2.5525590618    2.0820945177