16

 O   -0.0744459569    1.4454389490    0.0728448506
 C    1.3863186801    1.4872379898   -0.0080201159
 C    2.0099260896    1.3230012511    1.3620622135
 C    1.3039752426    0.2571493973    2.1956825463
 C    2.6219632273   -0.0444161365    1.5116081837
 N    1.9397933499   -0.8789032250    0.4784031719
 C    0.6152529443   -0.6816567390    1.2006274333
 C   -0.0132628440    0.0214733641   -0.0558064208
 C    1.4302227780    0.0368835014   -0.5954535519
 H    1.7306335444    2.3441032036   -0.5895765613
 H    2.4351562954    2.1641416929    1.8951951819
 H    1.0683780508    0.3997917480    3.2420480553
 H    3.6111727139   -0.2676180521    1.8907313658
 H    0.1438693500   -1.5792939068    1.6042425791
 H   -0.8966206659   -0.4148517911   -0.5220613719
 H    1.7607516306   -0.1374508665   -1.6183711696