15

 C   -0.0087669260    1.4949748331    0.0391128572
 C   -0.0239374409    0.0014649793    0.0220468412
 C   -0.0494426252   -0.8214804849   -1.0472403058
 O   -0.0560438420   -2.1505521555   -0.6469942496
 C   -0.0317894791   -2.1588333598    0.6924914057
 N   -0.0990870679   -3.3762553724    1.3072085507
 C   -0.0070169457   -0.8712200625    1.1847038288
 C    0.0399198287   -0.5215602466    2.5477319145
 N    0.0845130791   -0.2550057351    3.6767903341
 H    0.8849202740    1.8764048362    0.5449069272
 H   -0.0239120593    1.8988359304   -0.9761762965
 H   -0.8752508405    1.8934085067    0.5779255675
 H   -0.0653458068   -0.6632231387   -2.1113564723
 H    0.2751378297   -4.1500376861    0.7777835074
 H    0.1686209618   -3.3767261541    2.2803666800