23

 C   -0.0880416388    1.4829686195    0.0719033432
 C    1.2892029378    0.8503232819    0.0353901248
 C    2.1995591084    0.8964631502    1.2618201188
 C    2.5922161637   -0.4609951393    1.8752184969
 C    1.4177841002   -1.3695555594    2.2999059720
 C    0.7358386173   -2.1408523836    1.1322137557
 C   -0.3276407879   -1.0042782205    1.0507171450
 C    0.0584105175   -0.6367235131    2.5127964629
 C    0.0456539267   -0.0124888235   -0.0319049368
 H   -0.4061068338    1.9012689814    1.0223109799
 H   -0.4442122195    2.0343053397   -0.7920309065
 H    1.8196118800    0.9438497257   -0.9085048306
 H    3.1177118816    1.4306126610    0.9909094557
 H    1.7344438655    1.5066931396    2.0437093727
 H    3.2305136584   -1.0182958504    1.1765046882
 H    3.2168288463   -0.2523781380    2.7531201123
 H    1.7426288059   -2.0017840489    3.1312954467
 H    1.3323935566   -2.3241985430    0.2330473825
 H    0.3060898749   -3.0881941980    1.4715760049
 H   -1.3655897803   -1.3232616862    0.9090518229
 H   -0.5742551672   -1.1812179974    3.2193066704
 H    0.0649101977    0.4139855712    2.8105985901
 H   -0.1543059311   -0.4171152190   -1.0228596517