17

 O   -0.0048662670    1.4170138159   -0.0107640467
 C   -0.0138326441    0.0315157782    0.0091442871
 C   -0.5182002920   -0.6925950613    1.2618433831
 C   -0.8621006219    0.0989385042    2.4053732161
 N   -1.1012012481    0.7473130842    3.3336741835
 C   -1.3577873848   -0.6252078813   -0.0261849264
 C   -2.6140896727    0.1792688343   -0.0923136045
 C   -3.5286873323   -0.0047999458   -1.2479346503
 N   -3.9179420704   -0.4814723334    0.0896351211
 H    0.6383194154    1.7381802071    0.6314965252
 H    0.8079991847   -0.4527590344   -0.5176763330
 H   -0.0613867854   -1.6471480003    1.5010198416
 H   -1.4032529862   -1.5721414284   -0.5586869501
 H   -2.5535756356    1.1592665399    0.3679858257
 H   -4.1040499935    0.8367593417   -1.6221685163
 H   -3.2515311236   -0.7340023212   -2.0057698783
 H   -3.7947871823   -1.4899724894    0.1491243122