18

 C    0.0065606373    1.3488840318   -0.0009236351
 N    0.1264042820   -0.1012602325    0.0068159098
 C    0.6375678057   -0.6907023562    0.9901880235
 O    1.1501827433   -0.1937453313    2.1603129592
 C    1.5620770064   -1.4412591311    2.8227139541
 C    0.3388995604   -2.3584092571    2.6036774949
 C    0.8149854918   -2.1840615403    1.1126029842
 O    0.3753620145   -2.9336497433    0.0524718866
 C    2.2806396994   -2.2035665291    1.6878401931
 H    0.5402514981    1.7497595795   -0.8695788873
 H   -1.0475814338    1.6225205101   -0.1195566749
 H    0.3955569304    1.8289750555    0.9041681593
 H    1.9987937741   -1.2066286425    3.7881287245
 H    0.4910393727   -3.3741447641    2.9715977581
 H   -0.6417638774   -1.9706462016    2.8867613735
 H    0.0192182724   -2.2967290092   -0.5886843442
 H    3.0631262227   -1.6752461024    1.1393837520
 H    2.5994832299   -3.2059455163    1.9773269687