25

 C    0.0247828455    1.5908582773   -0.1304280284
 C    0.0436576910    0.0651339179   -0.0110845686
 O    0.8807489210   -0.3447321730    1.0710282135
 C   -1.3708681902   -0.5240686136    0.0819537423
 C   -1.4575417242   -2.0535927224    0.0512139493
 C   -0.9760541025   -2.7988959021    1.3098870748
 C   -1.5213246501   -4.2261575305    1.1232499640
 C   -2.8635619228   -4.0582486838    0.3532820109
 C   -2.8997824272   -2.5789997967   -0.1114356795
 H    1.0461969218    1.9790544218   -0.1674557038
 H   -0.5048234761    1.9153920502   -1.0320377349
 H   -0.4807526654    2.0420088299    0.7329863297
 H    0.5367757775   -0.3521364304   -0.8986861517
 H    0.4807251927   -0.0198996850    1.8855149981
 H   -1.8543617509   -0.1470703331    0.9975350411
 H   -1.9566299964   -0.1177398893   -0.7538626790
 H   -0.8620927839   -2.4131323820   -0.8020296733
 H    0.1055683486   -2.7561295897    1.4432915509
 H   -1.4321525620   -2.3336097954    2.1957842554
 H   -0.8164935580   -4.8135817052    0.5244557463
 H   -1.6438367312   -4.7569993073    2.0715549616
 H   -2.9120242138   -4.7435625852   -0.4980907647
 H   -3.7243442542   -4.2913857400    0.9865986879
 H   -3.5648007752   -1.9950993186    0.5379944722
 H   -3.2763270942   -2.4620166640   -1.1324512041