21

 C    0.0411479060    1.2843333359   -0.3237343546
 O   -0.0675356629    0.0002263034    0.2671470345
 C   -1.3391932512   -0.5743829083    0.1516827912
 C   -1.6861043805   -1.2400278786   -1.1778900215
 C   -1.3587939840   -2.0945178280    0.0251540557
 C   -0.0232991781   -2.8141571953    0.0509684675
 C   -2.4895285264   -2.8597150603    0.6852196019
 C   -2.3738652132    0.1086073887    0.8894975212
 C   -3.2150922273    0.7068486568    1.5082324076
 H    1.0757697380    1.6052574956   -0.1849459115
 H   -0.1877093619    1.2538134189   -1.3984564834
 H   -0.6302433071    2.0064944797    0.1581053123
 H   -2.7130946196   -1.1882364511   -1.5226091609
 H   -0.9335222175   -1.1515761283   -1.9546483064
 H    0.7703949935   -2.2080548726   -0.3863759700
 H    0.2673348856   -3.0563230575    1.0791381482
 H   -0.0952404668   -3.7550465575   -0.5064792665
 H   -2.6543314804   -3.8098451982    0.1643365999
 H   -2.2503756938   -3.0874331938    1.7299056434
 H   -3.4255342476   -2.2971686867    0.6721729025
 H   -3.9595315746    1.2260462971    2.0595106689