16

 C    0.0632163416    1.4292601326   -0.2241255089
 N    0.0407011158   -0.0162244103   -0.1353755108
 C   -1.0600791362   -0.5900249943    0.1472768899
 N   -2.2847105271    0.0329876252    0.3887987206
 C   -3.4330443292   -0.6572096895    0.6889345102
 C   -3.4620398019   -1.9989795334    0.7730517445
 C   -2.2400330128   -2.7671695701    0.5404562711
 O   -2.1419243473   -3.9770965268    0.5882686375
 N   -1.1285296761   -1.9713077998    0.2426477662
 H    1.0753072843    1.7570410162   -0.4731605666
 H   -0.6033338091    1.8245310304   -1.0096408963
 H   -0.2093630369    1.9247121038    0.7233818816
 H   -2.3053541662    1.0363813344    0.3355883980
 H   -4.3088564781   -0.0392326505    0.8517167688
 H   -4.3662928072   -2.5394279888    1.0092357079
 H   -0.2587192037   -2.4574527490    0.0736232763