19

 C    0.0207049071    1.4506014095    0.1194904943
 C    1.3406819442    0.7567527547   -0.0469573490
 C    1.7605926167    0.1083167905    1.2785528405
 C    0.4394415196   -0.7209505933    1.2700455248
 C    0.4786087518   -2.2915417746    1.3015337008
 C   -0.4908607786   -2.2439555893    2.4882258098
 O    0.1380798532   -1.4706575678    3.5171095610
 C   -0.5339320815   -0.7740108371    2.4575781839
 C    0.0370310178   -0.0470790831   -0.0440517876
 H   -0.2450989602    1.9019598172    1.0732773930
 H   -0.3333858331    2.0026106859   -0.7453362875
 H    1.9988602962    0.9725951910   -0.8793554790
 H    2.6372988376   -0.5369249473    1.1877510890
 H    1.9112397420    0.7864014205    2.1249901345
 H    0.0405756519   -2.7314518863    0.4010105003
 H    1.4451810707   -2.7589266046    1.5073119182
 H   -1.2358909711   -2.9675443675    2.7976401519
 H   -1.3166958267   -0.0770015678    2.7360491541
 H   -0.4719523276   -0.5371134906   -0.8663698029