21

 C   -0.0435702350    1.6637363296    0.1294862212
 C   -0.2058449275    0.1741756890    0.2975828140
 O    0.8204234051   -0.6647453969   -0.2460416917
 C    0.6348107432   -0.6623401432    1.1805759889
 C    1.7142391354   -0.1279990032    2.0554364656
 C    1.7646111222   -0.7901811811    3.2112464017
 C    0.7156196381   -1.8729785999    3.2933783848
 C    0.1840272581   -1.9804035152    1.8387674180
 C   -1.2980516153   -2.3270304926    1.7258140157
 H    0.9771097680    1.9855519459    0.3461316337
 H   -0.2807899418    1.9566257490   -0.8988414307
 H   -0.7274281804    2.2000905325    0.7964565973
 H   -1.2145590469   -0.1903897594    0.0948872561
 H    2.3490666568    0.6988899673    1.7635251797
 H    2.4491743344   -0.5756394131    4.0244469268
 H    1.1119424797   -2.8240486037    3.6669005861
 H   -0.0870887323   -1.5823028244    3.9866671610
 H    0.7629523193   -2.7613800857    1.3294698622
 H   -1.9245364370   -1.5637374289    2.2005669203
 H   -1.6063788637   -2.4202167634    0.6795964470
 H   -1.5091226906   -3.2832720827    2.2158791321