16

 C   -0.0392206467    1.4016377410   -0.0483433309
 N   -0.0018733839   -0.0377846848    0.0460274525
 C   -1.0595126582   -1.0317234237   -0.0532409909
 C   -1.7807852453   -1.0949012719   -1.3778889857
 O   -1.3589541044   -0.5934931762   -2.3901362869
 C    0.0957986472   -2.1368708860    0.0501700499
 O    0.2196316454   -3.0949288789   -0.9486724055
 C    1.0555980602   -0.9116162368    0.0304240627
 O    2.2457213032   -0.7496413167   -0.0160156457
 H    0.9916953484    1.7595298291   -0.0003062504
 H   -0.4836739329    1.7194692661   -0.9969560724
 H   -0.6073146899    1.8395568312    0.7801802199
 H   -1.7748028230   -1.0356974775    0.7787644985
 H   -2.7260412752   -1.6798837421   -1.3659373036
 H    0.0665943555   -2.6609434333    1.0077934782
 H    0.5153515197   -2.6652901495   -1.7602220196