16

 C    0.0795334198    1.4899538101    0.0251779685
 C   -0.0597716553    0.0064078584   -0.0060551264
 C   -1.1965636152   -0.7014033727   -0.1771779359
 N   -1.2164178152   -2.0779627737   -0.1902130103
 C   -0.1025902767   -2.7177749684   -0.0323152943
 C   -0.0633907685   -4.2147409867   -0.0376011211
 C    1.1901642795   -2.0288176873    0.1614880037
 O    2.2593626241   -2.5550474790    0.3137427457
 O    1.1193714186   -0.6429660230    0.1613008316
 H    0.7584507164    1.8299089056   -0.7643464449
 H   -0.8916824753    1.9680582223   -0.1132039962
 H    0.5035313846    1.8170696265    0.9807221003
 H   -2.1452133625   -0.1972793136   -0.3119238061
 H   -1.0690716811   -4.6083728062   -0.1873836111
 H    0.6010262248   -4.5798895912   -0.8282594407
 H    0.3479067220   -4.5926359911    0.9047123971