17

 N    0.0490624222    1.3551722419   -0.0954459282
 C   -0.0390994782   -0.0079997153   -0.0516369134
 N   -1.0811403964   -0.6989904374    0.1968488059
 C   -0.6969776374   -2.1007408267    0.0305777999
 C   -1.5370023325   -2.8076440680   -1.0572958604
 C   -2.9392881267   -2.9661330866   -0.6986438166
 C   -4.0906065582   -3.1167707283   -0.3894948292
 C    0.8164419828   -2.0463899419   -0.3372957259
 O    1.1284483701   -0.6401208276   -0.3589919299
 H    0.9653146609    1.7370333607    0.0792394238
 H   -0.7096554779    1.8319323154    0.3656061694
 H   -0.8514084537   -2.6387615697    0.9732880732
 H   -1.4493320680   -2.2347318990   -1.9892950359
 H   -1.0986447228   -3.7963654556   -1.2514608698
 H   -5.1105748047   -3.2354075239   -0.1205684803
 H    1.4607388361   -2.5324241525    0.4003428313
 H    1.0344687844   -2.4619047755   -1.3270263641