17

 C   -0.1385660994    1.5743841722   -0.0174317611
 C   -0.0530682438    0.0417774762    0.0032550096
 C    1.1903809289   -0.4992225898   -0.7667955433
 O    1.9027177656   -0.7512041115    0.4581825819
 C    0.7303919856   -0.5556806323    1.2423775652
 C    0.9038628681    0.3391112111    2.4450377040
 O    1.9044041824    0.9492175881    2.7117594954
 C   -1.3272443380   -0.5808179931   -0.2971590643
 C   -2.3854044392   -1.0960936857   -0.5437223202
 H    0.8292145357    2.0117566172    0.2425164988
 H   -0.4205584571    1.9149169058   -1.0177397940
 H   -0.8904465840    1.9405637433    0.6869382108
 H    0.9985341972   -1.4195316182   -1.3299583570
 H    1.7066013029    0.2287884272   -1.4012089152
 H    0.2844650600   -1.5055997678    1.5766392581
 H   -0.0095126742    0.3934012300    3.0829838935
 H   -3.3190772109   -1.5520060027   -0.7642278222