15

 C   -0.0843139602    1.3963164417   -0.0134648471
 O   -0.0175294571   -0.0253135707   -0.0238585610
 C   -1.2010227542   -0.6616628633    0.0211567581
 N   -2.3595597043   -0.0265035209    0.0554406118
 N   -3.2773184115   -1.0487458703    0.0607968169
 C   -2.6976509145   -2.2745695915    0.0590635520
 N   -3.4654757846   -3.4359356009    0.1563990425
 C   -1.3327034124   -2.0735076297    0.0172258778
 H    0.9482686273    1.7463644994   -0.0568579451
 H   -0.6474106225    1.7699657751   -0.8752710490
 H   -0.5687007274    1.7610026083    0.8987021108
 H   -4.2373602433   -0.8337907216    0.2642669040
 H   -4.2449617537   -3.4562498596   -0.4905516422
 H   -2.9053560974   -4.2680011740    0.0298895359
 H   -0.5521966542   -2.8130087122   -0.0379290156