17

 O   -0.1522677577    1.4600952873    0.1525378823
 C    0.0112213995    0.0688768346    0.0390704479
 C   -1.3314054136   -0.6727045807   -0.1884381962
 C   -1.1199082914   -2.1901377498   -0.3619843630
 O   -2.2877733527   -2.8317808479   -0.8376259429
 C   -3.0905403411   -3.4396918536    0.0715797644
 N   -4.1666395552   -3.9687358595   -0.3095059255
 C   -2.2353095626   -0.3850366749    0.9270877342
 N   -2.8999088006   -0.1415179308    1.8415522904
 H   -0.6326569433    1.6455901114    0.9677679560
 H    0.6466443983   -0.0988658280   -0.8358721805
 H    0.5213894969   -0.3621059746    0.9138823454
 H   -1.7881553662   -0.2831258353   -1.1047705674
 H   -0.3467766665   -2.3500425411   -1.1191328438
 H   -0.7769660632   -2.6388906367    0.5788190444
 H   -2.6905269613   -3.4123712561    1.0935429407
 H   -4.6478024893   -4.3918497141    0.4810689436