18

 O   -0.0246842089    1.4488115829   -0.0056113886
 C    0.0585026004    0.0346462369    0.0309727447
 C    0.6152023631   -0.5510387830    1.3397565768
 C    0.0511242516   -1.9755534513    1.3516776450
 C   -1.4124709390   -1.7991911455    0.8544595197
 C   -1.3653595942   -0.5535530116   -0.0792572942
 C   -1.9022753031   -3.0355865928    0.1410535743
 O   -2.7914842174   -3.7558327737    0.5124641030
 H    0.8701540138    1.8027320171    0.0015459317
 H    0.6706320892   -0.3301388621   -0.8096180575
 H    1.7078788625   -0.5177054167    1.3978361420
 H    0.2124510876    0.0308157816    2.1774592984
 H    0.6119678576   -2.6047765826    0.6471393960
 H    0.0981184895   -2.4644631910    2.3273401812
 H   -2.0764811684   -1.6252394096    1.7046417270
 H   -2.0818248202    0.2032213623    0.2492000459
 H   -1.6153509321   -0.8027733934   -1.1154837485
 H   -1.3439518620   -3.2528725276   -0.8037220168