16

 N   -0.0085680639    1.2524719534    0.3300281733
 C    0.1248425874    0.0182905667    0.0240431499
 C   -1.0657105317   -0.8216693543    0.0345142314
 N   -1.9873709713   -1.5183023673    0.0411429045
 N    1.2506833185   -0.6552885748   -0.3861882412
 C    2.6503747124   -0.2658594502   -0.1013818621
 C    2.9935288147   -1.7529167594    0.0669488193
 C    2.1131626308   -2.3755885684    1.1223884787
 C    1.5387420733   -2.0817472103   -0.2340141447
 H    0.8885833313    1.7392573162    0.2847392913
 H    3.1252625592    0.2137782756   -0.9622774457
 H    2.7730208273    0.3673907969    0.7860434013
 H    3.8839493506   -2.2278088571   -0.3182541174
 H    2.3075799182   -3.4249993171    1.3188857734
 H    1.7923820315   -1.8027023760    1.9884529332
 H    1.0930568415   -2.8132694137   -0.8951438751