19

 O    0.0123555831    0.2014113123    0.4983164857
 C    0.1953921914    1.3797968155    0.5517466404
 O    0.9622012022    2.0389930963   -0.3375030870
 C    1.0829258309    3.4622483643   -0.2167438566
 C    2.5529672973    3.8664965363   -0.2936386193
 C    2.6963100057    5.4134274926   -0.2448810499
 C    3.3203067039    5.6792578931    1.1477625218
 O    3.1457320526    4.4813620777    1.8907735083
 C    3.3307321646    3.4263138178    0.9610785554
 H   -0.2323009049    2.0465830617    1.3261934356
 H    0.5142566792    3.9151978677   -1.0362771592
 H    0.6498361341    3.7999123260    0.7342555112
 H    2.9831185083    3.4405142558   -1.2034528842
 H    3.3302477176    5.7902547317   -1.0501998076
 H    1.7221380190    5.9024581712   -0.3445969527
 H    4.3917065560    5.9145461229    1.0499351864
 H    2.8404544057    6.4906592953    1.7001048404
 H    2.9599652082    2.5020585720    1.4101978032
 H    4.3990230852    3.2922013299    0.7259335582