22

 C    0.1647464082    1.6363600817    0.0126768050
 C   -0.2444003020    0.1625583496   -0.1138984347
 C    0.4942848937   -0.5328599620   -1.2462119343
 N    2.0354656156   -0.6494657479   -1.1500831681
 C    1.8098098333   -1.8555122001   -0.2254768658
 C    0.7630220787   -2.0709469210   -1.3535447257
 C    1.9017138617   -1.6675490487   -2.2954502727
 O   -0.0987696702   -3.1221859211   -1.5856614873
 C   -1.0211597369   -3.3705747704   -0.5401087234
 H    1.2334722007    1.7231471531    0.2267414160
 H   -0.0310116571    2.1806822370   -0.9175230361
 H   -0.3910128003    2.1320813510    0.8142427157
 H   -0.0954547357   -0.3436481999    0.8448174834
 H   -1.3189537470    0.0961077931   -0.3282312541
 H    0.2152680042   -0.0641852197   -2.1978715528
 H    2.6641825290   -2.5362772970   -0.1945459378
 H    1.4845285162   -1.5926308393    0.7806201658
 H    1.6425327611   -1.2155963464   -3.2560282873
 H    2.7594401791   -2.3389042583   -2.3781999375
 H   -0.5098122204   -3.5813711020    0.4098018688
 H   -1.7049843213   -2.5242972310   -0.3887830572
 H   -1.6038368308   -4.2474795808   -0.8296545601