18

 C   -0.0149969298    1.5226743793    0.1532933281
 C    1.3046594811    0.8074828131    0.0019746547
 C    0.0086392925    0.0209527746    0.0112888589
 C    0.0287752104   -0.6293623242   -1.3883833556
 C   -0.2604977579    0.3896113354   -2.5150540210
 C    1.0753243178    1.2003182610   -2.5246446481
 C    1.8574924852    0.4804623781   -1.4015337979
 O    1.4338024852   -0.8852699341   -1.5909762114
 H   -0.2430955022    1.9102630366    1.1420350808
 H   -0.3977565198    2.1438923401   -0.6473866287
 H    1.9924152916    0.7795996369    0.8391528274
 H   -0.2753043648   -0.5966388838    0.8554515797
 H   -0.5256741214   -1.5651860866   -1.4529582407
 H   -0.4086325533   -0.1374899908   -3.4597472477
 H   -1.1454294290    1.0022056813   -2.3276630578
 H    1.6013398530    1.0823734064   -3.4741810368
 H    0.9423624372    2.2692833207   -2.3426187696
 H    2.9428501142    0.5398023861   -1.4778900643