18

 C   -0.1632273479    1.5921570512   -0.0052415309
 C    0.0238450949    0.0680335751   -0.0233830639
 C    0.8592128437   -0.4796127060   -1.1880534561
 C    2.2970299011   -0.1331596306   -1.3121797293
 N    1.8941926307   -1.4174763282   -0.6678485673
 C    1.7954790813   -1.2851799715    0.7362391877
 C    0.7833292963   -0.5075666293    1.1659138404
 C    0.4615489863   -0.2884837894    2.5686997489
 O   -0.4421078938    0.4150145892    2.9741728922
 H    0.8007616087    2.1097344552    0.0230414482
 H   -0.6989844372    1.9234291482   -0.9004947942
 H   -0.7358660684    1.8865861610    0.8759964901
 H   -0.9733179791   -0.3896864022   -0.0661491062
 H    0.3425302632   -0.8216131212   -2.0791065262
 H    2.7948033282   -0.2478912183   -2.2697754390
 H    2.7117847041    0.6290786476   -0.6593843290
 H    2.5150929555   -1.8156093376    1.3507918710
 H    1.1213119125   -0.8340476130    3.2805575435