22

 C    1.1696534253    1.1909006495    0.1356685852
 O    0.7222427484   -0.1676468577    0.0251777475
 C    0.5227998326   -0.8088603131    1.1911484384
 O    0.7133593640   -0.3132056638    2.2744303617
 C   -0.0294862910   -2.2129053443    0.9627513180
 N   -0.0081938756   -3.0680304415    2.1306275875
 C    1.1938593578   -3.8954528015    2.3093817881
 C    2.5171827494   -3.1194805567    2.4364297941
 C    0.9698154875   -4.8034945926    3.5209405749
 H    2.1278732293    1.2385579742    0.6588947629
 H    1.2741660989    1.5534710906   -0.8868798116
 H    0.4405159840    1.7933340232    0.6832753869
 H   -1.0629159976   -2.0736166408    0.6103913572
 H    0.5061873395   -2.6799626821    0.1306720394
 H   -0.1451720819   -2.4884711707    2.9549220745
 H    1.2583473536   -4.5325009734    1.4155168180
 H    2.4931390391   -2.4465656281    3.2996603231
 H    3.3585185114   -3.8101623427    2.5601605221
 H    2.7206294646   -2.5137948429    1.5475998733
 H    0.9016787624   -4.2108071508    4.4415211327
 H    0.0396640158   -5.3668509247    3.4116057823
 H    1.7984640523   -5.5074725901    3.6425079538