14

 N    0.2201300220    1.2282424344   -0.6174962298
 C   -0.1971759775    0.3125814725    0.4315076041
 C   -1.4830155550   -0.4252608780    0.1717665612
 N   -2.2714605864   -0.3041165425   -0.8536234406
 C   -3.2686565655   -1.2095888223   -0.5512755637
 N   -4.2975909004   -1.4483830578   -1.4238962561
 N   -3.1204316916   -1.8452086859    0.5879710582
 O   -1.8976054951   -1.3147759918    1.0726727658
 H    0.3151522631    0.7168270715   -1.4902860215
 H   -0.5197738974    1.9038488076   -0.7859055562
 H    0.5926051858   -0.4274455077    0.6072934873
 H   -0.3016324039    0.8624216800    1.3748589163
 H   -4.5157115657   -0.6702312752   -2.0268440091
 H   -5.1050492124   -1.8978404148   -1.0192441358