25

 C    0.1098969465    1.3376591958   -0.5082126483
 C    0.1306267855   -0.0688417830    0.1108927821
 C    0.6674057983   -0.0264485345    1.5503494923
 C   -1.2618560892   -0.6798910470    0.0830636353
 C   -1.9388677195   -1.3354832243   -1.1014477877
 C   -1.1176938295   -1.8670308072   -2.2706903652
 C   -0.0661542350   -2.8380601423   -1.6699563042
 C   -0.5705945947   -3.2062433381   -0.2488719108
 C   -1.6046865278   -2.1533774411    0.1333991597
 H    1.1086450454    1.7873612656   -0.5048096550
 H   -0.2486473866    1.3128155438   -1.5419719009
 H   -0.5546931088    2.0019548146    0.0573627171
 H    0.8168022594   -0.6822231319   -0.4814204788
 H    1.6747716903    0.4021694447    1.5856373207
 H    0.0223441582    0.5899597911    2.1881411941
 H    0.7080035496   -1.0277978960    1.9902117808
 H   -1.9582604905   -0.0789346416    0.6695703559
 H   -2.9623873048   -1.0418840916   -1.3121787518
 H   -1.7904155603   -2.4045091538   -2.9487529284
 H   -0.6455586732   -1.0761605662   -2.8646140470
 H    0.0622571663   -3.7274425733   -2.2938130025
 H    0.9158179749   -2.3610006376   -1.6196672202
 H   -1.0629296120   -4.1853693704   -0.2601476698
 H    0.2559072238   -3.2828569930    0.4667789593
 H   -2.3839929764   -2.4574487729    0.8250799933