17

 O    0.1324422739    1.4111319690    0.0710713107
 C    0.0675884498   -0.0045845612    0.1405552802
 C   -1.3605643199   -0.5417927960   -0.0491553737
 C   -1.4242637404   -2.0330118963    0.0103197395
 C   -1.9925652481   -2.8302661915    0.9618545106
 N   -1.7437990966   -4.1388786395    0.5525105246
 C   -1.0495865898   -4.0472950617   -0.6068112045
 O   -0.6682710403   -5.1658988755   -1.2467698696
 N   -0.8289487833   -2.8158714607   -0.9773963081
 H   -0.1011106071    1.6698029261   -0.8261017646
 H    0.7353301138   -0.4808750472   -0.5913134672
 H    0.4313312529   -0.2727398963    1.1379207887
 H   -2.0097050674   -0.1039509561    0.7161348356
 H   -1.7336810669   -0.1992297544   -1.0244847474
 H   -2.5380925061   -2.6121579755    1.8641708254
 H   -2.0306396102   -4.9893344514    1.0051896090
 H   -0.1966584946   -4.8750483720   -2.0373254692