18

 C   -0.0331886708    1.6107974200   -0.0193773991
 C    0.0142927951    0.0908239451    0.0070993851
 C    0.7068329069   -0.6648704841   -1.1888563281
 N    1.7106835966   -1.1324338407   -0.2392875324
 C    1.1178145793   -0.5730545832    0.8734753330
 O    1.3785026811   -0.6047513592    2.0438066135
 C   -0.1272943367   -1.7582555782   -1.8409040246
 C   -1.1318735434   -1.2975996639   -2.8789401280
 O    0.0225047863   -2.9201972483   -1.5426387676
 H    0.9406854966    2.0318995914   -0.2886596254
 H   -0.7747453963    1.9778399407   -0.7362641710
 H   -0.3024279772    1.9921375686    0.9700344418
 H   -0.9655422783   -0.3325594180    0.2505981565
 H    1.1021461692    0.0140356029   -1.9554036344
 H    2.2892825441   -1.9580194492   -0.3049393774
 H   -1.7357139024   -0.4645156635   -2.5034787040
 H   -0.6019398253   -0.9312504342   -3.7662183037
 H   -1.7766867147   -2.1290609561   -3.1648868542