21

 C   -0.1664428251    1.5430380643   -0.0155454905
 C    0.0179347458    0.0234330890    0.0074063714
 C    0.8047661789   -0.4377826913   -1.2140756324
 O    1.0964553780   -1.8434840441   -1.2394837967
 C    1.3408629339   -2.5634809334   -0.1166012437
 O    1.8354120700   -3.6530517563   -0.2308215698
 C    0.8773570011   -2.0021808555    1.2318420243
 C    1.7395467986   -2.5542250116    2.3709416194
 C    0.7542898085   -0.4731206453    1.2524014747
 H    0.8001101558    2.0585415064    0.0203960301
 H   -0.6875474112    1.8708561416   -0.9211447886
 H   -0.7527878488    1.8752747729    0.8463787975
 H   -0.9720691699   -0.4529655279   -0.0247888884
 H    0.2583189844   -0.2434803228   -2.1412236466
 H    1.7585022869    0.1063652472   -1.2683055349
 H   -0.1381933894   -2.4135263580    1.3426807911
 H    2.7600728757   -2.1612609155    2.3138675821
 H    1.3191749221   -2.2656087654    3.3391870521
 H    1.7966673412   -3.6420075104    2.3167139570
 H    1.7551138420   -0.0189088301    1.2881848476
 H    0.2379203216   -0.1588799538    2.1665491145