15

 C   -0.1831605009    1.5090410590   -0.1146895401
 C    1.3718919913    1.8147710688    0.0988524314
 C    2.1580842334    1.9322212744    1.4021488075
 C    2.7051906720    0.7384218665    1.7443320978
 C    2.1299978154   -0.3033277241    0.8755664929
 N    1.3856266045   -1.3712407978    1.1707215303
 C    0.1887483171   -1.1697998204    0.4945520388
 C    0.2352918736    0.0057936451   -0.2483921865
 N    1.5662391500    0.3902346476   -0.1520736662
 H   -0.7964246648    1.6837611820    0.7678479129
 H   -0.6264582924    2.0011753128   -0.9830889569
 H    1.7820430165    2.4817997130   -0.6680460830
 H    2.3789249285    2.8778919824    1.8832033556
 H    3.3454285691    0.5577881927    2.5968842385
 H   -0.6291784734   -1.8616166721    0.6339329968