17

 C   -0.0245695837    1.5552389381    0.0524870441
 O    1.3508328261    1.9836728284    0.0269936325
 C    2.1462965036    0.8093926847   -0.0912840756
 C    2.0010564004    0.1363488401   -1.4559495413
 C    1.7258246142   -1.3166535489   -1.1590012735
 O    1.8359498289   -1.5393512387    0.2332647280
 C    1.3774450690   -0.2867718420    0.7009501423
 C    0.0424993929    0.0264483416   -0.0422715330
 C    0.5591472426   -0.3988807465   -1.4193223932
 H   -0.4899908152    1.8952842718    0.9875318166
 H   -0.5690772792    2.0070298675   -0.7854154719
 H    3.1616838766    1.0428295260    0.2279089183
 H    2.4887155997    0.4875217937   -2.3540949798
 H    2.0195017882   -2.1505625098   -1.7801051415
 H    1.3953999329   -0.2401719243    1.7868513918
 H   -0.8449679440   -0.4989991501    0.3116476912
 H   -0.0704382228   -0.4671475017   -2.2958255549