20

 C   -0.0802691748    1.5783658959    0.1512539741
 C   -0.0423073811    0.0487700665    0.0959148632
 C   -1.4273974065   -0.5809573291   -0.0915432129
 C   -1.4053244024   -2.1040581212   -0.1405763904
 C   -1.0755697904   -2.8676410153    1.1852647478
 C   -2.3131054388   -3.7421292002    0.9292290334
 O   -2.7136373918   -4.7691045920    1.3943279011
 C   -2.7823860699   -2.8386666902   -0.2218704922
 H    0.9215462141    1.9983380174    0.2835655595
 H   -0.4981570198    1.9973693975   -0.7708792994
 H   -0.7009569150    1.9293070764    0.9832241355
 H    0.6132259587   -0.2732180914   -0.7240880707
 H    0.4116857710   -0.3405764269    1.0165485532
 H   -2.0896566961   -0.2579734300    0.7251665192
 H   -1.8786097244   -0.1970118972   -1.0169253982
 H   -0.7450577854   -2.4410202477   -0.9463819434
 H   -0.1216400579   -3.3950101450    1.2643823360
 H   -1.2027708128   -2.2476866834    2.0811574399
 H   -3.6247088009   -2.2054222992    0.0814933283
 H   -3.0490934258   -3.3446767048   -1.1533276740