22

 C   -0.3801816175    1.7049923918   -0.1087281976
 O   -0.1120172409    0.3425448954    0.1978940616
 C   -1.1743563177   -0.4849744162    0.1492647600
 N   -1.0457634173   -1.7138030732    0.3883924933
 C   -2.2212830855   -2.5395712142    0.3160614076
 C   -2.1451459030   -3.7877853420   -0.6054856727
 C   -2.8835541807   -4.6025189690    0.4891797520
 C   -2.5106318116   -3.4978851594    1.5236178761
 C   -1.2949787453   -3.8308253342    2.3818752881
 H    0.5683431946    2.2343350372   -0.0114811610
 H   -0.7516572487    1.8209642150   -1.1343003729
 H   -1.1061484599    2.1398808779    0.5892331003
 H   -2.1252564782    0.0075238218   -0.1123136546
 H   -3.1281417295   -1.9551705077    0.0848563730
 H   -2.6082145346   -3.7080265188   -1.5921808933
 H   -1.1074131968   -4.1062040786   -0.7294890587
 H   -3.9605424618   -4.6623435444    0.3096723242
 H   -2.5116346655   -5.6092056118    0.6964839525
 H   -3.3320391946   -3.1646993853    2.1663391583
 H   -0.4548116076   -4.1787085899    1.7735719372
 H   -0.9497114871   -2.9529932742    2.9358276898
 H   -1.5433401007   -4.6182388301    3.1021667368