12

 C   -0.0397085406    1.4963635625   -0.0020064317
 C    0.0166825600   -0.0103418062    0.0391659383
 N    0.0887638161   -0.7130889708    1.1196950628
 O    0.1074886327    0.0988887593    2.2373179097
 C   -0.0088903689   -0.7475198142   -1.1732985023
 C   -0.0343332703   -1.3155635779   -2.2425908377
 C   -0.0622984610   -1.9657095578   -3.4400198582
 N   -0.0863476175   -2.5168811114   -4.4632378303
 H    0.8473282448    1.9157627884    0.4824408516
 H   -0.0973257914    1.8586508324   -1.0280749153
 H   -0.9095351751    1.8519859890    0.5586544276
 H    0.1615833214   -0.5368272133    2.9606875055