18

 C   -0.0865386788    1.4385478725    0.0353855769
 N   -0.0263348861   -0.0120166565    0.0289866513
 C   -0.0513321755   -0.7834970020   -1.0923492989
 C    0.0227296256   -2.1253476184   -0.7418912375
 C    0.0231215797   -3.2894820371   -1.6875290945
 C    0.0958447461   -2.1554813432    0.6645036285
 C    0.0650338676   -0.8461344633    1.1337948696
 C    0.1148439455   -0.3697437217    2.5002003038
 O    0.1948540790   -1.0891692302    3.4768403844
 H    0.8096858159    1.8711103143    0.4897935764
 H   -0.1537806653    1.7873308622   -0.9962994355
 H   -0.9647324238    1.7970723700    0.5804104642
 H   -0.1203159198   -0.3272255179   -2.0690391851
 H    0.9359891139   -3.8877944771   -1.5912432528
 H   -0.8220094090   -3.9615041338   -1.5012134817
 H   -0.0441217849   -2.9551853090   -2.7268955471
 H    0.1647304992   -3.0240725029    1.3018487247
 H    0.0744818808    0.7371456141    2.6181143033