10

 O   -0.3675189267    0.0551525172    0.0044064442
 C   -0.0964281803    1.2206538077    0.0088818696
 N    1.1937787335    1.7629075453    0.0001347360
 C    2.4070452074    1.0722090605   -0.0145324996
 O    2.5419368347   -0.1189758385   -0.0229855041
 C    3.6127341804    2.0419800566   -0.0210777436
 O    4.7402274082    1.6465279919   -0.0343332981
 H   -0.8521468584    2.0310561014    0.0192696943
 H    1.2413750906    2.7725937394    0.0050871909
 H    3.3668155906    3.1308150285   -0.0128770195