14

 N   -0.1925550206    1.2800141271    0.0722028058
 C   -0.1078041754    0.0295008747    0.1683699843
 O   -1.1275809501   -0.7388058540   -0.3117592271
 C   -1.0161548973   -2.1217450804   -0.1008553398
 C   -1.4006135650   -2.6743899633    1.2609596963
 C   -2.3293911280   -2.8356004843    0.0900122078
 C    0.0367768215   -2.7726396471   -0.8484869508
 N    0.8893746350   -3.2889659923   -1.4349745638
 H    0.6397956851    1.7202515805    0.4588859555
 H    0.7138204420   -0.5541097351    0.5992140243
 H   -0.8615616073   -3.5401524322    1.6264930356
 H   -1.6521641962   -1.9300402123    2.0074377331
 H   -3.2018202270   -2.1952227852    0.0404109192
 H   -2.4391318570   -3.8137030960   -0.3614037604