20

 C    0.5978776760    1.5731295010   -0.0022403351
 C    0.2235280859    0.1066449062    0.0952598241
 N    0.9347592946   -0.8082429204   -0.8558651326
 C    1.2486904313   -1.7669271759    0.2327732873
 C    2.6459491959   -1.5382528610    0.8456143613
 C    3.8115533421   -1.0788375342   -0.0061526397
 O    4.8357384756   -0.5372002855    0.8133456058
 O    2.1226146012   -0.4398816223    1.6628506021
 C    0.7646194154   -0.7361826329    1.2771535285
 H    1.6683182222    1.7022717291    0.1723117508
 H    0.3566388008    1.9668321234   -0.9946610450
 H    0.0493735079    2.1632326051    0.7401480983
 H   -0.8685623378   -0.0154010534    0.0441138679
 H    0.3426822583   -1.1907893086   -1.5827576002
 H    0.8835193277   -2.7884965674    0.1222437442
 H    2.9571524875   -2.3583104828    1.5071827787
 H    4.2463912497   -1.9343263508   -0.5357298180
 H    3.4542814202   -0.3594593283   -0.7530242544
 H    4.4150845708    0.1467103969    1.3478259471
 H    0.1176654446   -0.9176919181    2.1379472688