16

 O   -0.1213351433    0.0979561712    0.4690262334
 C    0.1043712199    1.0406199830   -0.2406239700
 C    1.3448181891    1.9067199757   -0.1069493343
 O    1.3087920673    2.8834415592   -1.1305121001
 C    2.4224897551    3.7135882525   -1.1850425648
 C    2.2554602360    4.7233368573   -2.3371460169
 N    1.9842899960    6.0127104049   -1.6836921123
 C    2.1371340407    5.8024790687   -0.4460082775
 O    2.4857593597    4.5579875081   -0.0116040799
 H   -0.5804986142    1.3592066243   -1.0565965648
 H    1.3569811274    2.3673214336    0.8900289330
 H    2.2384460290    1.2679089692   -0.1884904390
 H    3.3475808117    3.1241716660   -1.1948782755
 H    3.1570103242    4.8023057303   -2.9524307211
 H    1.4234424785    4.4266207332   -2.9807871850
 H    2.0284392329    6.5389532230    0.3418622549