17

 C   -0.0568157591    1.5664968329    0.0008886149
 C    1.4891202397    1.5233161638    0.0178782076
 C    2.2109796761    1.3998800810    1.3801382010
 C    2.0220218512   -0.1524226678    1.2407168742
 C    0.8831431438   -0.7382917965    2.0259292816
 C   -0.2532987485   -0.6548023458    1.3347463769
 C   -0.0135245329   -0.0028686324    0.0027055276
 N    1.4878000182    0.0184659709   -0.1617359627
 H   -0.5499669583    2.0345731251    0.8560605907
 H   -0.4635056311    1.9927317583   -0.9195453615
 H    1.9974459435    2.1176459584   -0.7461249385
 H    3.2553348030    1.7194987709    1.3422093952
 H    1.7286456507    1.8671695929    2.2418842994
 H    2.9465053585   -0.7357310116    1.2983603731
 H    0.9947298656   -1.1320391566    3.0296203238
 H   -1.2337747627   -0.9683158821    1.6742477096
 H   -0.5467571778   -0.4790735613   -0.8262293528