19

 O    0.0025580909    1.4471842731    0.0497448959
 C    0.0561962327    0.0391033184    0.0736793139
 C   -1.3507168880   -0.5635064979    0.0317406442
 O   -2.0582814392   -0.0127177205   -1.0863301993
 C   -1.3617598151   -2.0838499789    0.0156937735
 C   -0.9844336598   -2.8073023294    1.3500571081
 C   -2.2870123596   -3.6171295292    1.2165395979
 O   -2.7209471743   -4.5797391620    1.7765507082
 C   -2.7662975560   -2.7660749141    0.0303515291
 H   -0.6867647255    1.6663000207   -0.5910410269
 H    0.6390149242   -0.3602445234   -0.7782813642
 H    0.5776515361   -0.2568195794    0.9904642137
 H   -1.9078374176   -0.2010524474    0.9052931553
 H   -1.6833499974   -0.3944652758   -1.8894214105
 H   -0.7496200213   -2.4486321786   -0.8174619078
 H   -0.0611170335   -3.3909487662    1.3759436734
 H   -1.0008685513   -2.1466574016    2.2246035948
 H   -3.5752639956   -2.0810998627    0.3060604930
 H   -3.0774239698   -3.3228226151   -0.8570439021