18

 C    0.2415436872    1.4638693463    0.3460890112
 C   -0.2460087068    0.0989191461   -0.1541741173
 C    0.5835084490   -0.4530679640   -1.2994188653
 C    1.9908602650   -1.0003008822   -1.0233933477
 C    0.8935273945   -1.9473822559   -1.3714481352
 O    0.3053446544   -2.7473342457   -0.3937781526
 C    0.4019555218    0.1910715762   -2.6258799725
 O   -0.3534358967    1.1035153872   -2.8555481374
 H    1.2751495171    1.4113951331    0.7056379597
 H    0.1951327895    2.2100224728   -0.4510015443
 H   -0.3815896487    1.8145963590    1.1744850420
 H   -0.2463247882   -0.6306894900    0.6595504540
 H   -1.2814059556    0.1889081511   -0.4999530748
 H    2.7766682004   -0.8142733380   -1.7486709343
 H    2.3032360838   -0.9585282380    0.0144808860
 H    0.9100730626   -2.3894076034   -2.3682429064
 H    0.9468942765   -3.4148694730   -0.1291417371
 H    1.0326123642   -0.2451294115   -3.4380168280