20

 C   -0.2271961082    1.6013137532   -0.2179088586
 C   -0.0473660514    0.1090153166   -0.0354563633
 O    0.9089096225   -0.5304865987   -0.9971832112
 C    1.8363890019   -0.7180051156    0.1177366984
 C    2.4905171139   -1.7377746067    1.1388848376
 N    1.9292461146   -0.7270683879    2.1909692916
 C    2.7832104418    0.4594297627    1.8820788516
 C    2.8128830010    0.4691508258    0.3327784465
 C    0.7728578141   -0.6181860324    1.1177694581
 H    0.6693275202    2.1844735687   -0.0100673734
 H   -0.5399076131    1.8077545147   -1.2465331036
 H   -1.0214556057    1.9478131537    0.4521538690
 H   -1.0190397892   -0.3838188078   -0.1430006207
 H    1.9902324558   -2.6998737572    1.2311091387
 H    3.5794365294   -1.8417063878    1.1801980032
 H    2.3241550759    1.3536705667    2.3107978396
 H    3.7641038247    0.3234240301    2.3450437716
 H    3.7982820518    0.2420469813   -0.0845117173
 H    2.4731745509    1.3997088565   -0.1168550511
 H    0.2434386591   -1.5608044359    1.2594908932