19

 C   -0.1138354079    1.5244025075    0.0811444838
 C    0.0102119566    0.0194340130    0.0470868500
 O   -1.1365704912   -0.6772513497   -0.3520077231
 C    1.3557913999   -0.6372897602   -0.3000356694
 O    2.5171495208    0.1197892798   -0.4902026981
 C    0.8203736670   -0.6945603350    1.0963349584
 C    1.4577807706   -0.1491242479    2.3673076248
 C    0.9963605098   -1.4943503820    2.9706680314
 O    0.4095909037   -1.9087014033    1.7122261913
 H    0.8308218015    1.9910074890    0.3709413646
 H   -0.3856005302    1.9107799068   -0.9100108051
 H   -0.8938959297    1.8336812022    0.7839993328
 H   -1.2793310287   -0.5044761066   -1.2898081715
 H    1.2763651493   -1.5657462249   -0.8681155962
 H    2.4795669978    0.5194884399   -1.3657889792
 H    2.5359655299    0.0033337572    2.3072112519
 H    0.9849752553    0.7398972205    2.7883460504
 H    1.7968889702   -2.1730016034    3.2852851672
 H    0.2430587353   -1.4295789529    3.7634312961