11

 N    0.0153657631    1.3230090218    0.0094695562
 N    1.2837890786    1.8163574304    0.0000105655
 C    2.1149215202    0.7681007379   -0.0140366781
 C    1.3495504007   -0.4080940580   -0.0134093129
 C    0.0300477005   -0.0290973131    0.0015415184
 N   -0.8063475210   -1.1240449772    0.0033203361
 C    0.0469163638   -2.1057571521   -0.0106326986
 O    1.3767375964   -1.7772994292   -0.0215742215
 H   -0.7583368410    1.9642200032    0.0206621365
 H    3.1807419123    0.9283145239   -0.0234188167
 H   -0.1743837936   -3.1618160177   -0.0145830949