17

 O    0.0050866415    1.4305608496    0.0436292033
 C   -0.0469024276    0.0495075756   -0.0315427742
 C   -0.4688736352   -0.7365365729    1.1723400085
 O   -1.0466160237    0.0888347685    2.1664846172
 C   -2.4471861027    0.2277859154    1.8932030950
 C   -2.6084325948    0.0089669201    0.3903064979
 C   -3.9123911223   -0.0872565246   -0.2700687406
 O   -3.1118331592    1.0899736319   -0.3979651253
 C   -1.3695833784   -0.7247008631   -0.0453214285
 H   -0.2130529523    1.6594608512    0.9583971836
 H    0.7333043753   -0.3631979106   -0.6652007750
 H    0.0555315998   -1.6065180713    1.5545238595
 H   -3.0082216138   -0.5260713743    2.4635529716
 H   -2.7703447052    1.2263266203    2.1982861978
 H   -4.0174291380   -0.6870585194   -1.1736289672
 H   -4.8257700623    0.0257783249    0.3147422332
 H   -1.4607270809   -1.5812075615   -0.7024738167