16

 O   -0.0009171184   -0.0250450036    0.0070789863
 C    0.0189876648    1.1661085108    0.0116275814
 O   -1.1482213699    1.9358802514    0.0308274578
 C   -0.7155095410    3.2403508337    0.0302449739
 N    0.5306866038    3.4687536968    0.0140896594
 C    1.1684074051    2.1604162470   -0.0000808112
 C    2.2683015261    1.8575397428    1.0674389238
 C    3.1085984559    1.1571403225   -0.0309119813
 C    2.2385013288    1.8665085618   -1.0999154906
 H   -1.5094533661    3.9773103250    0.0441361799
 H    2.7086319238    2.7988519950    1.4023095743
 H    1.9580924053    1.2690007537    1.9327323521
 H    4.1801935580    1.3613295160   -0.0447944091
 H    2.9482315822    0.0776463805   -0.0331811025
 H    1.9045612176    1.2850991315   -1.9611863888
 H    2.6695539039    2.8106123349   -1.4389676553