18

 C   -1.3443157456    0.3531235958   -0.3190745482
 O    0.0242621690    0.0807946865   -0.0669609467
 C    0.6405546757   -0.7488173651   -1.0137283914
 C    0.8361170109   -0.1072374378   -2.3768867651
 C    1.5533562848    1.2240984600   -2.2542227251
 O    1.1814337993    2.2473792276   -2.7666628407
 C    1.7064869618   -1.6312967065   -0.4339327114
 C    0.3941163291   -2.2329754172   -0.8975199871
 H   -1.4840722846    0.9820172663   -1.2082376653
 H   -1.9224711917   -0.5728164411   -0.4445971534
 H   -1.7207672440    0.8942139107    0.5517907215
 H    1.4515141900   -0.7705908819   -2.9986708479
 H   -0.1091021872    0.0551171614   -2.9037775879
 H    2.4807966309    1.1898299560   -1.6391076929
 H    2.6010051842   -1.8214577399   -1.0168099790
 H    1.8650202096   -1.5511855739    0.6348531951
 H   -0.2983827270   -2.5538422376   -0.1277193894
 H    0.3840607849   -2.8362802931   -1.7987838050