15

 C    0.0903226474    1.4506999234    0.3334477399
 N    1.1315293245    2.1409073477   -0.4295216194
 C    2.1838106413    1.4254374552   -0.9300109792
 N    3.3278475847    1.9248749718   -1.3317410237
 O    4.0388029734    0.8071572037   -1.8376577781
 C    3.2816443928   -0.2914010677   -1.7026114072
 C    2.0879002163    0.0093364674   -1.1315168623
 C    0.8867596723   -0.6840617324   -0.7258089233
 C   -0.0520236164   -0.0017903381   -0.0572077946
 H    0.2767817156    1.5085098682    1.4224042976
 H   -0.8624549085    1.9692190939    0.1646459966
 H    1.3249958221    3.0962232093   -0.1710555767
 H    3.7228207251   -1.2126997254   -2.0518944959
 H    0.7549462773   -1.7346306899   -0.9615805371
 H   -0.9612992679   -0.4906800071    0.2762670133