21

 C    0.4987062317    1.4769797015    0.1109521939
 C   -0.0747139786    0.0742973064   -0.0564454789
 C    0.4601110629   -0.6977754178   -1.2929685764
 C    1.1775989837   -1.9080632558   -0.7111572588
 O    1.1015824880   -3.1208385535   -1.3978983189
 C    2.3535868757   -1.6443628998    0.2118617529
 C    0.9522589594   -1.8709518143    0.7669090097
 C    0.6203420399   -3.0667116308    1.6120680164
 O    0.2317490611   -0.7160367660    1.1107808574
 H    1.5933128935    1.4595173332    0.1252359222
 H    0.1763243896    2.1217682800   -0.7138564388
 H    0.1524422572    1.9183935606    1.0496219370
 H   -1.1686693651    0.1485563902   -0.1075037040
 H   -0.3565283439   -1.0577927526   -1.9246130821
 H    1.1088091931   -0.0662683485   -1.9102952750
 H    1.8126588107   -3.1415195751   -2.0473970885
 H    3.0587407435   -2.4613201864    0.3301459574
 H    2.7843858163   -0.6496718104    0.2593776674
 H    1.1244831180   -3.9540729369    1.2222617455
 H    0.9318365119   -2.9120230294    2.6499587923
 H   -0.4586003787   -3.2496637545    1.6026296092