22

 C   -0.3910830055    0.3243448417    0.9773440354
 O    0.9201963982    0.1703316937    1.4757731103
 C    1.7994771783   -0.4285842968    0.5562165782
 C    1.5032275958   -1.8922243950    0.2584115545
 N    1.5622110113   -2.3174130988   -0.9364738301
 O    1.2276280905   -2.5570138267    1.4050367815
 C    0.9410437723   -3.9674254452    1.3698438303
 C    2.2413236605   -4.7691110422    1.3309919197
 C    0.1038924446   -4.2573287568    2.6090519151
 H   -0.8690263780   -0.6426604438    0.7632970325
 H   -0.9681216139    0.8382718283    1.7496870385
 H   -0.4069137044    0.9281068986    0.0569006232
 H    1.8177809477    0.0993013889   -0.4065000549
 H    2.7955544811   -0.3647854093    1.0087940022
 H    1.4097743094   -3.3221096963   -1.0133583208
 H    0.3411022714   -4.1805417958    0.4747963994
 H    2.0251774596   -5.8414069808    1.2981507932
 H    2.8428336293   -4.5142108644    0.4546820821
 H    2.8361498159   -4.5634695692    2.2261769876
 H   -0.8111536117   -3.6597870258    2.6042938114
 H   -0.1703111825   -5.3158444174    2.6422927956
 H    0.6672930501   -4.0155908969    3.5151732349