13

 O    0.3558167124    1.2957653317    0.0450933270
 C    0.1520709480   -0.0283150927    0.0257329973
 C   -0.9928814095   -0.7681995629   -0.0126968441
 N   -0.5642527406   -2.1211798803   -0.0155441426
 C    0.8079724010   -2.2219846793    0.0201880065
 O    1.5115472499   -3.2082616261    0.0289786816
 N    1.2278207205   -0.8770196687    0.0452458087
 C   -2.3164658109   -0.3207924955   -0.0438154693
 C   -3.4540068421    0.0854655793   -0.0704904029
 H   -0.5062980240    1.7315900513    0.0266915922
 H   -1.1664238529   -2.9244022797   -0.0401782612
 H    2.1954866910   -0.6058903853    0.0752732198
 H   -4.4549199629    0.4385563482   -0.0937613429