21

 C    0.3998577178    1.3528500834   -0.2065296887
 C    0.0306862304   -0.0225501168    0.3222547146
 O   -1.0576051466   -0.5164666330   -0.4384699635
 C   -1.4757155757   -1.7897176103   -0.0597655792
 C   -2.3021495142   -1.9842376214    1.2410938770
 C   -3.1854872318   -2.9944988511    0.4638460450
 C   -2.6667465704   -2.3782949515   -0.8837167516
 C   -3.5602500424   -1.3875422619   -1.4527424723
 C   -4.3267805330   -0.5888840742   -1.9220728319
 H    1.2413004901    1.7656493117    0.3580062194
 H    0.6820788767    1.2940856672   -1.2614347993
 H   -0.4489275085    2.0365065725   -0.1175906274
 H    0.8881198547   -0.7127565492    0.2444466181
 H   -0.2418232368    0.0343032633    1.3883244618
 H   -0.6327508076   -2.4996566541   -0.0857855120
 H   -1.7850133226   -2.3347449907    2.1366026860
 H   -2.8556364497   -1.0701152319    1.4719145711
 H   -2.8442793540   -4.0258562079    0.5812472713
 H   -4.2621672219   -2.9521117171    0.6269932175
 H   -2.3754537503   -3.0986896116   -1.6536153923
 H   -4.9898519643    0.1259590046   -2.3418228537