17

 C   -0.0659585732    1.5433241306    0.0325887011
 C    0.0600854163    0.0205396801    0.0300031744
 C    1.0096630448   -0.5673438890   -1.0824147738
 C    1.9964889936   -1.3495353823   -0.1785941191
 N    1.1314809860   -1.9847228997    0.8740620117
 C    0.7745124814   -0.5822952125    1.2745713001
 C    2.2493485473   -0.2916889444    0.9194085819
 O    3.1498808087    0.3730857692    1.3230845692
 H    0.9148292761    2.0235062411    0.1178311392
 H   -0.5343851799    1.8998304174   -0.8902658479
 H   -0.6794089641    1.8878289283    0.8719669384
 H   -0.9386937492   -0.4237482917   -0.0478769343
 H    0.4896912704   -1.2318770145   -1.7782397008
 H    1.5021780644    0.2153855556   -1.6681473661
 H    2.7830418310   -1.9482132124   -0.6343761635
 H    0.3358588104   -2.4795727309    0.4684606656
 H    0.3430782359   -0.4174870548    2.2607894241