19

 C   -0.0378080125    1.5257659305   -0.0498626954
 C   -0.1192655322    0.0399807497    0.2533671588
 O   -1.3138317895   -0.4702274679   -0.3185842412
 C   -1.4568551168   -1.8414408099   -0.1931952343
 C   -2.0292793901   -2.5407201691    1.1074737508
 C   -3.3317356108   -1.7630736270    1.3363477080
 C   -3.8426237429   -1.7242093963    0.1045362819
 C   -2.7770515518   -2.4906486450   -0.6980394489
 O   -2.4637773921   -3.6042114968    0.2010659859
 H    0.8716664764    1.9535179168    0.3823448272
 H   -0.0237762466    1.6960439200   -1.1300674577
 H   -0.9017691419    2.0497701283    0.3682249074
 H    0.7528495113   -0.4913621859   -0.1614927085
 H   -0.1170217636   -0.1340541466    1.3412790276
 H   -0.5727277995   -2.3823385909   -0.5577253977
 H   -1.4250437010   -2.8810090046    1.9470170427
 H   -3.6930365672   -1.3515705489    2.2667045925
 H   -4.7468055998   -1.2748681101   -0.2768709909
 H   -2.9574102496   -2.7745234866   -1.7335094282