21

 C    0.0116161303    1.5854361297    0.0615956132
 C    0.0039424836    0.0433290815    0.0422677410
 C    0.7452152223   -0.4864598357    1.1881368783
 C    1.3403931347   -0.9082438576    2.1441223263
 C   -1.4263760758   -0.5332756075   -0.0011030269
 C   -2.2326599681   -0.1596898935   -1.2666975325
 C   -3.1152656212   -1.4084979627   -1.5247650299
 O   -2.7981963998   -2.3614123744   -0.5145171606
 C   -1.4981826695   -2.0669475975   -0.0375343400
 H    1.0356905066    1.9664435484    0.0869689337
 H   -0.4834917906    1.9844887917   -0.8280772066
 H   -0.5107194828    1.9613329593    0.9465894032
 H    0.5178704610   -0.2871792891   -0.8728892241
 H    1.8732294294   -1.2880748691    2.9804101936
 H   -1.9649232922   -0.1896958164    0.8896826502
 H   -2.8275602647    0.7460039050   -1.1307927299
 H   -1.5583886157    0.0167776324   -2.1120193683
 H   -4.1869907082   -1.1979536473   -1.4563007803
 H   -2.9175065395   -1.8279407738   -2.5224056493
 H   -0.7220490529   -2.4713691197   -0.7122854750
 H   -1.3793859170   -2.5374185537    0.9403763638