14

 N    0.0464350912    1.4509522576   -0.1421471441
 C    0.0429775986    0.0413886791   -0.0636307562
 C   -1.0601746544   -0.7648300173   -0.0145964741
 O   -2.3874756724   -0.4541783182    0.0973353794
 N   -0.6338514491   -2.0952818674   -0.0744849351
 C    0.7283609183   -2.1069387925   -0.1125368827
 O    1.3470023737   -3.3172109807   -0.1253964212
 C    1.1965506883   -0.8163700617   -0.1289334872
 H    0.7703970142    1.8537543756    0.4423770280
 H   -0.8456863205    1.8221012579    0.1662337211
 H   -2.7666699186   -0.3434758446   -0.7836533466
 H   -1.2108138683   -2.8949723470    0.1200791287
 H    2.2968321838   -3.1662397592   -0.1230723947
 H    2.2269849651   -0.5057371316   -0.2099711953