19

 C   -0.0213281896    1.5927006287    0.0134525478
 C   -0.0800968341    0.0993590702   -0.0166829204
 C    0.8588086965   -0.9514576725   -0.5803443588
 C    0.4796265495   -0.9665564584    0.9074408891
 C   -0.8764378185   -1.6611660206    1.0244456417
 O   -1.6388178071   -1.2551025163    2.1399249229
 C   -1.2318510121   -0.9703470189   -0.3210877635
 C   -0.2724612421   -1.6371925362   -1.3452446513
 O   -0.4099442858   -1.2063467576   -2.6816090150
 H    0.9873057600    1.9321099461    0.2741959498
 H   -0.2760070782    2.0340452039   -0.9577617683
 H   -0.7122211935    2.0166895398    0.7522375394
 H    1.8897279771   -0.8275420590   -0.8928470944
 H    1.2346446195   -0.8536345068    1.6775090925
 H   -0.9059877481   -2.7560243747    1.0352579487
 H   -1.5628507016   -0.2966439150    2.2140799799
 H   -2.2690425342   -0.7668558219   -0.5833826186
 H   -0.2879032499   -2.7314939088   -1.3896666366
 H   -0.3124897779   -0.2470215019   -2.6921423948