15

 C   -0.0379380490    1.5751323886   -0.0687314095
 C    1.5135758651    1.3196420917    0.0128271865
 N    1.1419594029    0.2278489561    0.9882252876
 C   -0.0312040378    0.0082999465    0.0544576519
 C    0.6575435354   -0.3731937170   -1.2638891498
 C    1.6865255613    0.5166028127   -1.2732550252
 O    2.4186476927    0.4453678042   -2.3702682030
 N    1.8521266814   -0.5820343744   -3.1752906191
 C    0.8055419925   -1.0330930934   -2.4999222102
 H   -0.4178641783    2.0709686852    0.8262400114
 H   -0.4356783259    2.0125084641   -0.9843950085
 H    2.2388854506    2.0708666258    0.3160336110
 H    1.8023402670   -0.5508897387    0.9649694158
 H   -0.8786556035   -0.5605558511    0.4303559338
 H    0.2257418656   -1.8266214303   -2.9505650927