19

 C   -0.0944643026    1.5496699937    0.0125660722
 C   -0.0338092355    0.0283634439   -0.0483914776
 C    0.8241981851   -0.4841218503   -1.2025258844
 C    0.7101804966   -1.9924231075   -1.4175785313
 C    1.3662295754   -2.8268390693   -0.3135113057
 N    0.8386677213   -2.7423879249    1.0366734779
 C    0.5006619772   -1.6865069454    1.6340064131
 O    0.4299458925   -0.3802008221    1.2535455919
 H    0.9109875811    1.9695944855    0.1152830069
 H   -0.5466906233    1.9503481786   -0.8990887039
 H   -0.6901292866    1.8733383374    0.8694823124
 H   -1.0510062727   -0.3741956899   -0.1692610905
 H    0.4997796186    0.0403780594   -2.1093212730
 H    1.8696739780   -0.1974472957   -1.0269866587
 H   -0.3481002375   -2.2719987386   -1.5061520999
 H    1.1849678855   -2.2653152426   -2.3678238391
 H    1.3309061862   -3.8825921697   -0.6044563658
 H    2.4346108583   -2.5642594345   -0.2643811298
 H    0.2460211924   -1.7486186878    2.6938655451