17

 O    0.0064426942    1.4154948695   -0.0726007060
 C    0.0388373311    0.0037632111   -0.0464869801
 C    0.7539463064   -0.6051645530    1.1872340491
 C    0.1096799783   -1.9888301717    1.4140537683
 C   -1.2920408450   -1.8302887829    0.8562325373
 O   -1.9590424680   -0.6134049863    1.2558680783
 C   -1.3399579995   -0.6435752352   -0.0286702948
 C   -2.1998920378   -2.9862418356    0.6297273850
 O   -1.8460892482   -4.1368783388    0.6910054940
 H   -0.4807341155    1.7044899803    0.7081651321
 H    0.5434560055   -0.2917506525   -0.9739179517
 H    1.8356009860   -0.6532744320    1.0500257761
 H    0.5612800304    0.0421876517    2.0476890698
 H    0.6136693341   -2.7787143934    0.8479772974
 H    0.1067600282   -2.2952373249    2.4636298052
 H   -2.0129152754   -0.5524680659   -0.8781664390
 H   -3.2462031749   -2.6921007404    0.3958049291