16

 O   -0.0822157915    1.4507080950    0.0707992846
 C    0.0003688125    0.0778308528    0.0246800293
 C   -0.2538405730   -0.7389723020   -1.2118640615
 C   -1.1195187165   -0.9456060468    0.0201056483
 N   -0.4941869264   -1.7350904946    1.1104177510
 C    0.3918498376   -2.8782535072    0.7108242552
 C    1.6125867832   -1.9278888441    0.7392468275
 O    2.7864962974   -2.0460229609    0.5562298144
 C    0.6670773694   -0.7708265051    1.1323394371
 H    0.5942094275    1.8189069557   -0.5085383300
 H   -0.7680863148   -0.1830003732   -1.9900294594
 H    0.4469285152   -1.4801793830   -1.5843820683
 H   -2.1954123147   -0.8213038871   -0.0121948652
 H    0.4305653123   -3.6545395276    1.4820275600
 H    0.1708415412   -3.3497031739   -0.2516455919
 H    0.8627631305   -0.2352562782    2.0647486388