20

 C   -0.1301188408    1.3924841379    0.0848479922
 N   -0.0564404400   -0.0613198381    0.0949364106
 C   -1.1185078479   -0.7290491481    0.0510818341
 O   -2.4182270600   -0.2482571618   -0.0087213769
 C   -3.2004200474   -1.4904302615   -0.0375015727
 C   -4.6674059379   -1.1818114983   -0.1039058588
 C   -2.4993044061   -2.3234028690    1.0679682304
 C   -1.3114394197   -2.2234720081    0.0495995237
 C   -2.4046792633   -2.3334654118   -1.0687969822
 H    0.4380740920    1.7728196175   -0.7717710685
 H   -1.1488185940    1.7938591981    0.0374526172
 H    0.3595726479    1.7810318690    0.9851391273
 H   -4.8995859426   -0.6054022517   -1.0044387061
 H   -5.2476946436   -2.1085605284   -0.1250317505
 H   -4.9779239191   -0.5967296654    0.7669403835
 H   -2.3816057515   -1.8568850398    2.0486104432
 H   -2.8940722593   -3.3372533285    1.1568393184
 H   -0.4192027713   -2.8407264444    0.0920137889
 H   -2.7904630536   -3.3482720105   -1.1826698924
 H   -2.2005673921   -1.8761314370   -2.0395354215