19

 O   -0.0158294297    1.3532043364    0.3804420747
 C    0.0190324095   -0.0035762613   -0.0488268639
 C   -1.3927465693   -0.5170660046   -0.0819070471
 C   -2.0472452684   -1.0705498426    1.1685901054
 C   -1.7536659351   -1.9843403871   -0.0012936524
 C   -2.8776130100   -2.2533894862   -1.0094805707
 O   -4.0045277531   -2.9474316283   -0.4887120043
 C   -3.1959542918   -0.8651373710   -1.5452922520
 C   -2.3758312083    0.0642882911   -1.0547922686
 H    0.8638398311    1.7253674175    0.2671709761
 H    0.4673777987   -0.0854759467   -1.0517292085
 H    0.6214604286   -0.6237118145    0.6341322566
 H   -1.4244547856   -1.1976127415    2.0485733380
 H   -3.0675948946   -0.7667581791    1.3807515760
 H   -0.9917130981   -2.7425207874    0.1366923052
 H   -2.5156825002   -2.9084253586   -1.8120388307
 H   -4.3263264900   -2.4432421027    0.2671369940
 H   -4.0279921757   -0.6976544163   -2.2196490630
 H   -2.3979932177    1.1255866830   -1.2733758249