19

 C   -0.0363647435    1.4675867622    0.0027688825
 N    0.0053274293    0.0221438627   -0.0084141301
 C   -0.0172656824   -0.7588632452   -1.1460024070
 C    0.0314381292   -2.0728220181   -0.7466304420
 O    0.0312160694   -3.1399087257   -1.6032924588
 C    0.0771553029   -2.1129981811    0.6749428566
 C    0.1331255445   -3.3387238439    1.5329104367
 C    0.0582659346   -0.7922256124    1.0991791439
 N    0.1004441802   -0.2170460537    2.3917814653
 H    0.1042589815    1.8021776138    1.0304938958
 H    0.7605338719    1.8802194325   -0.6248188982
 H   -0.9981882378    1.8416772568   -0.3673729711
 H   -0.0658584319   -0.3237620876   -2.1298245790
 H    0.0707208697   -3.9452661151   -1.0797172451
 H    1.0538780205   -3.9195887502    1.3839670590
 H    0.0934424912   -3.0704321872    2.5932078541
 H   -0.7094319874   -4.0187984536    1.3462220010
 H    0.8695024456   -0.5812747488    2.9427027995
 H   -0.7543830375   -0.3752606153    2.9158264368