17

 C    0.0550316998    1.1779639330   -0.4451564477
 O   -0.1508895752    0.1639219574    0.5171037257
 C   -1.3579937491   -0.5106264100    0.3432385129
 C   -1.4466508955   -1.6318363004   -0.6624556930
 C   -1.4323147752   -1.9273418176    0.8260146577
 C   -0.2274260343   -2.5893626795    1.4401079091
 O   -0.3221960500   -3.9886913800    1.1947271554
 H    1.0168206057    1.6451916552   -0.2208204837
 H    0.0791570904    0.7706601251   -1.4660484915
 H   -0.7326768360    1.9454077134   -0.3982518145
 H   -2.2384487140    0.1200468746    0.4803940195
 H   -2.3647083307   -1.7738276458   -1.2216545816
 H   -0.5391997990   -1.8712294450   -1.2069988965
 H   -2.3762377502   -2.2308679430    1.2694496587
 H    0.6864933637   -2.1621522811    1.0063171261
 H   -0.2043976784   -2.3800960285    2.5215138731
 H    0.4222511780   -4.4139429179    1.6306054504