20

 C   -0.4835708742    1.4372151549    0.1278242563
 C   -0.0587160171   -0.0236470091   -0.0023762210
 C    0.8391649617   -0.2909832338   -1.2011815056
 O    1.3100204577    0.5925778316   -1.8782658590
 C    1.1394171271   -1.7584064580   -1.4766386012
 N    2.1722441404   -2.0470578003   -2.4825042804
 C    2.6929530870   -3.1710986984   -1.6750616654
 C    2.0264277840   -2.5261991956   -0.4329793666
 O    2.8618489292   -1.7047133794    0.3445752237
 H    0.3905397711    2.0902611568    0.1817556028
 H   -1.0722030749    1.7541554345   -0.7376360494
 H   -1.0865522807    1.5863937492    1.0277739145
 H    0.5102814663   -0.3488201234    0.8802443329
 H   -0.9278280633   -0.6930981309   -0.0528559887
 H    0.1844276193   -2.2918091042   -1.6228262799
 H    1.8570207621   -2.2506689612   -3.4231919364
 H    2.2604172032   -4.1554563145   -1.9077314130
 H    3.7850395566   -3.2561627080   -1.6502491528
 H    1.5100388532   -3.1892343478    0.2612768179
 H    3.3462933113   -1.1275196424   -0.2594206087