19

 C   -0.3135256178    1.3725323296    0.1027648433
 N   -0.0730036916   -0.0435782262   -0.0587016513
 C    0.4339430001   -0.6458552428   -1.1785439552
 C    0.6082084532   -1.9859950942   -0.9183537305
 C    0.1866340785   -2.2080265482    0.4242521671
 C   -0.2275758257   -0.9919887838    0.9303299614
 N    0.2640040481   -3.4337938894    1.1159509490
 C   -0.8476632545   -3.8274669496    1.9704437114
 C   -0.5907507897   -4.5378893720    0.6858995657
 H    0.4840854997    1.8596276180    0.6767058063
 H   -0.3700131721    1.8426546464   -0.8813040134
 H   -1.2640162764    1.5402793933    0.6183566784
 H    0.6269598316   -0.0697184990   -2.0700320416
 H    0.9824328669   -2.7302177465   -1.6038843472
 H   -0.5938639919   -0.7226842755    1.9075850219
 H   -0.5767001324   -4.2835179565    2.9183874944
 H   -1.7141738902   -3.1698631791    2.0040984991
 H   -1.2829498361   -4.3492116357   -0.1317096474
 H   -0.1235169699   -5.5184600389    0.6812922885