13

 O    0.0494782939    1.3565604392   -0.1380934584
 C   -0.0027531599    0.0125904141   -0.0414025970
 C   -1.1368483433   -0.6954666485    0.0598935281
 N   -1.0745758468   -2.0853365596    0.1545611183
 C    0.0807534513   -2.8175710643    0.1537051894
 O    0.1447600568   -4.0117178957    0.2334116722
 O    1.2367390896   -2.0669759848    0.0478652654
 C    1.2711400694   -0.6949372067   -0.0499806803
 N    2.3530425679   -0.0404320455   -0.1453562659
 H    0.9978939913    1.5695784827   -0.1962687542
 H   -2.1212397062   -0.2501558751    0.0733785115
 H   -1.9191207009   -2.6280755783    0.2308239430
 H    3.1778107170   -0.6371549476   -0.1411824422