16

 O    0.0623195602   -0.0564953449    0.2772246394
 C    0.0023092329    1.0932758258   -0.0626816156
 O   -1.1511478155    1.5921612343   -0.5644439245
 C   -1.2847149069    3.0050008001   -0.7834969515
 C   -0.0019628240    3.7045645367   -1.2049012210
 C    1.0363498821    4.1449551102   -0.2469435465
 C    1.0603509402    3.2593269503    0.9911605584
 C    1.1656937112    2.0546907017    0.0061393266
 N    1.2841786954    2.9788509247   -1.1898095538
 H   -2.0346552109    3.0952059690   -1.5717940207
 H   -1.7012035983    3.4563560100    0.1252395635
 H   -0.0965329938    4.3089341739   -2.1021705601
 H    1.5616802569    5.0869601505   -0.3629830557
 H    1.9710617602    3.3672228147    1.5806292764
 H    0.1992884143    3.3106502971    1.6647205073
 H    2.0737562861    1.4675051259    0.1234374377