13

 N    0.0731467115    1.2031999692   -0.6554230693
 C    0.0597950946    0.0648275936   -0.1476466672
 O    0.9731740313   -0.6597124992    0.5669602857
 C    0.0761111488   -1.8112638924    0.6737582178
 C   -1.0297536229   -1.0272070911   -0.0708058917
 C   -2.1997255402   -0.5526067291    0.8158374079
 O   -2.2520463946   -0.7745321871    1.9913410627
 C   -1.5089720387   -1.5479931013   -1.3366763486
 N   -1.9198619606   -1.9757600281   -2.3283979332
 H    0.9604336357    1.6873071051   -0.5129860146
 H    0.4776760510   -2.6746405498    0.1436192936
 H   -0.1624334038   -2.0338413085    1.7134292760
 H   -2.9644397921    0.0346109487    0.2739576107