19

 O    0.0505790587    1.4515704456   -0.0122294222
 C    0.0227467698    0.0367485504   -0.0130467328
 C    0.7751299360   -0.5423232318    1.1924811393
 O    0.1882432591   -0.1194430314    2.4165732508
 C   -1.1613746530   -0.4866853339    2.6135955631
 C   -1.9337820658    0.7527197883    3.0851254143
 O   -2.3577389496    1.0282179127    1.7232261195
 C   -2.0525443778   -0.3499894048    1.3532325650
 C   -1.4140036071   -0.5045354609   -0.0124581956
 H   -0.5892814248    1.7423523832    0.6513824306
 H    0.5385658672   -0.2819734254   -0.9265941810
 H    0.8133993026   -1.6429536380    1.1251408759
 H    1.7983593285   -0.1603239802    1.2156666053
 H   -1.2397144920   -1.4153010064    3.1926467950
 H   -2.7931126012    0.5315264568    3.7309812214
 H   -1.3288643806    1.5575041151    3.5086462403
 H   -2.9609651407   -0.9623560929    1.4427834085
 H   -2.0158670849    0.0182013309   -0.7633731878
 H   -1.4104808244   -1.5702368773   -0.2736004494