22

 C   -0.2031081398    1.5355867945    0.0559380557
 C    0.0010310925    0.0096759886    0.0625386934
 C    0.7717158619   -0.4049704606    1.3290938481
 C   -1.3780020554   -0.6772115651    0.0667173285
 C    0.7492413545   -0.4543729059   -1.2135285820
 C    2.1722024245    0.1000134699   -1.4158212388
 C    2.7227856305   -0.3017406316   -2.7645283221
 O    3.7381598226   -0.9232485317   -2.9434824096
 H    0.7452112214    2.0787048856    0.1172382692
 H   -0.7220048836    1.8635383413   -0.8519857592
 H   -0.8088922557    1.8453900381    0.9140671381
 H    0.2060565381   -0.1398072121    2.2288042633
 H    0.9443573632   -1.4867095629    1.3514272755
 H    1.7445416649    0.0917591289    1.3963895091
 H   -1.9600167378   -0.4043313499   -0.8206683345
 H   -1.2776719571   -1.7680602227    0.0787263478
 H   -1.9580631106   -0.3856097415    0.9487238385
 H    0.8016970605   -1.5507196152   -1.2062157218
 H    0.1392850271   -0.1842910331   -2.0867010137
 H    2.1495147293    1.1982856497   -1.3910280048
 H    2.8658256102   -0.2467754499   -0.6461229455
 H    2.0934895889    0.0236252456   -3.6277745749