16

 O   -0.0447799793   -0.0246571797   -0.0742685561
 C   -0.0098185977    1.1795704199    0.0100170436
 N   -1.0850021062    2.0105567644    0.2133068063
 C   -0.8321063770    3.4291835973    0.0311738850
 C    0.6898296487    3.5101170839    0.0093809660
 C    1.4184264185    2.9361719101    1.1795579703
 C    1.2185509915    2.0781438878   -0.0717615469
 C    2.3331116119    1.6749263828   -0.8677245605
 C    3.2744161599    1.3448222246   -1.5385149535
 H   -2.0113817470    1.6191519265    0.2677866930
 H   -1.2535950710    3.7993420104   -0.9132547131
 H   -1.2631817158    4.0216860150    0.8478215259
 H    1.1561775048    4.2943037152   -0.5722339824
 H    2.4315098152    3.2787632550    1.3527605631
 H    0.8632169859    2.6606225141    2.0703855676
 H    4.1010975775    1.0397094128   -2.1306314884