19

 C    0.0288820271    1.3524721789   -0.2031878445
 O   -0.0661045863   -0.0055232757    0.1651069337
 C   -1.3765700186   -0.5429680664    0.0982740861
 C   -1.7864277350   -0.9608991611   -1.3297399434
 C   -1.3614913137   -2.4304119551   -1.3701439977
 O   -1.6889336424   -2.9166005216   -0.0719465345
 C   -1.3760982269   -1.9074056198    0.8608955611
 C   -0.0326101333   -2.1513001868    1.5544127357
 O    0.7401305175   -3.0130880999    1.2372729753
 H    1.0701144953    1.6503079693   -0.0618093438
 H   -0.2454253493    1.5211628016   -1.2544643202
 H   -0.6142792776    1.9857875263    0.4271578512
 H   -2.0861785359    0.1686438718    0.5411137819
 H   -2.8712088976   -0.8802953942   -1.4483834450
 H   -1.3065269282   -0.3404159129   -2.0900241698
 H   -1.9076340188   -3.0339309754   -2.0985562698
 H   -0.2841452209   -2.5281861924   -1.5609356736
 H   -2.1478444507   -1.9173535900    1.6432155481
 H    0.1567652953   -1.4753532566    2.4173817992