21

 C   -0.3362937527    1.5494046786   -0.0231958312
 C   -0.0867012434    0.0397783222   -0.0922330090
 C    0.7437267816   -0.4103093828   -1.3061968965
 O    0.2199083108    0.0818102166   -2.5371691396
 C    2.1657849693    0.1525267872   -1.2431420352
 O    2.8155231520    0.2265092987   -0.2329408359
 C    0.8925758929   -1.9360921447   -1.3251899653
 C   -0.1166183655   -2.8136656471   -2.0209168085
 C    1.2728927595   -2.6662809679   -2.5877229425
 H    0.6022859173    2.0984071563    0.0969849121
 H   -0.8238564340    1.9166050741   -0.9307417289
 H   -0.9764415856    1.7940217861    0.8292535524
 H    0.4425256711   -0.2910926234    0.8069271187
 H   -1.0399030635   -0.5049666542   -0.1158102546
 H   -0.7280736544   -0.0841708524   -2.5455046259
 H    2.5664301425    0.4617189893   -2.2329744586
 H    1.3096173518   -2.3221792502   -0.3999540234
 H   -0.3931102229   -3.7454358704   -1.5405837048
 H   -0.9257360781   -2.3429083360   -2.5698777989
 H    1.3668886418   -2.0751853648   -3.4912205526
 H    1.9597754296   -3.5012751351   -2.5117102219