16

 C   -0.1135544300    1.5518624844    0.0847068923
 C    0.1316367557    0.0738980064   -0.0088597611
 O   -0.7169114126   -0.7789579555    0.8023433908
 C    0.6894614323   -0.7981214385    1.0476117407
 C    1.4156441879   -1.9667906718    0.3985977139
 C    1.1613989921   -1.7277128805   -1.0855882772
 C    0.4815245395   -0.5903615833   -1.3036090853
 C    1.5877113450   -2.6432942926   -2.0842450669
 N    1.9592723833   -3.4038005819   -2.8755281571
 H    0.7440496135    2.1139723077   -0.2989467390
 H   -0.9934891282    1.8354263807   -0.5025032032
 H   -0.2899833124    1.8430994191    1.1225483934
 H    1.0039541141   -0.4216094056    2.0173864425
 H    2.4875297404   -1.9569835193    0.6266312105
 H    1.0189032881   -2.9326246628    0.7289325408
 H    0.1981190113   -0.2069642566   -2.2757187353