17

 N   -0.3578752107   -1.1557366762   -0.4045558324
 C   -0.2055826865   -0.0279750413   -0.2010723132
 C   -0.0094674814    1.4050548620    0.0246422397
 N   -0.1518662617    1.8593931570    1.4343418341
 C    1.1129348919    2.6462455581    1.3544515465
 C    2.3686174214    1.9869766901    1.9797548915
 C    2.2796595919    0.4965700083    1.8792519567
 C    2.6325865602    1.2682335886    0.6372569180
 C    1.4412047364    2.0003088664   -0.0074001215
 H   -0.6539860987    1.9442273852   -0.6816327808
 H   -0.9945966191    2.3882151973    1.6214857169
 H    1.0219280637    3.7269036471    1.4740395181
 H    3.0680607393    2.4889562607    2.6370936428
 H    3.1184659883   -0.0401765898    2.3106813687
 H    1.3237709856   -0.0010403508    1.9928803053
 H    3.5727953791    1.1043046522    0.1259780299
 H    1.6899906004    2.5966861051   -0.8829128904