21

 C    0.0127795894    1.5128601205    0.0018131471
 C    0.0356649874   -0.0111848826    0.0881395160
 N   -1.3040661782   -0.5647696499    0.1562144586
 C   -2.0938730069   -0.3705828070    1.3855123522
 C   -2.6840740056   -1.8044924763    1.1884107916
 C   -4.0254671637   -1.8157758299    0.4460554170
 C   -1.4518819514   -2.0257368755    0.2527685250
 C   -2.7292753272   -2.6378166017    2.3815241064
 N   -2.7692933486   -3.3005583681    3.3283227301
 H    1.0297888197    1.9090881713   -0.0698233603
 H   -0.5537005787    1.8410197521   -0.8743256813
 H   -0.4521371641    1.9527948164    0.8905484956
 H    0.5195370024   -0.4274896448   -0.8039530166
 H    0.6458688487   -0.3278996955    0.9574978716
 H   -1.4817940311   -0.3006651799    2.2982551906
 H   -2.8094725913    0.4573917396    1.3633765223
 H   -3.9504458101   -1.1829838876   -0.4417239888
 H   -4.2906512134   -2.8300689789    0.1344789413
 H   -4.8275527676   -1.4341286150    1.0841882931
 H   -1.6415193869   -2.5419432345   -0.6943342949
 H   -0.6222627026   -2.5217408428    0.7796240535