22

 C    0.0861049420    1.5412681249   -0.0004974139
 C   -0.0147940770    0.0116293022    0.0015943280
 C   -1.4483903383   -0.5353052973   -0.0159233369
 O   -2.1529843359   -0.1882297128    1.1837606591
 C   -2.2696756955   -0.1347848040   -1.2738026895
 C   -3.3076172842   -1.2644908039   -1.4735053850
 C   -2.6139431216   -2.4919524211   -0.9138710547
 N   -1.2097260737   -2.6212558767   -1.3747033120
 C   -1.5021673780   -2.0563070725   -0.0410317719
 H    1.1318840398    1.8617283700    0.0225005391
 H   -0.3733211032    1.9784105172   -0.8930509667
 H   -0.3991656987    1.9810824202    0.8790805247
 H    0.5113508125   -0.3981688584   -0.8676591739
 H    0.4851068211   -0.3825076651    0.8948781907
 H   -2.2176326750    0.7713099892    1.2182594431
 H   -2.7378451125    0.8457044359   -1.1477818033
 H   -1.6076145389   -0.0792053499   -2.1409408186
 H   -4.2116185085   -1.0712590408   -0.8859736543
 H   -3.6032229398   -1.3766306918   -2.5212796204
 H   -3.1786885168   -3.3953183072   -0.7074782007
 H   -0.9116637811   -3.5868914911   -1.2630301781
 H   -1.2100803264   -2.5946329272    0.8546290353