17

 N   -0.0534782406    1.4367333824    0.0923001456
 C   -0.0233795997   -0.0256688484   -0.0081751388
 C    0.6170614619   -0.6317251670    1.2876858785
 O   -0.0628195532   -1.8392192193    1.5724851696
 C   -1.3500852272   -1.7581818351    1.0194043384
 C   -2.1909797075   -0.5419384042    1.2944240071
 C   -1.4135729508   -0.6604065734   -0.0046900293
 C    0.7057687521   -0.4843533460   -1.2112169887
 N    1.2856681274   -0.7933465759   -2.1631539296
 H    0.8939450799    1.8064645502    0.0677713259
 H   -0.5291987129    1.8263614373   -0.7168590771
 H    1.6810386600   -0.8549960842    1.1813646268
 H    0.4837335244    0.1104707325    2.0849631762
 H   -1.7954856525   -2.7359288852    0.8858182857
 H   -3.2667198865   -0.6597838927    1.2255485862
 H   -1.8645538214    0.1848045055    2.0287288607
 H   -1.9292026734   -0.7702191465   -0.9504604272