22

 C    0.0243818560    1.4476398377   -0.3807699540
 C   -0.0740795387   -0.0186412566   -0.0071543378
 C    1.1248919342   -0.8695000307   -0.2078349928
 N    0.6868147539   -0.5077078901    1.1555276912
 C   -1.4649291965   -0.6228102162   -0.1723542167
 O   -1.7529929081   -0.4975860340   -1.5541669105
 C   -1.6758755593   -2.0269177634    0.4737895827
 C   -2.3814377594   -1.3473336339    1.6739882076
 C   -2.5223354838   -0.0534227903    0.8311135568
 H    1.0587309098    1.7988968878   -0.3069019635
 H   -0.3216888007    1.6023213796   -1.4055127410
 H   -0.5901721512    2.0706136987    0.2784192835
 H    1.0219379933   -1.9208470524   -0.4584692245
 H    2.0169645293   -0.3967649695   -0.6097968420
 H    1.2723005440    0.2392940613    1.5209833776
 H   -2.6538707127   -0.8035072990   -1.6976297144
 H   -2.3661155116   -2.6172987891   -0.1383582115
 H   -0.7923401542   -2.6284109150    0.6900523572
 H   -3.3049751153   -1.8056861853    2.0338113553
 H   -1.6959457786   -1.2144746065    2.5118446542
 H   -2.2994643447    0.8994287748    1.3174251694
 H   -3.5043388958    0.0294065121    0.3522880132