19

 C   -0.0751986522    1.3616827567    0.0009455716
 O    0.0858500916   -0.0454782043   -0.0177931415
 C    0.7034621408   -0.5264341961   -1.1473527564
 C    2.1587484129   -0.3232238658   -1.6461309538
 C    1.5212221806   -1.3185517155   -2.6431388282
 C    0.8005248847   -2.0485220583   -1.4574595127
 C   -0.5714224963   -2.4729404036   -1.9650047470
 O   -0.9187014077   -1.3436811285   -2.7891473491
 C    0.2008743657   -0.4972576453   -2.6327488476
 H    0.8932624422    1.8801936795   -0.0301161537
 H   -0.6878297825    1.7091270160   -0.8421667787
 H   -0.5816884750    1.6120412621    0.9352710030
 H    2.4274261615    0.6609794972   -2.0405438648
 H    2.9474709467   -0.7215325480   -1.0038833501
 H    1.9862496352   -1.7880184563   -3.5062547431
 H    1.3611995923   -2.7044125397   -0.7918144262
 H   -0.5513071390   -3.3866022472   -2.5713116971
 H   -1.3082463991   -2.5923899555   -1.1618574254
 H    0.0861629575    0.4218049825   -3.2059720390