14

 O   -0.0335619905   -0.0584461075   -0.1830656150
 C    0.0038029694    1.1100202846    0.0299468571
 C   -1.1202591300    2.2018439794    0.2925959204
 C    0.0565395687    3.0704965789    0.7309017016
 C    1.0577936219    4.2426246904    0.8980709585
 C    1.7600725263    2.8699341070    1.2462087989
 O    0.5661568485    2.5016499732    2.0172121901
 C    1.1165114955    2.2213920262   -0.0034578637
 H   -1.5609575483    2.5092589015   -0.6615001251
 H   -1.9001365020    1.9781714342    1.0221722337
 H    1.3703768926    4.7702948028   -0.0057948834
 H    0.8996133469    4.9036394116    1.7508734207
 H    2.7370976166    2.7127493847    1.7071852029
 H    1.4648521845    2.4959257931   -1.0029251468