21

 C   -0.1262511591    1.5777242439   -0.0848631213
 C   -0.0552175980    0.0557562697   -0.0301641461
 C    1.0995199472   -0.5656346722   -0.8609910770
 N    1.8896036877   -0.6949352308    0.3767073427
 C    2.7505604845   -1.8491530725    0.5361014588
 C    0.6746670726   -0.5760746815    1.1956634905
 C    0.8128863873    0.2367579687    2.4931443807
 C    1.5832672108   -0.4694256265    3.5146026204
 N    2.1921211270   -1.0460583166    4.3103265447
 H    0.8609208565    2.0291107234    0.0552805734
 H   -0.5029423993    1.9030342316   -1.0601359925
 H   -0.8005774868    1.9826641183    0.6775807427
 H   -1.0404592702   -0.3746593693   -0.2213194514
 H    0.8227139691   -1.5366615132   -1.3032569097
 H    1.5590200522    0.0581396547   -1.6365453958
 H    3.5672583359   -1.7989894395   -0.1915942708
 H    3.1890513926   -1.8547274694    1.5375610574
 H    2.2164507918   -2.8064968211    0.3866968355
 H    0.2324924744   -1.5568607339    1.4415753112
 H    1.3020305274    1.1923473573    2.2835970982
 H   -0.1820282736    0.4537932189    2.9000759386