17

 O    0.8129128509   -0.2399126548   -0.0355975072
 C    0.4359015653    0.9035708813   -0.1018840416
 C    1.3406655023    2.1021315731   -0.1549997904
 C    0.8042707173    3.4039343005   -0.8224392015
 C    1.2457365521    4.2305399835    0.4201998362
 C    1.4369695280    2.9104204903    1.1687463776
 C    0.9005047308    2.4944234549    2.4877150089
 N    2.3480559288    2.6910541626    2.2741215040
 H   -0.6518451069    1.1519700928   -0.0813435682
 H    2.3287398506    1.7986757720   -0.5125858467
 H    1.2526151583    3.6685184689   -1.7808242284
 H   -0.2831491153    3.3754716556   -0.9410063692
 H    2.1966016338    4.7493156845    0.2703418663
 H    0.5208829406    4.9360987019    0.8327734404
 H    0.4307374078    3.2282793726    3.1374508091
 H    0.5240977747    1.4804180702    2.5989310885
 H    2.8188502609    1.7932964202    2.1824844723