18

 C   -0.0430119620    1.4347441396    0.0248795363
 C    0.0484002088   -0.0658785595    0.0170544953
 C    1.3152664499   -0.8127915481   -0.3226078200
 C    0.7452292579   -0.8549350026    1.0987279471
 C    0.1560234370   -2.2594420140    0.8416623365
 C   -1.2613474180   -2.0703188012    0.2379902379
 C   -0.7051233603   -2.0291675288   -1.1489811340
 C    0.7404590352   -2.2162170240   -0.6156589764
 N   -1.1449246554   -0.7950458461   -0.4831163641
 H    0.8799640900    1.8801960898    0.4083790096
 H   -0.2131966459    1.8197693698   -0.9855578545
 H   -0.8717524560    1.7710752160    0.6559575844
 H    2.2168589355   -0.3522775162   -0.7096972004
 H    1.1204616906   -0.4333311309    2.0240556607
 H    0.3715573258   -3.0871080869    1.5122229700
 H   -2.2236908191   -2.3847953531    0.6269673390
 H   -1.1260112392   -2.3035791323   -2.1101547673
 H    1.3762318952   -3.0128038214   -0.9929913903