15

 C    0.0426353214    1.5675919187   -0.0097308853
 O    1.2151650794    0.7193073761   -0.0217142832
 C   -0.0475828739    0.1146458659    0.0060625329
 C   -0.5767279359   -0.9349362480    0.9616674269
 C   -1.8143115432   -1.2168642361    0.0496831904
 C   -1.4595748299   -2.6986540981    0.0580592098
 N   -0.0638610160   -2.0794046293    0.0278377997
 C   -0.6091195175   -0.9532709366   -0.9099222100
 H   -0.1070044114    2.1352090294    0.9074147075
 H   -0.1388399159    2.1171917666   -0.9320886566
 H   -0.5018549496   -1.0260329949    2.0451920423
 H   -2.7826190759   -0.7057326038    0.0614344668
 H   -1.6607768597   -3.2748310342    0.9667497760
 H   -1.6919015346   -3.2924476709   -0.8316678899
 H   -0.5717522174   -1.0655980050   -1.9933964743