21

 C   -0.1549109384    1.5662340183    0.0114531343
 C    0.0322661590    0.0506478234    0.0158004803
 C    0.9647500006   -0.5263676369   -1.0473149536
 C    2.4568789537   -0.2850843246   -0.5688896554
 C    2.7230039386   -1.7957890764   -0.7936654109
 C    1.2070299918   -2.0001195523   -0.5868397594
 O    0.8688285405   -1.9679172632    0.8107017569
 C    0.8506491137   -0.5750814235    1.1679064647
 C    2.2690808295   -0.0164469950    0.9484550569
 H    0.7949439880    2.1042552828   -0.0563666993
 H   -0.7637379576    1.8732738030   -0.8452520515
 H   -0.6690359056    1.9051906062    0.9176665611
 H   -0.9468563904   -0.4407780673   -0.0199124963
 H    0.7434489619   -0.3619490115   -2.1006319142
 H    3.0852234534    0.4422190781   -1.0840380471
 H    3.0146439842   -2.0135305572   -1.8261250794
 H    3.3954710554   -2.3117163033   -0.1025351654
 H    0.6969172315   -2.8479377237   -1.0485617819
 H    0.4458118704   -0.4871015167    2.1772548846
 H    3.0107034618   -0.5382275722    1.5593826695
 H    2.3197876882    1.0483918620    1.1937267757