16

 C   -0.0214141932    1.4621108075    0.0084650837
 N   -0.0171130628    0.0154385631    0.0004117493
 C   -1.1775421793   -0.7635711833    0.0037140152
 N   -2.3861174295   -0.3763779506    0.0139438058
 C   -0.7521840396   -2.2228322374   -0.0073066914
 C    0.7851614787   -2.1964011922   -0.0165692666
 C    1.1633661509   -0.7205515988   -0.0112435054
 O    2.2723009678   -0.2415222570   -0.0155101735
 H    1.0185452201    1.7902346667    0.0017208316
 H   -0.5347456594    1.8550991790   -0.8756740885
 H   -0.5200371758    1.8454316185    0.9051929945
 H   -2.4636158838    0.6413011292    0.0202758106
 H   -1.1659831184   -2.7254327044    0.8697551469
 H   -1.1766527667   -2.7152628318   -0.8850470158
 H    1.2363136639   -2.6762001243    0.8558212122
 H    1.2256459770   -2.6671253043   -0.8992844686