18

 C   -0.1008869821    1.5494044381    0.2341779289
 C    0.0169076834    0.0787065320   -0.0015741651
 C   -0.0141933959   -0.6737888945   -1.1647688861
 C   -0.1299931408   -0.2453670345   -2.5881032361
 O    0.9079460847   -0.8039297815   -3.4086790235
 C    0.1129793051   -2.0221438287   -0.7195182838
 N    0.0863589539   -3.1415232380   -1.5416069415
 N    0.2180153234   -2.1068229891    0.5998772221
 N    0.1435013199   -0.8088770318    1.0127416225
 H    0.5396310613    1.8731911515    1.0614319831
 H    0.1981969977    2.1081971221   -0.6561376073
 H   -1.1286995521    1.8449144005    0.4762441538
 H   -1.0577196585   -0.6118072925   -3.0426487028
 H   -0.1436071927    0.8520246068   -2.6672906628
 H    1.7448754717   -0.5804147579   -2.9864644394
 H    0.5162516309   -2.9616867140   -2.4401267260
 H    0.4587532954   -3.9677476027   -1.0936902913
 H    0.1966926247   -0.6113949557    1.9964751654