15

 O    0.3940638909   -0.1971275842   -0.0399778917
 C    0.1278047032    0.9663059731   -0.1978318237
 C    1.1082717741    2.0991255025    0.0502331827
 C    1.2287600529    3.0298149003   -1.1553561600
 C    2.5751379523    3.5934306364   -1.4811472604
 N    1.9929582630    2.5547824629   -2.3358330191
 C    0.0443764725    3.8005541930   -1.4518280823
 C   -0.9493878743    4.4465853531   -1.6522908857
 H   -0.8763879500    1.2903264567   -0.5467195401
 H    0.7485242860    2.6764136823    0.9126729675
 H    2.0789699806    1.6649397668    0.3065825622
 H    2.6391048779    4.5762769308   -1.9373510318
 H    3.3954592666    3.3389084553   -0.8148208674
 H    2.4060719945    1.6488351490   -2.1225515914
 H   -1.8235811502    5.0166685620   -1.8495538190