16

 O    0.0743112521    1.3589508957   -0.0615525846
 C    0.0223113900   -0.0336266128   -0.0200589365
 C   -1.4083453525   -0.5416328952    0.0534430737
 O   -2.3224830040    0.2790423995    0.0673840763
 C   -1.6409585810   -1.9878294982    0.0654226235
 C   -2.8720615299   -2.5139384577    0.8214160309
 C   -2.9303713833   -2.4783430749   -0.6571156433
 O   -3.7271970535   -1.6010240351   -1.3563167548
 H   -0.8521044906    1.6478861600   -0.0398231461
 H    0.4955990705   -0.4833143819   -0.9097815264
 H    0.5698983659   -0.4309554184    0.8514499722
 H   -0.7616481078   -2.6208973892    0.0214788254
 H   -2.7552461280   -3.4646533423    1.3292819459
 H   -3.4394070216   -1.7615673748    1.3594271136
 H   -2.8166863936   -3.4118207934   -1.1984953851
 H   -3.6595217125   -0.7343373315   -0.9216842947