19

 C    0.1065490505    1.5159516999   -0.1480782435
 C    0.0657481089    0.0289240196    0.2156297474
 O    0.6626343599   -0.2051820045    1.4823553186
 C   -1.3713244867   -0.5283274614    0.1521032818
 C   -1.6401732280   -2.0622658705   -0.0087445211
 O   -0.4602027949   -2.7921066346    0.2235087699
 C   -2.6366012802   -2.0232433017    1.1981552326
 C   -2.1374380511   -0.5999409210    1.4805001227
 O   -2.1943836673    0.1334345852    2.4284116623
 H    1.1277270424    1.8931126220   -0.0488293376
 H   -0.2314912803    1.6869103351   -1.1758832889
 H   -0.5410102133    2.0937158627    0.5219367802
 H    0.6784466390   -0.5421994297   -0.4897156080
 H    0.1396328142    0.2735981435    2.1375898689
 H   -1.9630291423    0.0255220187   -0.5859790919
 H   -2.0999224122   -2.3372377547   -0.9660323420
 H   -0.6782980168   -3.7293721196    0.2299129254
 H   -3.6936274269   -2.0542369204    0.9151372389
 H   -2.4540086346   -2.7484334485    1.9958940842