13

 N   -0.3202895780   -1.1951391282   -0.2236843242
 C   -0.1562600686   -0.0556703039   -0.1292383072
 C    0.0331582865    1.3811492925    0.0022731250
 C   -0.2543196944    1.9932749544    1.4543492780
 N    1.1648086984    2.3850390031    1.4322234784
 N    2.1963496131    3.0771521054    1.9583587614
 C    3.0878912786    2.9166414759    0.9707853887
 N    2.6827471454    2.2052822309   -0.1370837186
 C    1.4556018153    1.9049153993    0.2307052118
 H   -0.5102936490    1.9031263793   -0.7895259321
 H   -0.9512098386    2.8331507615    1.4581278890
 H   -0.5088850793    1.2648295110    2.2252005466
 H    4.0817732708    3.3307027588    1.0530046633