21

 O   -0.2231498612    1.3630339209    0.9203331678
 C   -0.0242507634    0.1424599201    0.2298758697
 C    0.5175450979   -1.0495913470    1.0760162811
 C   -0.8672282316   -1.7594970858    0.9625694739
 C   -1.8118682904   -1.7362471533    2.1565463280
 C   -1.9301113526   -0.4721546034    2.9797631009
 C   -2.9294852732   -0.7452039765    1.8881699620
 C   -2.6947393508   -0.0735858597    0.5340536456
 C   -1.3575682801   -0.6319125520   -0.0044294316
 H    0.6419233424    1.7198908662    1.1460137307
 H    0.5422319698    0.3232934487   -0.6938073011
 H    1.3349219139   -1.5903564745    0.5909906419
 H    0.8260302439   -0.7835827573    2.0904976851
 H   -0.8212113546   -2.7648764909    0.5369896580
 H   -2.0186021290   -2.6767017552    2.6561092571
 H   -2.2635615460   -0.5867356452    4.0060607791
 H   -1.2195889056    0.3316095768    2.8232735033
 H   -3.9521167674   -0.9729605500    2.1699391435
 H   -3.5081396879   -0.3359113683   -0.1505551519
 H   -2.6719094042    1.0175832605    0.6084751331
 H   -1.4471096397   -0.9384576442   -1.0489831563