13

 C    0.0915033065    1.4436350389    0.1449766766
 N   -0.0167970596    0.0018148372    0.1340422582
 C   -1.1405596328   -0.5876834725   -0.0377050566
 C   -2.4763026193   -0.0294943190   -0.2469431554
 N   -3.5391220670   -0.7338534512   -0.4088017368
 O   -3.4385801324   -2.1074850815   -0.3876890305
 N   -2.2256477517   -2.7648142387   -0.1970439896
 C   -1.1771160857   -2.0454179159   -0.0374552458
 H    0.8016250185    1.7451739163   -0.6341204675
 H   -0.8386612575    2.0073474666   -0.0018111801
 H    0.5322164657    1.7522696566    1.1003382753
 H   -2.6558661929    1.0395862596   -0.2790591975
 H   -0.2488474418   -2.5912955064    0.1086202697