21

 O   -0.0488972509    1.4047148053    0.0037473457
 C    0.0082984254   -0.0138642566    0.0094215883
 C    0.6692116540   -0.5970865438    1.2977908345
 C   -0.1780996246   -1.8413830669    1.6882460824
 C   -1.1118190447   -2.0444848504    0.4633576730
 C   -1.4138995688   -0.5894139391    0.0652921464
 C   -0.3486953489   -2.7151762573   -0.6612443134
 C    0.4818270553   -2.0245735263   -1.4428234619
 C    0.6989571911   -0.5416098740   -1.2647445201
 H    0.8507048105    1.7382430016   -0.0824861830
 H    1.7204099331   -0.8510109180    1.1302117917
 H    0.6354293891    0.1681065482    2.0778609295
 H    0.4323884876   -2.7236115939    1.8974816012
 H   -0.7767316655   -1.6376082570    2.5824877256
 H   -2.0071390423   -2.6175611010    0.7178693975
 H   -1.9903169069   -0.0728724859    0.8402320478
 H   -1.9452027257   -0.4973525247   -0.8856310712
 H   -0.4699911137   -3.7868191143   -0.7959207505
 H    1.0319921538   -2.5176586246   -2.2404344052
 H    0.3142091910    0.0119383870   -2.1329365952
 H    1.7768104110   -0.3222515683   -1.2181611029