18

 N   -0.1376769035    1.2691396472    0.1243731864
 C    0.0014925389    0.0087898544    0.0393876203
 C    1.2123972029   -0.9235249352   -0.0872070100
 N    0.6830587494   -2.2883462389   -0.1386797645
 C   -0.5941034411   -2.1830966820   -0.0586624256
 N   -1.0651793119   -0.8794395468    0.0465181613
 C   -1.5451102362   -3.3107814059   -0.0716381460
 C   -1.2118678967   -4.5295518136   -0.9141706660
 C   -1.1257242243   -4.6193593318    0.5748860796
 H    0.7708813400    1.7300943941    0.1002650226
 H    1.7899777512   -0.6935343250   -0.9910313178
 H    1.8922183104   -0.7993049560    0.7647215829
 H   -2.0260426967   -0.5905919248    0.1215847491
 H   -2.5907071497   -3.0330966826    0.0055267114
 H   -2.0333458090   -5.0218015100   -1.4221793205
 H   -0.2820104111   -4.4760819533   -1.4675256418
 H   -0.1380679571   -4.6260648697    1.0200804511
 H   -1.8867710256   -5.1746079902    1.1112678277