15

 N   -0.4560502371    0.9206119493    1.0169535788
 C   -0.1992760922   -0.1968158096    0.2385784429
 C   -0.9671145102   -0.8858927158   -0.6850007652
 N   -0.1888151168   -1.8432685165   -1.2680450432
 N    1.0026940423   -1.8124891780   -0.7600902554
 N    1.0079833786   -0.8053390008    0.1577683266
 C   -2.3833350033   -0.6791320474   -1.0428989348
 C   -3.4791891360   -0.8455622245   -0.0705910202
 O   -3.0199151114    0.4612351891   -0.4356534702
 H   -0.1745889687    0.8396215452    1.9855452542
 H   -1.4287325402    1.1932813295    0.9311153528
 H    1.8644211441   -0.5700375655    0.6326636135
 H   -2.6227167421   -0.8240005538   -2.0954522033
 H   -4.4796416762   -1.0951232081   -0.4195101856
 H   -3.2420850507   -1.1578096132    0.9446292791