16

 C    0.3794308469    0.9944178496    0.7258081147
 C   -0.3411915663    0.4062450047   -0.4895695231
 C    0.5744762973   -0.1951328760   -1.5096941805
 C    1.9374833379   -0.2870889976   -1.5019451493
 N    2.2764977896   -0.9356525199   -2.6896047462
 C    1.1094915743   -1.1888811046   -3.3272345134
 O    1.1197460587   -1.8155396587   -4.5170628981
 N    0.0631458087   -0.7699682677   -2.6709862879
 H    0.9590108747    0.2286288786    1.2521648966
 H    1.0692669164    1.7919857479    0.4302101821
 H   -0.3364447618    1.4181118421    1.4357269068
 H   -1.0577946395   -0.3589196007   -0.1633734830
 H   -0.9485039386    1.1821413452   -0.9738876729
 H    2.6889503028    0.0293611077   -0.7997905763
 H    3.1958751515   -1.1737055594   -3.0185528627
 H    0.1955722474   -1.8916688911   -4.7855111768