19

 C    0.6508597260    1.4940363089    0.0159397077
 C    0.0043047897    0.1026151804   -0.0199355996
 C    0.4688735665   -0.7965746533   -1.2050359797
 N    1.3199637525   -1.8930802657   -0.7039310010
 C    2.4810264388   -1.4608037373    0.0695339087
 C    1.2278942580   -1.8681574539    0.7759835905
 C    0.2827603447   -0.7610664722    1.2427494363
 C    1.1673094705   -3.1352238036    1.4643909466
 N    1.1153478739   -4.1302272334    2.0510635213
 H    1.7388254837    1.4517180957    0.1280623383
 H    0.4373198632    2.0435035945   -0.9067838043
 H    0.2578840847    2.0836107581    0.8507925358
 H   -1.0757044954    0.2554135890   -0.1057052084
 H   -0.3907906199   -1.2635656852   -1.6944118455
 H    1.0160247038   -0.2330277847   -1.9679003475
 H    3.3229086533   -2.1457185133    0.0433272337
 H    2.7467184016   -0.4080911236    0.0981362857
 H    0.7153026713   -0.1756304511    2.0594226420
 H   -0.6364319370   -1.2152910993    1.6218277796