18

 O    0.0793851678    1.4108977271    0.2411772808
 C    0.0623544361    0.0045993727    0.0417765392
 C   -1.3264193576   -0.5286624539   -0.1375344282
 C   -2.2090426743   -0.9797143913    1.0092159927
 C   -1.8470237337   -1.9613671559   -0.0734036744
 N   -2.6431770781   -1.7210141011   -1.2677600361
 C   -2.1837080063   -0.3251160617   -1.4032145314
 C   -3.8390030136   -2.2491714187   -1.6396756921
 O   -4.6038210235   -1.7344232683   -2.4270027315
 H   -0.4551184324    1.6010613450    1.0195697038
 H    0.6562030396   -0.1669240238   -0.8627267695
 H    0.5612560814   -0.5294440313    0.8666480582
 H   -1.6908498851   -1.1268696141    1.9528632161
 H   -3.2338060560   -0.6296074964    1.0997111456
 H   -1.3225439009   -2.8957777165    0.0870928534
 H   -2.9857420497    0.4169839475   -1.3599489962
 H   -1.5904663882   -0.1702624264   -2.3094793093
 H   -4.0161579255   -3.2368783129   -1.1650801212