21

 C   -0.7860206653    1.1607657560   -0.0511455278
 C    0.1421830548   -0.0451989873   -0.0350396025
 C    1.5430891055    0.0879315879   -0.7142294426
 C    2.1253150094   -0.6811335097    0.4684661628
 C    3.0577717543   -1.8081413740    0.4757746683
 O    3.4414968104   -0.5185364012    0.9763092708
 C    0.8480603644   -0.4891792025    1.2980192936
 C    1.0027046134    0.5611441372    2.3863874257
 O   -0.2596489213    0.7244351502    3.0188729733
 H   -0.2890725614    2.0607198256    0.3247581772
 H   -1.1178606559    1.3716297785   -1.0740438683
 H   -1.6690048924    0.9892692483    0.5701274902
 H   -0.3841703447   -0.9100761508   -0.4513476534
 H    1.6713405340   -0.3383168315   -1.7122742192
 H    1.8969485700    1.1242870625   -0.7269883165
 H    2.9602372901   -2.5908271795    1.2276737755
 H    3.5482239075   -2.1108565013   -0.4489507854
 H    0.4357167264   -1.3940118871    1.7546509227
 H    1.7695193107    0.2192217222    3.0974447572
 H    1.3643222403    1.5101159095    1.9602538065
 H   -0.1693218405    1.3984535770    3.6988377519