18

 C   -0.0067673930    1.3872312645   -0.7259194570
 C   -0.0156530575    0.0192898663   -0.0831803219
 C    1.2056177157   -0.7961312326   -0.0293423701
 O    0.7273112761   -0.0989044956    1.1310849807
 C   -1.3666023294   -0.6767373522   -0.0435665049
 C   -1.6614918250   -1.6777601445    1.0611356057
 C   -2.3212191839   -0.3338800158    1.0943641303
 C   -1.9417941058   -0.9291402460   -1.3401979822
 N   -2.3865248105   -1.1243084967   -2.3906383163
 H    0.9969789039    1.8164901656   -0.6933307586
 H   -0.3318768828    1.3258324685   -1.7688728419
 H   -0.6893472097    2.0614321411   -0.1984784751
 H    1.1278499916   -1.8806169235    0.0169978789
 H    2.1301385491   -0.4081581504   -0.4524897804
 H   -2.2584114154   -2.5428433442    0.7996574521
 H   -0.8505241850   -1.8517596901    1.7575543276
 H   -1.9522286377    0.3887726938    1.8133149909
 H   -3.3764478707   -0.2615716181    0.8612735224