16

 C   -0.2552686395    1.6482438016    0.3866809397
 C   -0.0518832673    0.1741606942    0.0768206726
 O    0.9888175979   -0.0797340313   -0.9162754614
 C    1.8084594251   -0.8629312947   -0.0201699182
 C    0.7935229508   -0.6223905818    1.1016431504
 O    0.7067040770   -0.8876420018    2.2573217160
 C   -1.3863735062   -0.5113733066   -0.2704910338
 N   -1.3230699004   -1.3023398203   -1.3719120054
 O   -2.3687202872   -0.3549879592    0.4246284869
 H    0.6653570911    2.1016105040    0.7621492352
 H   -0.5648430279    2.1801245044   -0.5179155603
 H   -1.0431997237    1.7411307806    1.1362473226
 H    1.9125661680   -1.9082222892   -0.3356552263
 H    2.8010449671   -0.4260444379    0.1381153544
 H   -0.5120442280   -1.2455298325   -1.9658664991
 H   -2.1766470068   -1.7117182995   -1.7146538233