18

 O   -0.0008292154   -0.0512770014   -0.2514092218
 C   -0.0142356573    1.1397873676   -0.0315837059
 C   -1.3266421439    1.8973123186    0.1055853122
 C   -1.6120504919    2.8197698627   -1.1084049675
 C   -0.7371984653    4.0463293732   -1.2001303656
 C    0.5965422332    4.0646790980   -1.2182233192
 C    1.5069662695    2.8626811411   -1.1507177649
 C    1.2800727324    1.9331791460    0.0702264407
 H   -2.1196465132    1.1499720867    0.1898417061
 H   -1.3139056664    2.5045855034    1.0181040901
 H   -1.5262595662    2.2188244257   -2.0246313326
 H   -2.6592491468    3.1306264494   -1.0516624740
 H   -1.2597236435    4.9981090628   -1.2606079058
 H    1.0908577426    5.0304485973   -1.2924937430
 H    1.4129138450    2.2592583875   -2.0645017974
 H    2.5463723499    3.2022443889   -1.1222885018
 H    1.2753873317    2.5402158077    0.9829792160
 H    2.0953288157    1.2079682249    0.1326688943