16

 N   -0.0781037168    1.2408644513   -0.1614386465
 C   -0.0179695738   -0.0013248281    0.0253101187
 O    1.1334917182   -0.7582137555    0.1436290918
 C    0.7199985456   -2.0700402099    0.4897719288
 C   -0.1273477435   -2.8389336983   -0.5891972509
 C   -0.9658671082   -3.3993499412    0.5800682084
 C   -0.6732255325   -2.0031620898    1.1802679928
 C   -1.1546563942   -0.9946781625    0.1069897760
 O   -0.9674152065   -1.7965208911   -1.0985920869
 H    0.8577413228    1.6458550795   -0.2282594187
 H    1.5274009057   -2.6111578049    0.9768048106
 H    0.2863052064   -3.4288471014   -1.4039294929
 H   -1.9971967019   -3.6678013667    0.3492754845
 H   -0.4663879951   -4.1935199939    1.1395830458
 H   -0.8040681301   -1.7365356117    2.2270137395
 H   -2.1557257362   -0.5748813457    0.1508054787