15

 C    0.0119604576    1.5850462868   -0.2899520518
 C   -0.0498232453    0.0852720447   -0.1161807670
 C   -1.3800617484   -0.4890167564    0.3733778479
 C   -1.8306014704    0.0813452505    1.6386765389
 C   -2.1966300944    0.5608177423    2.6779716403
 C    0.8340704933   -0.7911624534   -0.8977643637
 O    1.1060566340   -0.5127793462    0.4788659689
 H    1.0080733844    1.8887441841   -0.6195546036
 H   -0.7212685148    1.9205466526   -1.0315520783
 H   -0.2119148034    2.0866285428    0.6558676264
 H   -2.1439367887   -0.3177809064   -0.3971906855
 H   -1.2712527498   -1.5743104732    0.4764399947
 H   -2.5202863485    0.9741917747    3.6008791750
 H    0.5320568429   -1.8149507664   -1.1173913041
 H    1.5308994916   -0.3536216064   -1.6116454481