21

 C   -0.0325106065    1.5556523833    0.1706707105
 C   -0.0108501839    0.0308022682    0.0723403089
 O    0.7147083732   -0.5486169512    1.1569494844
 C   -1.4203809304   -0.5631489664   -0.0402785044
 C   -1.4081754120   -2.0774365623   -0.1928652936
 O   -2.7475917598   -2.5336489368   -0.2576009551
 C   -2.8584662284   -3.9259288910   -0.3782544291
 C   -4.3337590328   -4.2836508516   -0.4204049405
 O   -4.7462074736   -5.4079961931   -0.5234307841
 H    0.9853158809    1.9429226368    0.2662581813
 H   -0.4956383895    2.0050955708   -0.7134908377
 H   -0.6071957397    1.8798018692    1.0475987189
 H    0.5656408078   -0.2586061495   -0.8159422314
 H    0.3000949532   -0.2520699937    1.9752362447
 H   -2.0023502608   -0.3000004637    0.8535770019
 H   -1.9414690290   -0.1186520164   -0.8962412898
 H   -0.8646569611   -2.3674719915   -1.1083982965
 H   -0.8823845028   -2.5394225163    0.6553625546
 H   -2.3765002239   -4.3051919443   -1.2960967869
 H   -2.3895065668   -4.4562027555    0.4686446253
 H   -5.0062628438   -3.4005187150   -0.3461293912