17

 O    0.6081115850    1.2060417328   -0.0127477790
 C    0.2006340004   -0.1281262720    0.0509667964
 C   -0.2450574522   -0.6790837812    1.4245279216
 C   -1.5228050199    0.1881908394    1.3672898186
 C   -1.3169716010   -0.4988408698   -0.0084114619
 O   -0.9616650172   -1.7529450820    0.6891302627
 C   -2.1751189679   -0.5702304098   -1.2221093327
 C   -3.4081564760    0.2121970116   -1.3630307137
 O   -2.1953584543    0.6455961529   -1.9860398553
 H    0.3907887338    1.5383517975   -0.8906780571
 H    0.8371074423   -0.8178368950   -0.5155951469
 H    0.3558328209   -0.9762048757    2.2826103497
 H   -2.3647641032   -0.1914352769    1.9474643245
 H   -1.3973074881    1.2694796438    1.4185406981
 H   -2.0523569755   -1.4795731025   -1.8110455855
 H   -4.1855181722   -0.1280316660   -2.0450979467
 H   -3.7484093851    0.8239162431   -0.5295628829