19

 O    0.0403993900    1.4036431274    0.3583196434
 C    0.0217439557   -0.0080183238    0.2030161293
 C   -1.3752102167   -0.5373040696   -0.0631512020
 C   -1.6934628152   -2.0826792965   -0.0931828912
 C   -2.1624493990   -2.8247118544    1.2321489694
 C   -1.9512483860   -2.2771898049    2.6561772926
 C   -1.9365017452   -0.7833421162    2.3399582734
 C   -2.4033392247   -0.5846983975    1.0900666752
 C   -3.0438661425   -1.8652323068    0.5254769702
 H   -0.6099131385    1.6289311872    1.0319640395
 H    0.6654336500   -0.2228375323   -0.6575820223
 H    0.4557761316   -0.5181690725    1.0766860400
 H   -1.7611869025   -0.1074535946   -0.9960079987
 H   -1.4839403261   -2.7075162817   -0.9587490490
 H   -2.2833704769   -3.8957329792    1.0778891339
 H   -2.7350641920   -2.6531275242    3.3295918599
 H   -0.9880890845   -2.5396608199    3.1113606641
 H   -1.1805933405   -0.1488365774    2.7951796435
 H   -4.0345151869   -1.9900269431    0.1088725087