17

 O    0.0378605022    1.4243998236   -0.1201674041
 C    0.0352007838    0.0285493911    0.1538798184
 C   -1.3735778431   -0.5444445711    0.0951756101
 C   -2.0200738969   -0.8539637443   -1.3017993888
 N   -1.0210564233   -2.0144352955   -1.4086888598
 C   -1.5726277526   -2.0954537785    0.0230182019
 C   -2.9409063384   -1.8141766964   -0.5629143599
 N   -4.1019428884   -2.3001235245   -0.5007775916
 O   -4.9728497053   -1.6517126504   -1.4114895801
 H   -0.1279872366    1.5373426293   -1.0611934073
 H    0.7029686977   -0.5232123787   -0.5153998002
 H    0.4184327101   -0.0722915909    1.1752661423
 H   -2.0379843081   -0.0280735257    0.7915446087
 H   -2.2300210490   -0.1861692849   -2.1347317725
 H   -1.4322621546   -2.7639845852   -1.9722683349
 H   -1.2563925095   -2.8644106689    0.7253921923
 H   -5.8053873280   -2.1057617490   -1.2433819444