19

 C    0.0737628968    1.4545396472   -0.2475398492
 C    0.0314257255    0.0001411069    0.2426920978
 O    0.6466344771   -0.1403163537    1.5218115714
 C   -1.3361378824   -0.5325732768    0.2353190789
 C   -2.4708940180   -0.9368627554    0.2660258830
 C   -3.8276172184   -1.4686016288    0.2809134184
 C   -3.9261440948   -2.8712879271   -0.3644691345
 C   -5.3138424371   -3.4556678089   -0.2219002242
 O   -5.9703380638   -3.9039502289   -1.1246664207
 H    1.1049916457    1.8162085526   -0.2235035138
 H   -0.3105607354    1.5333959626   -1.2686387555
 H   -0.5393630368    2.0935026317    0.3963982633
 H    0.6518436827   -0.6118540971   -0.4233978379
 H    0.0627223997    0.2727715869    2.1677302067
 H   -4.1897193819   -1.5198557693    1.3167706342
 H   -4.5028039531   -0.7796974811   -0.2424904806
 H   -3.6542663260   -2.8437489859   -1.4220154890
 H   -3.2261392022   -3.5424718668    0.1510149562
 H   -5.7073022578   -3.4475372080    0.8231647756