15

 N    0.1821219904    1.3970003524    0.1900736672
 C   -0.0332698185    0.0215155100    0.0625269477
 C   -1.1590037598   -0.7640527632    0.2140905726
 C   -0.6964786456   -2.0891763571    0.0260480352
 C   -1.4945267344   -3.3508817360    0.1048841255
 O   -2.7314841228   -3.1493663898   -0.5717573793
 N    0.6051400768   -2.1332759826   -0.2298476355
 N    0.9926586146   -0.8310456726   -0.1894851868
 H    0.6668465615    1.8014160722   -0.6032263265
 H   -0.6873818343    1.8942316068    0.3294180454
 H   -2.1687628019   -0.4355742285    0.3951661952
 H   -0.9050673471   -4.1650083568   -0.3398892125
 H   -1.6738452736   -3.6114300145    1.1612350575
 H   -3.2789538542   -3.9244397104   -0.4150433468
 H    1.9655550588   -0.6022619699   -0.2980896489