18

 O    0.1224564387   -0.0335469647   -0.4949303542
 C    0.0552673018    1.1466097390   -0.2137137808
 N   -1.1578810054    1.7861085666   -0.0655573893
 C   -1.3148043350    3.1596789255    0.1530562594
 C   -0.2945127145    4.0188130660    0.1857633076
 C    1.1242196587    3.5759537201    0.0007215751
 C    1.9965654319    3.6503794828    1.2952557558
 C    1.7179002954    2.1437742056    1.5396623443
 C    1.2644715229    2.0177949176    0.0495563067
 H   -1.9703714289    1.2046419841   -0.2031360876
 H   -2.3440863884    3.4717301134    0.2880371949
 H   -0.4956935367    5.0704330300    0.3588484326
 H    1.5676558912    4.0643520747   -0.8744591075
 H    3.0478029914    3.8437137330    1.0639874135
 H    1.6721664645    4.3508661424    2.0683651962
 H    2.5521248316    1.5121866519    1.8493323644
 H    0.8855583313    1.9858948966    2.2303097725
 H    2.0779087297    1.6493074454   -0.5767646534