21

 O    0.9134025971   -0.3720354896    1.1441283515
 C    0.2417232872   -0.1636214157   -0.0977640311
 C   -1.2211219863   -0.5404900499   -0.0388793818
 C   -1.9772482022   -1.1626176481   -1.1974698523
 C   -1.3134015352   -1.5050140809   -2.5236839900
 C   -0.3117101648   -2.6260229595   -2.4593429203
 C   -0.0351151405   -3.3339501968   -1.3663994912
 C   -0.6749448364   -3.1261125424   -0.0212199371
 C   -1.6767627526   -1.9815064828    0.0396456564
 H    0.4178523185    0.0954562513    1.8242168843
 H    0.3400212730    0.8856762640   -0.4194824960
 H    0.7807677136   -0.7768302559   -0.8226110927
 H   -1.8109965147    0.1569312978    0.5554950640
 H   -3.0010984633   -0.8169426260   -1.3043737062
 H   -2.0979545817   -1.7845722286   -3.2411589263
 H   -0.8397633282   -0.6141690072   -2.9620949828
 H    0.2011978491   -2.8564036933   -3.3904382434
 H    0.7019454466   -4.1320372151   -1.4209364612
 H   -1.1836890433   -4.0567916077    0.2658360845
 H    0.1074362743   -2.9745573102    0.7347658955
 H   -2.5130776201   -2.1652915237    0.7073579261