12

 O   -0.5377123529    0.5724888299    0.7491977370
 C    0.2616472161    0.8543352084   -0.1044741102
 C    1.2851926666    1.9809839059    0.0160435502
 C    1.4584346682    2.5213001932    1.4518494581
 O    2.8355796815    2.1920839386    1.7742383248
 C    3.3398573622    1.6167566436    0.6649615874
 N    2.6144237101    1.4605108374   -0.3656275690
 H    0.3208176487    0.3002908486   -1.0641046106
 H    0.9823070147    2.7579781592   -0.6994469783
 H    1.3407382404    3.6036759284    1.5326997332
 H    0.7966291564    2.0198056946    2.1611195010
 H    4.3793910583    1.3187837721    0.7454370063