19

 C    0.0572786438    1.5341474380    0.0151879564
 C    0.0970919394    0.0240308624   -0.0090581353
 N   -0.8092539846   -0.7331193990    0.8933606483
 C    0.6346305966   -0.7430152563    1.1562379569
 C    1.3229820629   -2.0783794467    0.9181818649
 C    1.7774349919   -2.1775959185   -0.5331482078
 O    0.7295940506   -1.8492336863   -1.4572083170
 C    0.1889939806   -0.5987794721   -1.3727639887
 N   -0.2735740588   -0.0001386387   -2.3877489715
 H    0.9554226684    1.9597408238   -0.4424600442
 H   -0.8019301507    1.9006610429   -0.5514243145
 H   -0.0082356730    1.8980268289    1.0460551612
 H   -1.2816739129   -0.0739905423    1.5083696036
 H    0.9981066561   -0.1476684822    1.9907053907
 H    2.1959867902   -2.1883270745    1.5703521418
 H    0.6247876342   -2.8878874483    1.1504478142
 H    2.6315839262   -1.5101070135   -0.7137223856
 H    2.0808778814   -3.1934458528   -0.7958034546
 H   -0.1386005521   -0.5764730046   -3.2212632991