17

 C   -0.0214802306    1.4065871891   -0.1350761233
 N   -0.0348314233   -0.0451823344   -0.2077807532
 C   -1.1017646184   -0.6671485204    0.0374289103
 O   -2.3140165788   -0.0758534330    0.3343127791
 C   -3.2086857185   -1.0266514134    0.9339187036
 C   -2.6442135220   -2.4000944041    0.6202094863
 C   -2.3755079265   -2.6810463767   -0.8266979324
 C   -1.2638755658   -2.1437953819    0.0559254651
 H    0.9285453959    1.7313023472    0.3015332847
 H   -0.0672227417    1.8278432914   -1.1473343337
 H   -0.8487187571    1.8313746084    0.4458025879
 H   -3.2465755568   -0.8514469100    2.0164758084
 H   -4.2055916540   -0.8516987373    0.5162706573
 H   -2.8398210495   -3.2122924946    1.3088681591
 H   -2.2909651654   -3.7188848915   -1.1274440535
 H   -2.8003936793   -2.0220990980   -1.5775418838
 H   -0.3960267882   -2.7512265208    0.2694966780