19

 C    0.6026096727    0.7050084339   -0.5558449899
 O    0.0112345151   -0.5671744973   -0.3602829432
 C   -1.3929267125   -0.5463854735   -0.1385021518
 C   -1.9994913149   -1.8770687008   -0.6436317770
 C   -2.1385411719   -2.7849874354    0.6024608048
 C   -2.0974116949   -1.8055923545    1.7403530977
 C   -1.7249110368   -0.5765958767    1.3508664526
 C   -1.6278653211    0.5617891069    2.2653636811
 O   -1.2731450978    1.6799050334    1.9567619669
 H    1.6696625389    0.5330443154   -0.7189607458
 H    0.1864517155    1.2046365534   -1.4446702576
 H    0.4625482705    1.3653000654    0.3068329992
 H   -1.8287200998    0.3262458747   -0.6420073304
 H   -2.9887962989   -1.6871347740   -1.0699176237
 H   -1.3697251412   -2.3029641695   -1.4262020068
 H   -3.0600622329   -3.3777022906    0.5984209436
 H   -1.3136290564   -3.5046481685    0.6936062082
 H   -2.3280989515   -2.0792728396    2.7660378664
 H   -1.9306765720    0.3316846174    3.3117414756