21

 C   -0.1301613545    1.4999188670    0.1306071447
 C    0.0327060146    0.0174997818    0.0023205026
 C    0.0205009925   -0.7339403108   -1.1056753906
 C   -0.1594510966   -0.3030115804   -2.5278099676
 C    0.1674828886   -2.2070298448   -0.7819903989
 C    0.5921891013   -2.2315922090    0.7126091720
 C    0.1898509271   -0.8296857780    1.2488952343
 C   -0.0675058192   -3.3506324786    1.4788255728
 O    0.5028064322   -4.2307446958    2.0696029600
 H    0.7380078577    1.9494466287    0.6296454606
 H   -0.2544509764    1.9943838735   -0.8355527497
 H   -1.0033647136    1.7471577434    0.7486620718
 H   -0.2741289445    0.7787544757   -2.6280114565
 H    0.6964080320   -0.6092508159   -3.1430773188
 H   -1.0444084687   -0.7767151807   -2.9728471391
 H   -0.7876749076   -2.7318942704   -0.9435829735
 H    0.9009667189   -2.7161257403   -1.4179422020
 H    1.6734785438   -2.3659090159    0.7918010359
 H    0.9380193790   -0.4347428641    1.9459440996
 H   -0.7573367907   -0.8639698692    1.8106599222
 H   -1.1846587961   -3.3036033363    1.4590890901