21

 C   -0.0085629561    1.4824134647    0.0230281261
 C   -0.0311128284   -0.0314265144    0.0035226693
 C   -1.2605941176   -0.6873550035   -0.5086559081
 C   -1.2992500275   -2.0229535149   -0.5336032192
 C   -0.0601967452   -2.7158133183   -0.0265532461
 C    0.2320891028   -2.1766830066    1.4057606942
 C    0.7168607156   -0.7662636396    1.1236755193
 C    1.2927662021   -0.7568806139   -0.2708002945
 C    1.1549902678   -2.1616418148   -0.8289431535
 H    0.9399850004    1.8602605679    0.4171958777
 H   -0.1370137299    1.8943762857   -0.9847109411
 H   -0.8124683478    1.8833583030    0.6513039793
 H   -2.0849404323   -0.0651670847   -0.8449192608
 H   -2.1546267418   -2.5856841775   -0.8906603259
 H   -0.1384986142   -3.8032554759   -0.0662093362
 H   -0.6525488712   -2.2197722021    2.0488089790
 H    1.0309330568   -2.7591907497    1.8799801437
 H    1.1356963223   -0.1665572981    1.9242664462
 H    2.1516019520   -0.1500074030   -0.5356065671
 H    2.0584228245   -2.7424448163   -0.6079732429
 H    0.9820755876   -2.1931305882   -1.9092492593