15

 N   -0.0045012922    1.3489716413    0.0822481785
 C    0.0319544271    0.0019286278   -0.1639236616
 O    1.0582456847   -0.5800914819   -0.4590274421
 C   -1.2869063286   -0.7192547470   -0.0736806238
 C   -2.5314862002   -0.0905156161   -0.1292830612
 C   -3.6812331862   -0.8718734342   -0.0443425134
 N   -3.6680444609   -2.1992119654    0.0932251129
 C   -2.4708569636   -2.7934873807    0.1358430007
 C   -1.2645558764   -2.1079926526    0.0504914111
 H    0.8902867008    1.8099900497    0.1399490239
 H   -0.7630718352    1.7557846191    0.6025015312
 H   -2.6225150836    0.9810655051   -0.2692005624
 H   -4.6617243939   -0.4040044102   -0.0927114318
 H   -2.4782681128   -3.8754270982    0.2428042514
 H   -0.3124979690   -2.6237214669    0.0754575266