20

 C    0.7527456846    1.3590205449   -0.8242721460
 C   -0.0735887118    0.1019683914   -0.5333527826
 N    0.5720659625   -1.1978955797   -0.6095855677
 C    1.7899201850   -1.2973445769   -0.8915380149
 O    2.3780870974   -2.5208627491   -0.9174185921
 C    3.7126332819   -2.5721879492   -1.4009762977
 C    3.7519408294   -2.7503485495   -2.9268658158
 C    5.1494851025   -3.0652695580   -3.4120263764
 O    5.7883647011   -2.3737357549   -4.1613954425
 H    1.5854194117    1.4741981445   -0.1219454919
 H    1.1617155798    1.3537019708   -1.8404693486
 H    0.1162383550    2.2437639673   -0.7292202411
 H   -0.5104618950    0.1810580775    0.4710179563
 H   -0.9331034398    0.0688626653   -1.2158676341
 H    2.4817351051   -0.4743568666   -1.1138488074
 H    4.2655511247   -1.6704226236   -1.1057003082
 H    4.1778353365   -3.4283405806   -0.9031144443
 H    3.0970899759   -3.5943264347   -3.1800959802
 H    3.3887061984   -1.8553046935   -3.4388224899
 H    5.5728726150   -4.0148622053   -3.0082002648