16

 C   -0.0792773206    1.5119252806    0.0741450307
 C    0.1619318544    0.0407701416   -0.0094565114
 C    0.6259006044   -0.7881317315   -1.2220950591
 C    1.2997214360   -1.7361470735   -0.1847548941
 O    2.0784107577   -2.6387460125   -0.2715309250
 C    0.7688443106   -0.9036036310    0.9811865477
 C    1.2803120412   -0.7676403431    2.3748570080
 O   -0.6634545238   -0.8473321004    0.7471772510
 H    0.7747723828    2.0664596997   -0.3269907208
 H   -0.9648097779    1.7906533824   -0.5074981014
 H   -0.2452082453    1.8177746109    1.1104604041
 H   -0.1730782922   -1.2025033365   -1.8403492455
 H    1.3827079493   -0.3125729069   -1.8540623515
 H    2.3661499921   -0.6334170547    2.3722820199
 H    0.8170850452    0.0867854552    2.8757716253
 H    1.0540744261   -1.6677671901    2.9554058121