21

 C   -0.0531533894    1.5859466969   -0.0511046793
 C    0.0161333450    0.0573204993   -0.0275174411
 O   -1.3246860350   -0.4691968495    0.0389515413
 C    0.7681190802   -0.5499627985   -1.2019842139
 C    1.5655868161   -1.5550392245   -0.8389001568
 C    1.5604123406   -1.7909047621    0.6463402886
 C    2.8200720003   -1.2872074044    1.4139229906
 C    2.1047488780    0.0719525293    1.6441671013
 C    0.7572677733   -0.5585450869    1.1747695922
 H    0.9386141757    2.0447776817   -0.0909344739
 H   -0.6077681716    1.9243421497   -0.9346119682
 H   -0.5775172674    1.9546874972    0.8352471304
 H   -1.7557790167   -0.2838323318   -0.8025033064
 H    0.6177930199   -0.2019928909   -2.2203362515
 H    2.1649950874   -2.1513635154   -1.5205903618
 H    1.2187295529   -2.7979498511    0.9053210515
 H    2.9782734585   -1.8405682184    2.3434180791
 H    3.7616191896   -1.2661492105    0.8587629216
 H    2.1213796200    0.4623480366    2.6639973981
 H    2.4673663489    0.8548156382    0.9749246664
 H    0.0611921036   -0.7565362947    1.9906604118