11

 O   -0.0639955986    0.0233968147   -0.0009237759
 C   -0.0016194030    1.2230253673    0.0071353120
 C    1.2774948191    1.9910823206   -0.0005100830
 N    2.4463182622    1.3930442633   -0.0172883222
 O    3.3879118776    2.4057921622   -0.0195009601
 C    2.7801933459    3.5922161684   -0.0042087109
 C    1.4263290047    3.4199507927    0.0086016072
 C    0.4141242186    4.4081391422    0.0265753709
 N   -0.4261786596    5.2039051327    0.0413214837
 H   -0.9045149996    1.8665568589    0.0204862565
 H    3.4135994028    4.4650545670   -0.0042454482