23

 C    0.0748016455    1.5159077693    0.2110155749
 C   -0.0227178726    0.0181900281   -0.1126647657
 C   -1.4328129294   -0.5012268039   -0.0599704909
 C   -2.0973204489   -0.9873510179    1.2004348279
 C   -1.9481894259   -1.9284854060    0.0297741775
 C   -2.9242151354   -1.6609549178   -1.1566834657
 C   -3.0927593887   -2.6612184291   -2.2623155169
 C   -3.8849411454   -0.5344276507   -0.8897338019
 C   -2.4445968072   -0.2186992401   -1.2139755180
 H    1.1079845274    1.8705765916    0.1413873279
 H   -0.5296837837    2.1096157768   -0.4830096775
 H   -0.2879304187    1.7214753998    1.2233438578
 H    0.3974336678   -0.1668793116   -1.1110585954
 H    0.5968764707   -0.5524804194    0.5905210930
 H   -1.4019952045   -1.1900587144    2.0111740120
 H   -3.0591359651   -0.6275362069    1.5489906743
 H   -1.3735232898   -2.8446990360    0.1036674933
 H   -3.6808678080   -3.5272509565   -1.9323517909
 H   -3.6081879350   -2.2173702026   -3.1203143462
 H   -2.1233232613   -3.0365497941   -2.6119628207
 H   -4.5683609241   -0.3384202668   -1.7119575569
 H   -4.3272138022   -0.3408517273    0.0813432831
 H   -2.1708290657    0.3611838353   -2.0880423151