22

 C   -0.4860362268    1.4429691409    0.0521697330
 C    0.1256321091    0.0591329637   -0.0720402346
 O    1.2189066053    0.1009814443   -1.0243389546
 C    2.1911568233   -0.7006698766   -0.5062243231
 C    3.3546432441   -0.9372942345   -1.4081143584
 N    2.0389113381   -1.1614401245    0.6678172309
 C    0.7711610408   -0.6032755724    1.1939093851
 C    1.1233175770    0.3859841136    2.3155495618
 C   -0.1103709944   -1.7297583041    1.7414353930
 H    0.2405029811    2.1723468889    0.4179757291
 H   -0.8505098548    1.7819291579   -0.9216286325
 H   -1.3358029750    1.4219000712    0.7417742451
 H   -0.6226580804   -0.6283811675   -0.4896195263
 H    3.0272050728   -1.4251628928   -2.3316744527
 H    3.8132736117    0.0157210088   -1.6905385504
 H    4.0904767772   -1.5623881189   -0.9034880649
 H    1.7531430579    1.2003837325    1.9465170338
 H    0.2250169246    0.8188552523    2.7673638636
 H    1.6826589032   -0.1384071807    3.0948505415
 H    0.3822919546   -2.2251782988    2.5825694195
 H   -1.0734684344   -1.3385467843    2.0893319240
 H   -0.3019161650   -2.4820118890    0.9705920773