17

 C   -0.0540787645    1.5471974624    0.0510586147
 C   -0.0633077222    0.0181429984    0.0377719030
 O    0.4800469914   -0.5070221557   -1.1632339023
 C    0.8020627733   -0.5400261339    1.1685254323
 N    0.7090371400   -1.9873931824    1.2669498499
 N   -0.4162408026   -2.6243820792    1.5685137493
 C   -0.0156639796   -3.8890561216    1.5252876910
 N    1.2934398070   -4.0135016649    1.2151946324
 N    1.7412380971   -2.7924384660    1.0522431275
 H    0.9651770573    1.9272435647   -0.0699710520
 H   -0.6599981039    1.9352847772   -0.7739835865
 H   -0.4708582713    1.9416332683    0.9835843925
 H   -1.0896330479   -0.3468644891    0.1910004484
 H   -0.1163484714   -0.2898593963   -1.8861136910
 H    1.8543688013   -0.3175383855    0.9832889880
 H    0.4981841349   -0.1092585867    2.1258475476
 H   -0.6689388889   -4.7234564998    1.7222249252