16

 O   -0.0524840947    1.4526002654    0.1986934377
 C    0.0340805079    0.0541582144   -0.0002902160
 C   -1.3189561415   -0.5651464768   -0.1461087124
 O   -2.0751438487   -0.8245364778    1.0423743431
 C   -1.8815629280   -1.9010125205    0.1170968260
 C   -2.9476384743   -1.7462277014   -0.9734367541
 C   -2.3559311539   -0.3122233086   -1.2740690696
 C   -3.2315777051    0.8364296752   -1.1080092563
 N   -3.9376072194    1.7416830525   -0.9743434743
 H   -0.5747094833    1.6068392212    0.9941081006
 H    0.6121221388   -0.0845987200   -0.9200423672
 H    0.5667536381   -0.4558239931    0.8161724181
 H   -1.4139851516   -2.8026830753    0.4943191612
 H   -2.8212790418   -2.4216892659   -1.8211855569
 H   -3.9785861687   -1.7747779489   -0.6188575819
 H   -1.8832901237   -0.2763873103   -2.2587904878