17

 C   -0.0423286425    1.5694541084    0.1143835339
 C    0.0044159939    0.0335061524    0.0532326705
 N    0.6481780576   -0.4749543671    1.2664475839
 C   -1.3728808972   -0.4957109446    0.0190426274
 N   -2.4436126396   -0.9277152648   -0.0058335486
 C    0.7179690153   -0.4599710233   -1.2679432038
 O    0.0540078105   -0.0236731395   -2.4393075402
 C    2.1326681388   -0.0810768072   -1.2556181780
 C    3.2817114450    0.2745792208   -1.2623154500
 H    0.9770941183    1.9662504551    0.1190262647
 H   -0.5806371319    1.9775916019   -0.7435958148
 H   -0.5465948711    1.8842356162    1.0290931889
 H    0.6478897563   -1.4912817164    1.2723762946
 H    1.6195568780   -0.1747739419    1.2711197048
 H    0.6397061216   -1.5537978947   -1.2767928184
 H    0.3618730607    0.8647457188   -2.6483689663
 H    4.3034138663    0.5669800561   -1.2805101486