19

 C   -0.2930925305    1.4884575260   -0.1643246519
 C    0.0948688857    0.0257141502    0.0260587371
 N    0.6054511896   -0.5419987666   -1.2183117074
 C    0.9613158367   -1.9442519178   -1.1284840701
 C    1.5563196686   -2.4090204590   -2.4416574928
 C    1.2794342501   -3.7555893443   -2.9791580861
 O    0.6131773169   -2.6115810645   -3.5051294621
 C    2.7896858164   -1.7521829527   -2.8470825532
 N    3.7885220706   -1.2582017843   -3.1520972254
 H    0.5610109044    2.0689964031   -0.5234217150
 H   -1.1028960219    1.5888713386   -0.8961483880
 H   -0.6421620028    1.9219123673    0.7772343282
 H    0.8904051746   -0.0523250342    0.7783652864
 H   -0.7676535126   -0.5402410499    0.4261458215
 H   -0.0790909875   -0.4195422511   -1.9590194447
 H    1.7089282589   -2.0674961000   -0.3347193249
 H    0.1157001675   -2.6137773951   -0.8862368966
 H    2.0042495662   -4.2226887601   -3.6419818367
 H    0.6626603292   -4.4331660256   -2.3914626383