14

 C    0.0619167179    1.4360021463   -0.0006258682
 C   -0.0641632342   -0.0423274003   -0.0134858590
 N   -1.1337654274   -0.7492007773   -0.2780344364
 C   -0.6684654535   -2.0349815620   -0.1425192836
 C    0.6494984377   -2.0560532766    0.1948856484
 O    1.0759255428   -0.7637765841    0.2874668553
 N    1.1713301648   -3.2936925653    0.3443636594
 C    0.1214010787   -4.0639644205    0.0856742858
 N   -1.0293285192   -3.3586652446   -0.2177600980
 H    0.8097095002    1.7741430894   -0.7257694667
 H   -0.9038932709    1.8745537183   -0.2524615230
 H    0.3738066988    1.7963844272    0.9853415928
 H    0.1297086231   -5.1426791663    0.1018005314
 H   -1.9269604689   -3.7524838542   -0.4424233580