17

 N   -0.0785532898    1.4372947652   -0.1592541346
 C   -0.0308770989   -0.0112629135   -0.0417860453
 C    0.7909962997   -0.5683663978    1.1319109581
 O    0.6934193447   -1.9870072159    1.1790861678
 C   -0.6365243743   -2.3939322925    1.3136512107
 O   -1.4422110993   -1.9874514404    0.2208114222
 C   -1.4677977149   -0.5816359509    0.0528518098
 C   -2.2282397496    0.0788926138    1.1413465349
 N   -2.7992658485    0.6000539524    2.0006536020
 H   -0.3461693540    1.8642988526    0.7236292889
 H    0.8335481569    1.8055801075   -0.4074490135
 H    0.3830811766   -0.4212438479   -0.9687981143
 H    1.8505889844   -0.3250666218    1.0155947156
 H    0.4363347451   -0.1263192690    2.0786962498
 H   -0.6498207260   -3.4842811939    1.3085428550
 H   -1.0657974658   -2.0042985335    2.2530987272
 H   -1.9959944463   -0.3840527144   -0.8834899344