21

 C    0.1865977678    1.6478529385    0.0132357929
 C    0.0927433375    0.1488562819    0.0322723738
 C    0.6145861446   -0.7510451901   -1.1005115434
 C    1.1055505574   -1.8020250270   -0.0498001363
 C    0.5181333596   -0.9246934970    1.0496181673
 O    1.0628628414   -0.8089491776    2.3115674694
 C   -0.9481501732   -0.6624530868    0.8008710815
 C   -1.6851310930   -0.0469696242    1.9694212221
 O   -1.6472359956   -0.8989734844    3.1300743768
 H    1.1879207372    1.9630393595   -0.3013841577
 H   -0.5325143196    2.0874368887   -0.6894398296
 H    0.0046416596    2.0907449531    0.9961509849
 H   -0.1384269801   -1.1000699206   -1.8154252928
 H    1.4380819914   -0.2949241556   -1.6558380516
 H    0.7132580633   -2.8224880807   -0.1296663064
 H    2.1958746349   -1.8463035791    0.0037625468
 H    0.3547829161   -0.9989446895    2.9467372056
 H   -1.5342288400   -1.4032695378    0.2496011337
 H   -1.2151221800    0.8810890093    2.2991498974
 H   -2.7247606955    0.1843129096    1.7027031027
 H   -2.0357084738   -1.7451162602    2.8824625627