21

 C   -0.1365218722    1.5726167110    0.0544032893
 C    0.0669631605    0.0644431998    0.0006887432
 C    1.1745037177   -0.5338047248   -0.9314460252
 C    1.7951951981   -1.2682914601    0.2660210353
 C    2.3106584351   -2.6768206822    0.2390914964
 C    2.1984431675   -0.2622392151    1.2976019237
 C    0.7299238341   -0.6379626429    1.2078396664
 C    0.0262370289   -1.2252362627    2.2949152533
 C   -0.5931072470   -1.7279624770    3.1980502306
 H    0.7971167984    2.1027413926    0.2690412141
 H   -0.5170225169    1.9472333427   -0.9022906508
 H   -0.8601890064    1.8413185103    0.8312766813
 H   -0.8879253143   -0.4249785303   -0.2102787675
 H    0.7662912901   -1.2075584615   -1.6885627775
 H    1.8312825405    0.1896277655   -1.4274037686
 H    3.2744749010   -2.7345295950   -0.2815338394
 H    2.4553070658   -3.0615455253    1.2535532909
 H    1.6133331427   -3.3459201206   -0.2770995208
 H    2.7055632763   -0.6614929472    2.1697304872
 H    2.5236513810    0.7353129569    1.0109327744
 H   -1.1342453610   -2.1666931040    3.9988585835