20

 C    0.1470923017    1.4790376244    0.0505575306
 C   -0.0273766166   -0.0459390621    0.0096614301
 C   -1.5098457914   -0.4626451813   -0.0140329586
 C   -2.3447440832    0.0278394303    1.1728322426
 O   -3.6832033243   -0.4460090490    1.1088158775
 C    0.7534419230   -0.6773241352   -1.1858719972
 O    1.8164780032   -1.4414024381   -0.5681221958
 C    1.5968267571   -1.3400228856    0.7633828830
 N    0.6397935923   -0.6364230422    1.1997757871
 H    1.2068843325    1.7425493484   -0.0180532349
 H   -0.3806477312    1.9543852442   -0.7836303021
 H   -0.2361362347    1.8928557343    0.9859697211
 H   -1.9723868377   -0.1091361447   -0.9444163365
 H   -1.5523937488   -1.5603761027   -0.0372805203
 H   -1.8547312280   -0.2581478810    2.1129565378
 H   -2.4251933582    1.1189693042    1.1631482253
 H   -3.6605575946   -1.4006330133    1.2288635713
 H    0.1436563834   -1.3640455094   -1.7810314218
 H    1.2077759345    0.0641929446   -1.8481035454
 H    2.2992708810   -1.8983836158    1.3730968164