22

 C    0.0526760995    1.5312412420    0.1207959619
 C    0.0196867418    0.0195393383   -0.0311571893
 C    0.7682398533   -0.5080065318   -1.2488846945
 C    0.7753371128   -2.0411939864   -1.2198799655
 C    1.7182275517   -2.6390420069   -2.2659810448
 N    1.1383448007   -2.5648532619    0.0979050016
 C    1.0486924924   -1.8147105901    1.1163282446
 C    1.4620384290   -2.2788645223    2.4828887428
 O    0.5931250323   -0.5302801205    1.1716961402
 H    1.0855448991    1.8900312915    0.1658604321
 H   -0.4448965579    2.0079341923   -0.7291627671
 H   -0.4577682188    1.8364706888    1.0383258568
 H   -1.0250597830   -0.3220311209   -0.0758166757
 H    0.3009505231   -0.1321572427   -2.1655170487
 H    1.7993135905   -0.1316024127   -1.2271696384
 H   -0.2415351640   -2.3981832912   -1.4436625932
 H    2.7488648077   -2.3188800469   -2.0797671479
 H    1.6918908950   -3.7305936795   -2.2169051951
 H    1.4356976851   -2.3240513104   -3.2761743034
 H    2.2240712449   -1.6094835568    2.8949610330
 H    0.6079271745   -2.2540828309    3.1674920293
 H    1.8553066803   -3.2925781007    2.4208155813