18

 C   -0.0744249848    1.5174507905    0.0494608573
 C    0.0079286278    0.0184940045   -0.0081204669
 C   -0.0377012983   -0.6879025185   -1.1392424591
 C    0.0852026409   -2.1908190882   -1.1327329606
 O    0.8688586102   -2.6805617495   -0.0497363776
 C    0.5193390424   -2.1666146671    1.2023972333
 C    1.4740485196   -1.1793247880    1.8174851413
 C    0.1229994661   -0.7204236140    1.2809336527
 H    0.8204301660    1.9422826847    0.5212603242
 H   -0.1768992127    1.9538363677   -0.9478713211
 H   -0.9296352075    1.8440913661    0.6550112198
 H   -0.1554929209   -0.1999424888   -2.1033213491
 H   -0.9147314003   -2.6595101666   -1.1276621286
 H    0.5936988811   -2.5384674305   -2.0378347286
 H    0.0201732839   -2.8869405372    1.8485375478
 H    1.6241988524   -1.1921877470    2.8917501546
 H    2.3501651198   -0.9400290370    1.2255211381
 H   -0.6145130958   -0.4507058912    2.0333625025