16

 C    0.1466414538    1.3420197600    0.0970556269
 O    0.1532629151   -0.0910497153    0.0524455962
 C    0.6731594469   -0.6306603581   -1.0507527540
 N    1.1467615929    0.0298484588   -2.0703723483
 O    1.5590426620   -0.9445052212   -2.9539394041
 N    1.3345262010   -2.1984847545   -2.4522868329
 C    0.7877186139   -2.0395170902   -1.2822914275
 C    0.3642936687   -3.1644829482   -0.3897621992
 N    0.9852610166   -3.0235000072    0.9323563290
 H    1.1672167980    1.7304301496    0.0323219908
 H   -0.4426697211    1.7467858917   -0.7308784480
 H   -0.3039578065    1.6084227669    1.0527668424
 H   -0.7392816858   -3.1937630487   -0.3702396727
 H    0.7018265432   -4.0996893630   -0.8448191087
 H    0.6103099014   -2.2007311614    1.3955978599
 H    0.7324660499   -3.8206725391    1.5076865502