15

 O   -0.1186320320   -0.0202998989    0.1244499508
 C   -0.0559217783    1.1944557924    0.1245232028
 C    1.1728144320    1.9447755468    0.0807167574
 C    1.3044231771    3.2873434302   -0.0363979067
 N    2.5922248788    3.6959078001   -0.2164316467
 C    3.5076165275    2.5701538094    0.0299504032
 C    2.5642031506    1.3177607509   -0.0036181387
 C    2.8771244186    0.3816949651    1.0773696038
 N    3.1794337099   -0.3244437114    1.9403339766
 H   -0.9768077907    1.8204880151    0.1551430166
 H    0.5035966831    4.0171411840   -0.0488127068
 H    2.8744368168    4.6307576835    0.0331430010
 H    4.2862117660    2.5216182563   -0.7342631600
 H    3.9880357342    2.6635197877    1.0098572541
 H    2.6732384665    0.7744484289   -0.9500707876