15

 C   -0.0064880435    1.4545437165    0.1258076231
 C   -0.0078603963   -0.0307790488   -0.0156884302
 C   -0.0799570727   -0.8296405962   -1.1528896278
 C   -0.0456460412   -2.1805350159   -0.7498627071
 C    0.0467807408   -2.1630147082    0.6268352737
 N    0.0690874867   -0.8637061064    1.0602810709
 N    0.1156605318   -3.2180237903    1.5682099712
 O    0.1937860008   -2.8973288079    2.7608928035
 O    0.0936485462   -4.3702440481    1.1456897983
 H    0.9097443792    1.8163132607    0.6065715853
 H   -0.0752248631    1.9217054916   -0.8584408753
 H   -0.8540785110    1.8066745516    0.7250972865
 H   -0.1497379954   -0.4608037275   -2.1647392806
 H   -0.0818828740   -3.0661465167   -1.3619143453
 H    0.1322711616   -0.6249182045    2.0373604537