13

 O    0.0544181085   -0.0116920708   -0.1159895872
 C    0.0122022881    1.1657780015   -0.0891843191
 C   -1.0352959973    2.3655201949    0.0706157448
 O   -0.0239510731    2.9267285874    0.9554411379
 C    0.9687657754    2.4366464921    0.0216110025
 C    0.5807867278    3.1252246974   -1.2825182465
 C   -0.7750653269    3.0702595457   -1.2331705067
 C    1.4636102900    3.5787403528   -2.2755456082
 C    2.2559735015    3.9628911779   -3.0984885423
 H   -2.0312741703    2.2804231800    0.4953645551
 H    1.9949276132    2.4370759199    0.3772137365
 H   -1.4988642088    3.3595838199   -1.9794542706
 H    2.9445427720    4.3031003312   -3.8319920362