12

 O   -0.1084704785    0.0404867057   -0.4556286230
 C   -0.0590970490    1.1602522324   -0.0858119452
 O   -1.0406701710    1.9137695901    0.5258829133
 C   -0.2056327442    3.0993544205    0.6108641145
 C    0.6449676764    3.1283014561    1.8823870501
 O    1.6747001639    2.3120193274    1.2503738547
 C    0.9801921065    2.3202591915   -0.0096683309
 C    1.7811736638    2.6671119671   -1.1597798801
 N    2.3968194907    2.9487122435   -2.0958610048
 H   -0.6925663485    3.9824530229    0.2081581718
 H    1.0408694726    4.1152390654    2.1405417980
 H    0.2024904874    2.6444889774    2.7564045118