21

 C   -0.5649746688    1.4529302756    0.1241461791
 C   -0.0428365621    0.0293456597   -0.1270009314
 C    0.6790767971   -0.0864458860   -1.4799153346
 C    0.8322402866   -0.4615096827    1.0243483278
 C    0.1656316481   -1.0840928000    2.2577333867
 C    0.9091400643   -1.9611941734    1.3124017345
 O    0.2234951245   -2.7942013784    0.4283275132
 C    2.0993123418    0.2643462617    1.3117503824
 O    2.8434656499   -0.0038859431    2.2286130309
 H    0.2489338510    2.1863403211    0.1485478915
 H   -1.2527831442    1.7568941475   -0.6715250738
 H   -1.0997019640    1.5183020893    1.0771079987
 H   -0.9047759398   -0.6441987940   -0.1674965397
 H    1.5682042248    0.5524338475   -1.5265168076
 H    0.9896454467   -1.1183380883   -1.6642813040
 H    0.0163430626    0.2210978538   -2.2954489052
 H    0.6224716432   -0.8664506232    3.2166292751
 H   -0.9184753594   -1.1259471278    2.2365201044
 H    1.8881620086   -2.3171003939    1.6294380084
 H   -0.2068641974   -3.4859020469    0.9415831973
 H    2.3459129564    1.0924995618    0.6140159063