11

 N   -0.0817241551    1.2728341442    0.0103094535
 C   -0.0321761244    0.0168139668    0.0036006673
 O    1.1082882214   -0.7551973396   -0.0080133773
 C    0.7541485650   -2.1055964194   -0.0124987083
 O    1.5632925609   -2.9788852658   -0.0223733315
 C   -0.7272392717   -2.1652261414   -0.0028167704
 C   -1.1934595583   -0.9062809175    0.0067111599
 C   -2.5402771136   -0.4621788842    0.0180325372
 N   -3.6437147847   -0.1157340655    0.0272219049
 H    0.8517544812    1.6872947822    0.0061286821
 H   -1.2768136308   -3.0939374796   -0.0038339273