16

 C   -0.0956514899    1.3986855334    0.3026150366
 N    0.0219388967   -0.0361362191    0.0802103309
 C   -1.1259740707   -0.6931618743   -0.5270742655
 C   -1.0853287838   -2.2027882927   -0.3412989282
 O   -2.0376823894   -2.9140351245   -0.5280621613
 C    0.2692830159   -2.7132649936    0.1154537050
 O    1.3343737360   -1.8897835966   -0.3491416166
 C    1.2907222138   -0.5504222758   -0.0761929137
 O    2.3099778653    0.0841896995    0.0102557989
 H    0.8032761665    1.7470003035    0.8080100728
 H   -0.2003629216    1.9508009354   -0.6412426248
 H   -0.9735424501    1.5990608014    0.9245356521
 H   -2.0453556978   -0.3192464083   -0.0658370849
 H   -1.2052310309   -0.4814526880   -1.6065468086
 H    0.2718286274   -2.7626152311    1.2143524655
 H    0.4453665026   -3.7165753493   -0.2752196982