18

 C   -0.0127723273    1.5234707846    0.0900238094
 C    0.0228696342    0.0078559242   -0.0144090110
 C    0.7437581808   -0.4978273359   -1.2713245242
 C    1.0546895834   -1.9616328550   -1.1630445534
 C    0.9781945937   -2.6091907185    0.0069407492
 C    0.6172738499   -1.8767024309    1.2884603748
 O    0.6916510782   -0.4797879766    1.1467568701
 C    1.2214926746   -4.0102494534    0.1117259523
 N    1.4071975875   -5.1464235639    0.2425897658
 H    1.0044113866    1.9232282448    0.1450974487
 H   -0.5115272729    1.9577527186   -0.7816126686
 H   -0.5513194352    1.8311210232    0.9898243891
 H   -1.0078494603   -0.3859795954   -0.0233865638
 H    0.1262702722   -0.3143359614   -2.1595165660
 H    1.6738812133    0.0683241804   -1.4238427593
 H    1.3397084487   -2.4991012512   -2.0622513210
 H   -0.3884765222   -2.1924185446    1.6172910205
 H    1.3177725847   -2.1497771089    2.0842232473