16

 C    0.1744943501    1.2421439872    0.5890393312
 C   -0.2032900883    0.2667831465   -0.5405668294
 C   -1.4671666638   -0.4227986399   -0.3060938084
 C   -2.5153548854   -0.9786051950   -0.0993241860
 C   -3.7745886497   -1.6880385918    0.1634702053
 O   -3.5629393717   -3.0045947449    0.6685155242
 C   -4.6493121036   -0.8983713356    1.0456350087
 C   -5.3639839753   -0.2768852998    1.7846232768
 H    1.1256557540    1.7335543498    0.3644215465
 H   -0.5922566079    2.0118412320    0.7101738202
 H    0.2755110628    0.7142094831    1.5410893244
 H   -0.2626036524    0.8098117140   -1.4924460993
 H    0.5936798523   -0.4768253445   -0.6688282947
 H   -4.2978004788   -1.8477879551   -0.7883100368
 H   -3.0802537313   -2.9150146597    1.4985249679
 H   -5.9985947509    0.2761856137    2.4322734095