17

 C   -0.0401932384    1.5100783918    0.0276284780
 C   -0.0128182688    0.0169450447   -0.0402512134
 C    0.6256608625   -0.8529261425   -1.1703631877
 C    1.0003385793   -2.1327846822   -0.4604174028
 C    1.0647243509   -1.8507327322    1.0283859437
 N    0.0421307988   -0.8073092448    1.1831106367
 C   -1.0360990832   -1.0410061349    0.1984863736
 C   -0.4227829382   -1.9199178838   -0.9256702635
 H    0.9723757652    1.9181134641    0.1333461544
 H   -0.4797327363    1.9378761330   -0.8799916828
 H   -0.6293999651    1.8402573503    0.8871833796
 H    1.0524656145   -0.5011359855   -2.0989834390
 H    1.6290234210   -2.8651337301   -0.9522945434
 H    0.8056164792   -2.7190863421    1.6430460378
 H    2.0376170283   -1.4651331537    1.3507312763
 H   -2.0707263856   -0.9965396314    0.5154363688
 H   -0.9509583242   -2.5455768506   -1.6302536662