20

 O    0.0308274052    1.4324753299   -0.1501867600
 C    0.0403975586    0.0280193186   -0.0472835485
 C    1.1915812319   -0.5211983680   -0.8568644596
 C    2.5374648298   -0.0051026242   -0.3592414324
 O    3.5663406405   -0.6138310963   -1.1417450812
 C    4.6944584803    0.0912615201   -1.3351377838
 N    5.6883633347   -0.4426740175   -1.9023174348
 C   -0.3585069468   -0.6298086460    1.2485938996
 C   -1.2578501292   -0.7253184470    0.0232920704
 H   -0.6701024351    1.7828159402    0.4076672305
 H    1.1855064275   -1.6143047479   -0.8109867216
 H    1.0676294385   -0.2376997955   -1.9079985717
 H    2.5800336386    1.0861358391   -0.4470970936
 H    2.6853218553   -0.2682121604    0.6963753414
 H    4.6305048066    1.1265077429   -0.9698693772
 H    6.4403013017    0.2376213159   -1.9904917479
 H    0.1699681917   -1.5196713189    1.5742820106
 H   -0.6845944227    0.0108552799    2.0625302707
 H   -2.1741173394   -0.1428269607    0.0275820653
 H   -1.3423890477   -1.6789173444   -0.4870330764