16

 C    0.1816632542    1.5484362372    0.1620710242
 C    0.1258786421    0.0304162535   -0.0152043619
 N    0.9300140500   -0.3709508483   -1.1658059200
 C    1.8189626669   -1.2400140348   -1.0652511173
 C    2.7276318611   -1.7425111605   -2.1611969036
 O    3.5479512502   -2.7127566717   -1.5055071097
 C    3.2045731130   -2.8110411556   -0.2032355987
 O    3.7054909838   -3.5315401782    0.5925363788
 O    2.1729576601   -1.9436707665    0.0795286248
 H    1.1981378858    1.8765135177    0.3997067576
 H   -0.1337673888    2.0552682893   -0.7539577254
 H   -0.4766695424    1.8590288747    0.9787785155
 H    0.4328454193   -0.4761436759    0.9075453553
 H   -0.9071924319   -0.2708085016   -0.2276399120
 H    2.1706838245   -2.2193235318   -2.9722500439
 H    3.3551106119   -0.9479002775   -2.5734070636