17

 O   -0.2580790898    1.2508474439   -0.3870486190
 N   -0.0691863789   -0.1496165075   -0.4690115716
 C   -1.1370348246   -0.7475545523   -0.1404133241
 C   -2.5482461012   -0.3156029279    0.2455499761
 O   -3.2028100181    0.5437356328   -0.6545980752
 C   -2.9769033992   -1.8135677160    0.1375153839
 C   -1.5022448988   -2.1922999008   -0.1004020981
 C   -0.8748889047   -3.3141954863   -0.8400123813
 N   -0.7822941796   -3.2464409614    0.6252655956
 H    0.5889998094    1.5935786276   -0.6912868007
 H   -2.5912166033    0.0608619239    1.2786578974
 H   -2.6325661072    1.3145134168   -0.7622396422
 H   -3.4307660345   -2.2442689157    1.0308171071
 H   -3.6174884877   -1.9814283975   -0.7304968831
 H   -1.5046737397   -4.1137508174   -1.2210342384
 H    0.0043028529   -3.0896141549   -1.4380013569
 H    0.1344474151   -2.8982469973    0.8995011705