18

 N   -0.0841981643    1.2649513745   -0.0355802704
 C   -0.0437055116    0.0050366998   -0.0761445206
 O   -1.1339506908   -0.7141447564    0.2655457163
 C   -1.0372510023   -2.1176786608    0.0991838279
 C   -2.3601963566   -2.8268148881    0.5124525238
 C   -2.9232372387   -2.3803151201   -0.8777260354
 C   -1.4629882772   -2.6785581747   -1.2922622605
 O   -1.3185106948   -4.0892726530   -1.0884768813
 C   -1.9708330649   -4.2728514017    0.1970736700
 H    0.8199765678    1.6497981142   -0.3010132739
 H    0.8179521015   -0.6150897518   -0.3591995796
 H   -0.0972658706   -2.5016051384    0.5116209137
 H   -2.8565668244   -2.6143833441    1.4575149866
 H   -3.7021280586   -2.9915429937   -1.3379257673
 H   -3.1727963622   -1.3213262850   -0.9052604736
 H   -1.0099179217   -2.3854815835   -2.2379559321
 H   -1.2643446931   -4.7091110067    0.9121753860
 H   -2.8322062476   -4.9419464906    0.0915160502