21

 C    0.1744267602    1.4009113876   -0.2640596426
 C   -0.0264901371   -0.0714615378    0.0100837487
 N    1.0123655985   -1.0657229219   -0.2685418105
 C    2.2686396119   -0.8287959875   -0.8275324326
 N    2.1986763750   -0.3197212852   -2.1130761383
 O    3.3192415529   -1.0790420673   -0.2711701056
 C    0.6593959344   -0.8270552101    1.1248006486
 C    1.6375901423   -0.1329140110    2.0538609939
 C   -0.0929046298   -1.9733424304    1.7765186419
 H    1.1712519626    1.7486115668    0.0117388383
 H    0.0350497243    1.6204222100   -1.3275068763
 H   -0.5632072703    1.9848885394    0.2966883462
 H   -1.0246001296   -0.4239927862   -0.2549336728
 H    1.3571577097   -0.5004787649   -2.6377153510
 H    3.0586144715   -0.4091757949   -2.6323032517
 H    2.1666728961    0.6931551799    1.5792098521
 H    1.1030162728    0.2510394063    2.9296214608
 H    2.3950896713   -0.8427682805    2.3955020888
 H    0.6072033310   -2.7301465042    2.1459565101
 H   -0.6818432793   -1.6145819095    2.6277433357
 H   -0.7668696484   -2.4545107485    1.0633193663