19

 C    0.9308422388   -0.2740611744    1.2662642856
 C    0.0762530472    0.0908887685    0.0370047688
 C    0.7370305416   -0.4024786184   -1.2692965809
 C    0.0326160401    0.1320400421   -2.5306841854
 O    0.0131609511    1.5594483815   -2.5569547998
 C    0.6375786626   -0.4191951231   -3.7453391112
 C    1.1803035425   -0.8471672245   -4.7291946139
 C   -1.2823690409   -0.4348581716    0.1690328667
 C   -2.3906423156   -0.8897881801    0.2755881974
 H    1.0423972363   -1.3590936248    1.3542571869
 H    1.9281183406    0.1687749887    1.1802713880
 H    0.4671681897    0.0937515131    2.1850529018
 H    0.0103763537    1.1838361311   -0.0316351566
 H    1.7833100745   -0.0733096546   -1.2866346405
 H    0.7411138557   -1.4974021160   -1.2961069947
 H   -1.0227683220   -0.1613898950   -2.4857348280
 H    0.8904603383    1.8546015266   -2.8256221378
 H    1.6370922258   -1.2300439703   -5.6083396498
 H   -3.3747328002   -1.2765131889    0.3736704635