18

 C   -0.1281432748    1.4785913245    0.0408374534
 C    0.0118668979   -0.0250571855    0.0168868233
 O   -1.2624903457   -0.6301093454   -0.0504696055
 C   -1.1449425494   -1.9665862350    0.4373249429
 C   -0.1178682439   -1.8884960448    1.5835571696
 C    0.8271115638   -0.8038588533    1.0943373523
 O    1.7496939534   -1.2776571589    0.0561311665
 C    1.0618437698   -0.6106983629   -0.9405030190
 N    1.2720501394   -0.5375468210   -2.1726841545
 H    0.8489108253    1.9586784891    0.1405167461
 H   -0.5825332731    1.8191205769   -0.8932120878
 H   -0.7668902918    1.7855810871    0.8737023879
 H   -2.1377547949   -2.2938551361    0.7519955627
 H   -0.7907290649   -2.6374494972   -0.3578383213
 H   -0.5985545911   -1.5558646608    2.5093771071
 H    0.3929969007   -2.8347960582    1.7750724293
 H    1.3676852218   -0.2519194445    1.8635641174
 H    2.0923092874   -1.0812348641   -2.4488235405