21

 C   -0.0216335037    1.4942324721   -0.2556305180
 C    1.4985069282    1.5974716211    0.1271208696
 C    1.3223840937    0.2856323611    0.9144195374
 C    1.9498789695   -1.1057004083    1.1192936692
 C    0.6820717036   -1.3040456639    1.9973137269
 C   -0.6720595166   -0.7850379159    1.2661630368
 C   -0.7914016512    0.2674076983    2.3934414574
 C    0.7416387786    0.2027901209    2.3917832938
 C    0.0322163169   -0.0207817126    0.1367151885
 H   -0.6560017532    2.1054213755    0.3889181804
 H   -0.2792665967    1.7089303041   -1.2949717220
 H    2.1463479889    1.4793454324   -0.7472014974
 H    1.8238041867    2.4801512749    0.6845325080
 H    2.1186617915   -1.7203731048    0.2292430267
 H    2.8377433684   -1.1269859497    1.7604763354
 H    0.5815263613   -2.1013372841    2.7333711368
 H   -1.4928675056   -1.4640006541    1.0333098765
 H   -1.3180900886    1.2028271772    2.1852468178
 H   -1.1858294806   -0.1676036305    3.3171463897
 H    1.3754296565    0.5780674327    3.1961242034
 H    0.2085085724   -0.6422931266   -0.7461654670