21

 C   -0.0267443146    1.5092033048    0.0226226736
 C    0.0056909387   -0.0025733830   -0.0025909126
 C   -1.3569013989   -0.7658357995   -0.0529398713
 C   -0.9658235050   -1.5239576515    1.2649079041
 O   -0.9306410624   -2.9348730518    1.2584757091
 C    0.4252448929   -0.8340374805    1.2527800873
 C    1.6000996802   -1.4366563648    0.4555351952
 C    1.1829072823   -2.1178974482   -0.8154268122
 C    1.1985436630   -0.6172727640   -0.7831418777
 H    0.9565948454    1.9198388635    0.2792278791
 H   -0.3084958922    1.9144804665   -0.9575021301
 H   -0.7493431813    1.8826322848    0.7568370214
 H   -2.2329983606   -0.1192643529    0.0535232326
 H   -1.5040047953   -1.4108273667   -0.9225024364
 H   -1.5636293493   -1.1598790269    2.1127599202
 H   -1.8382550538   -3.2553250299    1.2652583201
 H    0.7283047649   -0.3346248748    2.1745018309
 H    2.5852909521   -1.5950940427    0.8774744646
 H    2.0066263985   -2.5561312743   -1.3719278538
 H    0.2674948646   -2.6942510160   -0.8632722428
 H    1.8274418807   -0.0432903921   -1.4557331213