18

 C   -0.2892734427    1.4732594939   -0.0164536760
 N    0.0533981609    0.0546809626    0.0390006098
 C    1.3579246049   -0.4604681803   -0.3212068139
 C    2.5560424559    0.4692067019   -0.3312193682
 O    2.5096604812    1.1963239702    0.8929960548
 C    1.8171690917    0.4306837967    1.8704935162
 C    0.8816592037   -0.5089284791    1.1084914113
 C    0.4053939550   -1.6793593788    1.7908417793
 C    0.0270872618   -2.6443776372    2.4000454997
 H    0.5145700037    2.1582940325    0.2756906607
 H   -0.5966103293    1.7056454921   -1.0409141314
 H   -1.1537389919    1.6405999623    0.6329412701
 H    1.3726534881   -1.3398902821   -0.9593677921
 H    3.4796437858   -0.1253532160   -0.4162433481
 H    2.5451300858    1.2010777286   -1.1467115270
 H    2.5057601887   -0.1705885878    2.4823578091
 H    1.2917949943    1.1308124754    2.5287511046
 H   -0.3187191974   -3.5004498650    2.9245803913