23

 C    0.2517524125    1.3366487752    0.1765516851
 C    0.1226714866   -0.1729559133    0.4120506215
 C   -1.3130614586   -0.6617171598    0.3066415162
 C   -1.9340981839   -0.9129555936   -1.0996766202
 O   -1.0376348114   -2.0827348159   -1.2587961043
 C   -1.5896364524   -2.1799080798    0.1151087237
 C   -2.9931120278   -1.8768180773   -0.4831889325
 C   -4.1989416303   -1.4256242633    0.3293924879
 C   -5.3121827454   -0.8544564402   -0.5583611547
 H    1.2911091406    1.6642868807    0.2758382634
 H   -0.0876592889    1.6127275550   -0.8277163088
 H   -0.3465135266    1.9076624428    0.8958343474
 H    0.7355049639   -0.7229305649   -0.3072578873
 H    0.5052458897   -0.4180031023    1.4117518671
 H   -1.9629056228   -0.1492397526    1.0221391700
 H   -2.0229761796   -0.2371656033   -1.9521333703
 H   -1.2631752297   -3.0252726353    0.7241058015
 H   -3.2720420175   -2.6457364029   -1.2101901776
 H   -4.5836340926   -2.2929115123    0.8816464815
 H   -3.9204027673   -0.6852321355    1.0858858912
 H   -6.1902161226   -0.5807624048    0.0343333528
 H   -4.9750537223    0.0422260413   -1.0893112663
 H   -5.6307118936   -1.5833242578   -1.3114324676