17

 O    0.0462255622    1.3774887781   -0.0254888881
 C    0.0220644556   -0.0084941029   -0.0104173952
 C    1.0101000617   -0.5212275573   -1.0378749108
 O    1.6562028876    0.2571840305   -1.7056690506
 C    0.0246719723   -0.6484950105    1.4600913361
 C   -1.4654172520   -0.1781373202    1.5257104351
 C   -1.4523387033   -0.6396991170    0.0315125428
 C   -1.1172727323   -2.1189881392    0.1902060153
 C   -0.1541230492   -2.1247561075    1.1216259813
 H    0.6997726959    1.6153635498   -0.7062658631
 H    1.1185452722   -1.6096367782   -1.1553387137
 H    0.7737182570   -0.3446851247    2.1899615779
 H   -2.1217104430   -0.7317896673    2.2007917677
 H   -1.5741870104    0.9002449007    1.6447646814
 H   -2.2047209303   -0.3268703548   -0.6910785827
 H   -1.5420400157   -2.9377657554   -0.3731070656
 H    0.4180079017   -2.9494700440    1.5224315223