22

 C   -0.0156453269    1.6415302470    0.2237254803
 C    0.0432977159    0.1072689111    0.0727045774
 C    0.8184557777   -0.4992682247    1.2626976955
 C   -1.3573342989   -0.5187908219   -0.0483049872
 N   -2.1703187637   -0.2688568897    1.1391277323
 C   -3.1763575786    0.7868418756    1.0479095667
 C   -3.5753685007   -0.6457590999    1.0380514533
 C    0.8431400170   -0.1960605019   -1.1854513947
 O    0.4579781293   -0.8393441700   -2.1281147117
 H    0.9909466147    2.0737189614    0.2206946893
 H   -0.5838843067    2.1043408467   -0.5898512294
 H   -0.4915901644    1.9067572937    1.1708598965
 H    0.2728553692   -0.3020377511    2.1880872967
 H    0.9231116618   -1.5839291830    1.1558060384
 H    1.8208454453   -0.0661611344    1.3460841540
 H   -1.8430943570   -0.1572711693   -0.9702089393
 H   -1.2469536621   -1.6025352909   -0.1606164400
 H   -3.3119357893    1.3938333795    1.9386956157
 H   -3.2606493244    1.3307393535    0.1082413477
 H   -3.9252831174   -1.0556128494    0.0917171341
 H   -4.0065329368   -1.1076783187    1.9217126441
 H    1.8718148059    0.2384055063   -1.1732255696