19

 O   -0.0449919628    1.2754077197    0.3607345504
 C   -0.0803026228   -0.1365491187    0.2000521316
 C   -1.5326621588   -0.5425138577   -0.0384453525
 N   -2.0733621441   -0.0577903105   -1.2827456914
 C   -2.4428991403    1.2895839392   -1.7320533379
 C   -2.5915494124    0.6914297897   -3.1568785472
 O   -1.7794064551    1.3354744390   -4.1076741604
 C   -2.0400487968   -0.6152455402   -2.5361334693
 N   -1.6381867351   -1.7659824464   -2.8968452048
 H    0.8742283369    1.5566969238    0.3739479210
 H    0.5288509373   -0.4621402963   -0.6550396170
 H    0.2921438288   -0.6519338757    1.1001507883
 H   -1.6008745451   -1.6347359280   -0.0563417037
 H   -2.1469350633   -0.1724307900    0.7913389308
 H   -3.3522675814    1.6870086221   -1.2684750130
 H   -1.6337902308    2.0207625940   -1.6651876908
 H   -3.6337853343    0.6057068171   -3.4940981213
 H   -1.7089374986    0.7622262721   -4.8781893954
 H   -1.7721963711   -1.9025496531   -3.8974192872