17

 C    0.0746297320    1.5069623420    0.0379446916
 C   -0.0916216476    0.0304169306   -0.0380239410
 C   -1.1513441132   -0.8157081060   -0.0696083116
 C   -2.6479441478   -0.9607136171   -0.0749382152
 N   -2.8716057510   -2.4193209895    0.1584432884
 C   -1.6295534799   -3.1553631587   -0.2057299671
 C   -0.5588031555   -2.0990916135   -0.1433459057
 N    0.7437342767   -2.0756997387   -0.1532515932
 O    1.0518013408   -0.7031018377   -0.0827626873
 H    0.6870715060    1.7886614076    0.9005794792
 H    0.5720204101    1.8935846787   -0.8579516022
 H   -0.8991983028    1.9920930467    0.1283772145
 H   -3.1681774106   -0.3775124204    0.6905650454
 H   -3.0760169053   -0.6732062781   -1.0446084732
 H   -3.0233781014   -2.5491128452    1.1522485870
 H   -1.4672387634   -4.0002560839    0.4678274821
 H   -1.7129633771   -3.5584225569   -1.2232951717