17

 C   -0.2665893882    1.4623514687    0.1559434946
 C    0.3082235741    0.0755775015   -0.1246287799
 N    0.9104059760   -0.5076581926    1.0652746095
 C    0.8386624543   -1.8691045781    1.2943661379
 O    0.1408668040   -2.6235728357    0.6377813884
 N    1.6360883451   -2.2986933708    2.3405463887
 C    1.4918838801   -3.6534825583    2.8419481541
 H    0.5110053008    2.1594049582    0.4896947409
 H   -0.7153700795    1.8797489208   -0.7507218732
 H   -1.0339078941    1.4153958157    0.9340872848
 H   -0.4724690906   -0.6191673699   -0.4394456086
 H    1.0360565896    0.1305828148   -0.9481210174
 H    1.7074078787   -0.0205049660    1.4460404638
 H    1.9209288982   -1.6018467716    3.0109550858
 H    2.4409107684   -3.9969618301    3.2637265158
 H    0.7109850466   -3.7457265040    3.6092902729
 H    1.2176118465   -4.2925553925    2.0025829521