17

 C   -0.0375507119    1.5121655258    0.0472361962
 C   -0.0098952271   -0.0098710916    0.0057241900
 C    1.3255189115   -0.7116136845   -0.2080445571
 C    0.6819583166   -0.7481503468    1.1635784051
 O    1.2028674911    0.1038807802    2.1486533840
 C    0.1465385299   -1.9876382071    1.6611649006
 C   -0.2536226332   -3.0244887551    2.1200425600
 C   -1.1785026438   -0.6164756989   -0.5739745895
 C   -2.1663530612   -1.0829657773   -1.0762460868
 H    0.8516423689    1.9031469109    0.5420966893
 H   -0.0858182511    1.9088805018   -0.9712363122
 H   -0.9177295414    1.8641341047    0.5922139821
 H    1.3358087674   -1.6219115997   -0.7946398393
 H    2.1972808828   -0.0731153585   -0.3020137257
 H    1.9099086816   -0.3726171786    2.5984130574
 H   -0.6291106291   -3.9352783471    2.5164197078
 H   -3.0372132810   -1.5073343282   -1.5105081519