17

 C    0.0720191187    1.4039177963    0.0281004088
 O    0.0047784951   -0.0059482416    0.0390594065
 C   -1.2309016891   -0.5870291653    0.0138422301
 C   -2.4390651191    0.1068979438   -0.0215509223
 C   -3.6468028031   -0.5959545721   -0.0450136346
 C   -3.6595355434   -1.9860187210   -0.0334532440
 O   -4.8107904196   -2.7243357427   -0.0552332105
 C   -2.4464833320   -2.6803164069    0.0020691037
 C   -1.2484191921   -1.9870894259    0.0253701326
 H    1.1327728444    1.6601392442    0.0515239280
 H   -0.3791680248    1.8269289310   -0.8798069304
 H   -0.4224159948    1.8428872610    0.9053979134
 H   -2.4630939524    1.1887218186   -0.0313598752
 H   -4.5829666070   -0.0440912942   -0.0725604718
 H   -5.5645950270   -2.1264579349   -0.0787594793
 H   -2.4628110113   -3.7641923746    0.0109199141
 H   -0.3013672523   -2.5139723357    0.0529631309