23

 C   -0.0535996181    1.5208871076    0.0291374509
 C   -0.0064281424    0.0024550754   -0.0006853216
 O   -1.3294160687   -0.4911055165    0.0161733407
 C   -1.4045233623   -1.9000680492   -0.0079872954
 C   -2.8728738754   -2.3137639960    0.0390596345
 C   -3.0721213406   -3.8517899138   -0.0325529492
 C   -4.2471450867   -4.1712709177    0.9280923478
 C   -4.3113647424   -2.9437410423    1.8066400947
 C   -3.5769025031   -1.9428049483    1.3260175994
 H    0.9589491194    1.9352469118    0.0152659462
 H   -0.5983690987    1.9045867933   -0.8381879221
 H   -0.5600640483    1.8710057538    0.9331563701
 H    0.5193552944   -0.3505382658   -0.9046372126
 H    0.5556314039   -0.3845426969    0.8665988864
 H   -0.9257152023   -2.2952754520   -0.9213615375
 H   -0.8658551880   -2.3304146598    0.8545912650
 H   -3.3679484832   -1.8141719559   -0.8066689281
 H   -3.2464349852   -4.2062356587   -1.0514933293
 H   -2.1637346746   -4.3481738880    0.3292300195
 H   -5.1926746918   -4.3086813597    0.3843270496
 H   -4.0857311193   -5.0960979292    1.4938016987
 H   -4.9245752567   -2.8977239764    2.7004144030
 H   -3.4877583298   -0.9527584957    1.7571228393