20

 C   -0.0109085802    1.4240779793   -0.0740397661
 C    0.1500903315   -0.0850131065    0.1657240291
 C    0.7510522560   -0.3653131717    1.4704753134
 C    1.2542318480   -0.5929332847    2.5376837725
 N   -1.1772556349   -0.7117839094    0.0980955236
 C   -1.7667447250   -1.1641822843   -1.1451786624
 C   -0.7538250574   -1.8141743528   -2.1089178409
 C   -0.3419215992   -2.8038018168   -0.9736543173
 C   -1.3765972359   -2.1334638809   -0.0480695568
 H    0.9582407027    1.9268220794   -0.0246717745
 H   -0.4457460374    1.5968603370   -1.0631158400
 H   -0.6748357404    1.8544983998    0.6789605988
 H    0.8353525278   -0.4763704163   -0.6022350721
 H    1.6974035860   -0.7946247867    3.4813454199
 H   -2.7401295683   -0.7720725205   -1.4204751856
 H   -1.2533106773   -2.3251285675   -2.9347840850
 H    0.0204243262   -1.1636977572   -2.5277874329
 H   -0.6060127278   -3.8359611352   -1.2119436866
 H    0.6962547284   -2.7816974556   -0.6299654306
 H   -1.9902266627   -2.6401294196    0.6888546035