21

 C   -0.1081501853    1.4827614813    0.1469769068
 C   -0.0435901091    0.0320816230    0.0471804671
 C    0.0234397524   -1.1663918303   -0.0385148518
 C    0.0620139987   -2.6250597072   -0.1319676155
 C   -1.2927434974   -3.1945862358   -0.5811551757
 O    1.1235201065   -2.9759786277   -1.0266422097
 C    1.5894975603   -4.2824220121   -0.8860596807
 C    1.0841035077   -5.3770560987   -1.7960649961
 C    2.4681675852   -4.7864636235   -1.9830349409
 H    0.6275281585    1.9539845984   -0.5140419605
 H   -1.0970971927    1.8599088975   -0.1358906098
 H    0.0987044814    1.8226588591    1.1677550080
 H    0.2987528144   -3.0336505042    0.8649910590
 H   -1.2612131345   -4.2863452996   -0.6031162701
 H   -2.0783807584   -2.8809739296    0.1119273723
 H   -1.5394301003   -2.8240694240   -1.5794426004
 H    1.8432035537   -4.5548658315    0.1397296949
 H    0.9908025534   -6.3837231861   -1.4023214830
 H    0.3324209765   -5.0994097980   -2.5256202520
 H    2.6091394448   -4.1204699178   -2.8266014958
 H    3.3360968942   -5.3808759832   -1.7212880462