17

 C   -0.0776365922    1.5966636345   -0.1166854965
 C    0.0171257300    0.0625162242   -0.0727258412
 C    0.8530222920   -0.5731217403   -1.1550281008
 C    1.8391385351   -1.3377958534   -0.6852027546
 C    1.8635018436   -1.3753442854    0.8166357730
 C    3.1679543118   -0.9441339410    1.4752282035
 O    4.1905103616   -0.7407242646    0.8768190821
 C    0.7019729709   -0.4321289220    1.2130066152
 O    0.4147299423   -0.1212088642    2.3386316085
 H    0.9181327547    2.0490802246   -0.1500582050
 H   -0.6298442921    1.9251596904   -1.0018176358
 H   -0.5941871168    1.9631124784    0.7741473210
 H   -1.0061147416   -0.3424134627   -0.0725917392
 H    0.6524005636   -0.4019675887   -2.2068643846
 H    2.5655968265   -1.8693185445   -1.2859625650
 H    1.6337066430   -2.3664129358    1.2408587166
 H    3.0929548974   -0.8275712895    2.5769629029