14

 C   -0.1847399687   -1.1964801762   -0.0032998616
 C   -0.1020894203    0.0023766495    0.0188764975
 C   -0.0110653618    1.4305092294    0.0358108139
 C    0.4866953674    2.1575819587    1.2596155525
 C    1.3671924627    2.1299988449    0.0245735361
 C    2.5665938102    1.3629010944    0.0073936159
 C    3.5921436286    0.7223517128   -0.0233034322
 C    4.7468515768   -0.0025660776   -0.0489321819
 N    5.7321119636   -0.6188700912   -0.0698280595
 H   -0.2528463166   -2.2562458058   -0.0211385768
 H   -0.7614426516    1.9484325885   -0.5540468010
 H    0.0236882141    3.1036203523    1.5143039771
 H    0.8005619197    1.5505128258    2.0993090036
 H    1.4051203361    3.0438535044   -0.5607320137