27

 C   -0.8776517947    1.1211702105   -0.0430116244
 C    0.0901399473   -0.0618847855   -0.0714382101
 C    1.1980220610    0.0654201431   -1.1443531422
 C    2.3832950908   -0.7941981654   -0.6331259351
 C    1.9211557296   -1.3899014221    0.7182832187
 C    3.0719348775   -1.7434795424    1.6604808729
 C    0.8526325081   -0.3866244004    1.2487224165
 C    1.5019447625    0.8705085872    1.8572817280
 C   -0.0668318233   -1.0343726328    2.2912770226
 H   -0.3549219571    2.0685514150    0.1249773421
 H   -1.4070608928    1.2072973182   -0.9982050279
 H   -1.6350464116    1.0112790945    0.7406869612
 H   -0.4965261656   -0.9621081023   -0.3050039797
 H    0.8380935488   -0.2555781721   -2.1264386293
 H    1.4970385820    1.1137662739   -1.2547088732
 H    2.6667595229   -1.5817495466   -1.3377469617
 H    3.2767870536   -0.1769938691   -0.4870079381
 H    1.3747613547   -2.3193274441    0.5020551470
 H    3.7021039778   -0.8740223496    1.8747932126
 H    2.7113182065   -2.1411451105    2.6153231220
 H    3.7151798013   -2.5079171050    1.2110844955
 H    2.1717312230    1.3760307834    1.1542982439
 H    0.7413656459    1.5937903297    2.1665637415
 H    2.0869175525    0.6179195283    2.7468196786
 H    0.4885013589   -1.3237410059    3.1903200216
 H   -0.8583933938   -0.3468765568    2.6093757514
 H   -0.5474038057   -1.9346217431    1.8916845658