21

 C   -0.3561340469    1.5093944754   -0.0608800856
 C   -0.0165016966    0.0096597535   -0.0019720540
 C    0.9278692200   -0.2449792233    1.1911057839
 C   -1.3229502421   -0.7874299404    0.1824501695
 C    0.6872722266   -0.4803058811   -1.2914587751
 C    0.4606713521    0.1416276531   -2.6333387091
 N    1.7526955969    0.2983991940   -1.9595709938
 C    0.9745778894   -1.9066590073   -1.2888258422
 N    1.1721148982   -3.0457774851   -1.2774625164
 H    0.5253140482    2.1416566899   -0.2136128940
 H   -1.0886906396    1.7400801339   -0.8394376692
 H   -0.7949204921    1.8115264021    0.8945717191
 H    0.4504984506    0.0644938371    2.1259858036
 H    1.1839833106   -1.3046991731    1.2770203590
 H    1.8610758946    0.3184236676    1.0860427258
 H   -2.0106273554   -0.6168424854   -0.6524196081
 H   -1.1302641452   -1.8614985937    0.2488215575
 H   -1.8265793991   -0.4777452972    1.1035661188
 H    0.4806718776   -0.4857501567   -3.5189474761
 H   -0.2134861215    0.9899423505   -2.6878454750
 H    1.8160461036    1.2169215560   -1.5280800088