19

 O    0.0634347927    1.4179420221    0.2041662997
 C    0.0615116799    0.0121097828    0.0169311256
 C   -1.4007099767   -0.4586124758    0.0183696422
 C   -2.1418692055    0.1329836519   -1.1695206048
 O   -2.8586321625   -0.5041898182   -1.9019445363
 C   -1.5293332097   -1.9750324879    0.0645378947
 C   -1.1603408566   -2.6977563156    1.3809694761
 O   -2.4649035256   -3.2965288175    1.4734217527
 C   -2.9315637345   -2.5713572658    0.3136712281
 H    0.9647715302    1.7393299268    0.1087938733
 H    0.5427055691   -0.2699431889   -0.9333772988
 H    0.6057695718   -0.5010205749    0.8246862090
 H   -1.8599734367   -0.0155497488    0.9168489173
 H   -1.9735291742    1.2181823871   -1.3258898368
 H   -1.0462635067   -2.4146641853   -0.8119273511
 H   -0.3638738731   -3.4494441013    1.3221698264
 H   -0.9523579249   -2.0305978016    2.2308470523
 H   -3.7061410343   -1.8385965093    0.5736658099
 H   -3.3204705426   -3.2359714898   -0.4634991493