18

 C   -0.0455008451    1.4574384181   -0.0727137919
 N   -0.1113130704    0.0072255691   -0.0729001432
 C    0.4948326739   -0.6491415194   -0.9650744738
 O    1.2500847079   -0.0999239576   -1.9895299870
 C    1.7794950396   -1.1460029010   -2.7987274116
 C    1.2764766026   -2.4220342558   -2.1744805000
 C    1.6057697024   -3.7679027235   -2.7221013932
 O    0.9925261562   -4.7597328169   -1.9250806330
 C    0.5333524998   -2.1059527544   -1.1119806434
 H    0.5534288546    1.8878617272   -0.8830948784
 H   -1.0628859428    1.8621439151   -0.1358541236
 H    0.3657397565    1.7971292928    0.8855701960
 H    1.4338483303   -1.0143868632   -3.8342389790
 H    2.8770723300   -1.0799562291   -2.8052957256
 H    1.2675982807   -3.8221958024   -3.7726696777
 H    2.7039554266   -3.8874159366   -2.7486719423
 H    1.2138758074   -5.6209471242   -2.2904031629
 H    0.0237672897   -2.7778124282   -0.4399965894