19

 C   -0.0253285788    1.5106063517   -0.1625904855
 C    1.5360920814    1.5129573688    0.1231349006
 C    1.3375042572    0.1529736814    0.8526647356
 O    1.0565311678    0.3523859518    2.2314509130
 C    0.0206166151   -0.6099073794    2.4874417016
 C   -0.1680326950   -1.2000329417    1.1008345181
 C    1.3084442108   -1.3647604724    0.4926519505
 C    0.7471284650   -0.9975930589   -0.8935003156
 C    0.0276322081   -0.0230530035    0.0728858957
 H   -0.5723850625    2.0462120308    0.6158430124
 H   -0.3640734765    1.8544968777   -1.1428285792
 H    2.1306046282    1.4508818053   -0.7889872894
 H    1.9279346173    2.3121261474    0.7534426495
 H    0.3559341369   -1.3506252855    3.2246119182
 H   -0.8713633494   -0.1045478972    2.8776942516
 H   -0.9086941207   -1.9892084560    0.9540261883
 H    2.0036668396   -2.1711481458    0.7484079395
 H    1.4524574291   -0.5674927053   -1.6087799982
 H    0.1162725164   -1.7454643490   -1.3808402268