17

 O    0.0234729686    0.0012594097    0.0479090144
 C   -0.0037953310    1.2039059479   -0.0251503666
 C   -1.2696235191    2.0689953151   -0.1382675155
 C   -0.8212035409    3.3643027843   -0.8414962580
 C    0.6972374548    3.4681778917   -0.6057785441
 C    1.1491922849    3.3194248618    0.8213316301
 C    1.1880469243    2.1053502075   -0.0878924140
 C    1.4786807814    4.2442507599   -1.5208457728
 C    2.1097927455    4.9055826934   -2.3028174335
 H   -2.0450022350    1.5214851219   -0.6765819557
 H   -1.6567121690    2.2565653166    0.8702217747
 H   -1.0000231818    3.2928029710   -1.9179941594
 H   -1.3425902656    4.2558057133   -0.4813577513
 H    2.1121386515    3.7440080334    1.0777596810
 H    0.4092880099    3.3640204339    1.6139420746
 H    2.1459240372    1.6869285929   -0.3672732720
 H    2.6736099243    5.4860800255   -2.9902207519