16

 C    0.0524857388    1.4405221599    0.0016587979
 N    0.1406474858   -0.0073711253   -0.0570410563
 C    0.6242885575   -0.6456489828    0.9208035778
 O    1.1010977530   -0.1010288283    2.0937692783
 C    1.5668057661   -1.1431787216    2.9589095684
 C    1.3253818414   -2.4138252544    2.1879369900
 C    1.6576862216   -3.7436677123    2.7008714873
 O    2.1549761294   -3.9284823247    3.7899350504
 C    0.7764280090   -2.0998659130    1.0052219886
 H    0.6060489920    1.8632813995   -0.8449484473
 H   -0.9945806171    1.7369609882   -0.1314794868
 H    0.4309653332    1.8827341462    0.9292338519
 H    2.6271483833   -0.9834016718    3.1870515472
 H    1.0110167855   -1.1109401623    3.9033458798
 H    1.4210977815   -4.5859940607    2.0171003229
 H    0.4752655492   -2.7638276768    0.2074515498