16

 C    0.1379920946    1.4661361978    0.0775819633
 C   -0.0481510184   -0.0086870722   -0.0497678981
 C   -0.0697233345   -0.8129796829   -1.1812819760
 C   -0.0690460077   -2.1451827241   -0.7023748928
 C   -0.0636123071   -2.1151352424    0.6506848121
 N   -0.1001880228   -0.8254988847    1.0843947553
 O   -0.3739011296   -3.3261569972    1.2131497786
 C   -0.1541870305   -4.1909847327    0.0697703877
 O   -0.3594550076   -3.4363517542   -1.1260794337
 H    1.1460444067    1.7436567507    0.4155123837
 H   -0.0208695535    1.9411924583   -0.8936009650
 H   -0.5760501813    1.9100027877    0.7826005676
 H   -0.0561875229   -0.4570721708   -2.1991101283
 H    0.0395354190   -0.5036212844    2.0268624847
 H    0.8904864288   -4.5400808704    0.1056443641
 H   -0.8622290432   -5.0195522587    0.1109555770