17

 C    0.1103497497    1.5597367080   -0.0446599351
 C   -0.0148090314    0.0465371659    0.0911763140
 O    0.5462748862   -0.5922164023   -1.0779448954
 C    1.4517353844   -1.6636108620   -0.7559623341
 C    1.6255837315   -1.5612293295    0.7229552528
 C    2.2736229040   -2.0415816410    1.8354870015
 N    1.7706252072   -1.3224990435    2.8823138977
 N    0.8395565552   -0.4059725946    2.5232301532
 C    0.7668865829   -0.5677583397    1.2116114849
 H    1.1622674480    1.8515619506   -0.1068905553
 H   -0.4027357787    1.9015037380   -0.9477130970
 H   -0.3397875566    2.0518459130    0.8230328367
 H   -1.0801794268   -0.2245216301    0.1594101721
 H    1.0160318693   -2.6241129577   -1.0703092667
 H    2.3774231218   -1.5175236321   -1.3275740609
 H    3.0229335893   -2.8019129251    1.9885401430
 H    2.0252761143   -1.3993382179    3.8525879585