19

 O   -0.0454020764    1.3690499575    0.0574099432
 C   -0.0148512617   -0.0401771550    0.0275056536
 C   -1.4500828137   -0.5892115844   -0.1289255336
 C   -1.2635444140   -0.4479584439   -1.6668877799
 C    0.2634413198   -0.6263935919   -1.4059564528
 C    0.6113034860   -2.0886789137   -1.2263540424
 O    1.6678487197   -2.5667898387   -1.5658315099
 C   -0.4937537044   -2.9157514815   -0.5592188303
 C   -1.4844784813   -2.0687763322    0.2816847655
 H    0.8549748687    1.6918196730   -0.0546337459
 H    0.5911692066   -0.4412088127    0.8527082757
 H   -2.2370421295   -0.0085116059    0.3566396222
 H   -1.7623675337   -1.1681873813   -2.3204221853
 H   -1.4786310985    0.5652358532   -2.0051147118
 H    0.9991679875   -0.1226537754   -2.0350577614
 H   -1.0268320383   -3.4100436448   -1.3814707000
 H   -0.0256778507   -3.7170769631    0.0168797566
 H   -1.2376249008   -2.1488789564    1.3465131820
 H   -2.4993932053   -2.4616360527    0.1659767248