20

 C    0.1295301764    1.2759888527   -0.4180579293
 C    0.0425253546   -0.1924596852   -0.0141893204
 O    0.7005719829   -0.4603825598    1.2239154639
 C   -1.3979960440   -0.6737996377    0.0839833285
 O   -2.1823777194   -0.4560301617   -1.1255590114
 C   -2.6592059709   -1.8163774300   -1.1251105664
 C   -1.8390291287   -2.7669679787   -2.0188500474
 N   -0.8271025053   -2.9070873533   -0.9310202716
 C   -1.6985622282   -2.1874009488    0.0298618125
 H    1.1747817818    1.5865668674   -0.5003265420
 H   -0.3684179484    1.4377454369   -1.3777921318
 H   -0.3624985687    1.9170500390    0.3257311420
 H    0.5540673936   -0.8195255461   -0.7497440280
 H    0.3736980530    0.1752820848    1.8705935624
 H   -1.8935056971   -0.1859547966    0.9402533906
 H   -3.7492277408   -1.8819294922   -1.1292618887
 H   -2.3821606140   -3.6923998424   -2.2511117827
 H   -1.4481364994   -2.3338793924   -2.9451359343
 H   -0.6269505390   -3.8632383046   -0.6679982828
 H   -1.9613780682   -2.7066182712    0.9514393767