15

 C   -0.0054015182    1.5516312736    0.0165983366
 C   -0.0342628069    0.0218924373   -0.0176728950
 C   -1.4507380153   -0.5565800718    0.0185673691
 N    0.6746674249   -0.4655469385   -1.2141671263
 N    0.3048360292   -0.2081092938   -2.4563607598
 N    1.1801382462   -0.8125505269   -3.2049815709
 N    2.0750681934   -1.4330282210   -2.4158281267
 N    1.7624268316   -1.2182097589   -1.1725026472
 H    1.0213249238    1.9257818107   -0.0061397195
 H   -0.5485773357    1.9679576627   -0.8355827166
 H   -0.4805513848    1.9016551478    0.9368189330
 H    0.5552957296   -0.3815819550    0.8091051159
 H   -2.0347254963   -0.2026947571   -0.8348539846
 H   -1.4294673361   -1.6492099976   -0.0007528666
 H   -1.9487053555   -0.2366896015    0.9376855086