15

 N   -0.0481855324   -1.1167419583   -0.1151437656
 C   -0.0123314832    0.0321888435   -0.0217570264
 C    0.0039173425    1.5055096707    0.0475318223
 O   -0.6750576784    1.8910609534    1.2099314866
 C   -0.7179015769    3.3152127661    1.3226897714
 C    0.6985970995    3.8920178506    1.2941653519
 C    1.4238828207    3.3509369801    0.0608044492
 O    1.3397784912    1.9246681229    0.0228328375
 H   -0.5255221741    1.9082120831   -0.8396716301
 H   -1.3194123130    3.7311308878    0.4973856227
 H   -1.2332592491    3.5268360734    2.2614954494
 H    0.6663751850    4.9865286658    1.2704570812
 H    1.2353491583    3.5829042286    2.1964407459
 H    0.9831649890    3.7695419016   -0.8592323690
 H    2.4892655209    3.5889235506    0.0682812828