23

 O   -0.0983986757    1.2888569362   -0.7613666352
 C   -0.0154262717    0.1252894937    0.0543826184
 C   -1.3556380730   -0.5598231081    0.0179151575
 C   -1.7060790068   -1.5096959389   -1.1018513787
 C   -1.5306098259   -2.0358831685    0.3014200838
 C   -0.3886200405   -2.9660909282    0.6732563950
 C   -0.7517860387   -4.4294950772    0.5073897917
 C   -0.5731829437   -5.1258945978   -0.8176911432
 C    0.3226887605   -5.4739840879    0.3472011358
 H    0.7287612333    1.7719040527   -0.6736146596
 H    0.7726649208   -0.5520486295   -0.3085267247
 H    0.2396341170    0.3934916545    1.0928420675
 H   -2.1591674480    0.0834166466    0.3669089709
 H   -2.6998068309   -1.4673439614   -1.5335984747
 H   -0.9218158587   -1.7321356673   -1.8193665205
 H   -2.4548189869   -2.2776109126    0.8226381662
 H    0.4952407149   -2.7487120707    0.0617761964
 H   -0.0913986837   -2.7857108655    1.7162413081
 H   -1.6218312748   -4.7359382708    1.0841330071
 H   -1.3182822632   -5.8492873852   -1.1300221370
 H   -0.1414163461   -4.5571526542   -1.6346644122
 H    1.3540138959   -5.1372837789    0.3104379737
 H    0.1895314659   -6.4347164411    0.8324291235