19

 C    0.0041849210    1.5126990483    0.0327521358
 C    0.0087277886    0.0126411156    0.0082901915
 C   -0.9112777327   -0.8494605266    0.8320376732
 C    0.5797829802   -0.9762976325    1.0097322881
 C    1.3042851889   -1.7517027181   -0.1362030878
 C    0.3678856607   -2.2255320354   -1.2299819683
 C    0.6927814660   -0.7668375758   -1.1527875026
 C    2.6491110007   -2.1905597417   -0.0232783342
 C    3.7906635633   -2.5543986818    0.1036202862
 H    0.9978411609    1.9176391862   -0.1926053540
 H   -0.6957705315    1.9224045856   -0.7063347741
 H   -0.2942356195    1.8881669569    1.0166416319
 H   -1.3971174392   -0.3147043690    1.6439403693
 H   -1.5291662349   -1.6383376237    0.4176405417
 H    1.0759108559   -0.7750992936    1.9503985994
 H    0.8778834274   -2.7533943653   -2.0294483428
 H   -0.6147824698   -2.6238906759   -1.0051742973
 H    1.2258594966   -0.2572604760   -1.9455040607
 H    4.7962907175   -2.8776413172    0.2069266748