19

 O    0.1622986671   -0.1211001630    0.5254406558
 C    0.0268038604    1.0533616103    0.2473725909
 C    1.1861845610    1.9138980202   -0.1240731291
 C    2.5148011113    1.6289933180    0.5666331582
 C    2.3423323149    1.2516589190   -0.8622328121
 C   -1.3307118991    1.7303601860    0.2374405118
 C   -1.9444098734    1.9765025396   -1.1724334572
 O   -3.0458590062    1.1018767481   -0.8876882684
 C   -2.5594283802    0.8309558261    0.4478862184
 H    0.9633644491    2.9471564242   -0.3668711176
 H    3.1327005217    2.4839045281    0.8154072067
 H    2.4958572858    0.8314526949    1.3003080330
 H    2.2075606176    0.2002576281   -1.0881890462
 H    2.8393848320    1.8384122440   -1.6259867260
 H   -1.2910776339    2.6308408934    0.8564773140
 H   -2.2683949421    3.0062376271   -1.3682108152
 H   -1.3408522196    1.6251385900   -2.0191584836
 H   -2.3169387072   -0.2255351309    0.5965587085
 H   -3.2674335993    1.1649931367    1.2149312680