22

 C    0.6881015193    1.2841153678    0.1082384753
 N   -0.0332094655    0.0189639427   -0.0115893379
 C   -0.6738108548   -0.4220257604    1.1137894289
 O   -0.7112926812    0.1766248684    2.1726821131
 C    0.0399380744   -0.7444331981   -1.2814282154
 C    1.4635654131   -1.2968592286   -1.4944258048
 C   -0.9564959258   -1.9148327227   -1.3176333544
 C   -0.3293503522    0.2275098349   -2.4280038922
 O   -0.2764205521   -0.4833091524   -3.6548585255
 H    1.6839261419    1.2132626242   -0.3358594616
 H    0.1495521956    2.1102888458   -0.3697659684
 H    0.7789121972    1.5073937935    1.1708380329
 H   -1.1681499921   -1.3938059177    0.9825682975
 H    1.7186076200   -2.0022557277   -0.6985232279
 H    1.5211471036   -1.8099920450   -2.4565750261
 H    2.2143896466   -0.5019283073   -1.4989183525
 H   -1.9768087711   -1.5870816450   -1.0975822728
 H   -0.9469661593   -2.3292813214   -2.3266563422
 H   -0.6846096135   -2.7120131564   -0.6215060540
 H   -1.3365114805    0.6289671224   -2.2354043385
 H    0.3734090845    1.0708645667   -2.4429687517
 H   -0.4414799281    0.1365874861   -4.3704225018