19

 C   -0.0369974339    1.5146529804   -0.1002860307
 C    1.4517403024    1.9686000768    0.0586681339
 C    2.2281474562    0.6640536571    0.0421493496
 O    3.3936900457    0.4514031439   -0.7870333203
 C    3.4818118919    0.1607311713    0.6178948952
 C    3.3110089434   -1.3211850031    0.9384822674
 C    2.0028261034   -1.7515929121    0.1930392704
 C    1.2576415318   -0.4574486186    0.0119448176
 C    0.0077187265   -0.0039669859   -0.0395949897
 H   -0.6682882883    1.9244325933    0.6970934469
 H   -0.4750078214    1.8684796680   -1.0424654378
 H    1.7792704352    2.6166501603   -0.7575052018
 H    1.5983802706    2.5195438077    0.9919454152
 H    4.1774852299    0.7769750292    1.1826866652
 H    4.1777951408   -1.9168234562    0.6372835869
 H    3.1933711759   -1.4354732055    2.0226418283
 H    2.2595226463   -2.1762061096   -0.7829924424
 H    1.4389714608   -2.5111929092    0.7398911818
 H   -0.8962843873   -0.6031609979   -0.0166257757