20

 C   -0.0049590843    1.4793230363   -0.0160492789
 C    0.0284141234   -0.0245291984   -0.0609891951
 C    0.5838154068   -0.9415760721   -1.1736858924
 C    0.0634365645   -1.9185384015   -0.1040936557
 C    0.5256448712   -0.9974076026    1.0711652982
 C   -0.8554359419   -1.0429790584    1.7492629347
 C   -1.1761436396   -1.0119660541    0.2380632753
 C   -2.5223924720   -1.0228931162   -0.4343951302
 H    1.0054190146    1.8985473237   -0.0827487026
 H   -0.5882709038    1.8871578458   -0.8496508070
 H   -0.4550636461    1.8412285967    0.9152860740
 H    0.0616958253   -0.9285868508   -2.1370043389
 H    1.6679275433   -0.9169430175   -1.3309916645
 H    0.0736853821   -3.0101281016   -0.1005163985
 H    1.5189034701   -0.9917390586    1.5240352621
 H   -1.1103251886   -1.9649381553    2.2837473358
 H   -1.1528181443   -0.1691592072    2.3398245258
 H   -3.1197507218   -0.1529815914   -0.1379313539
 H   -2.4239595087   -1.0043682439   -1.5256892470
 H   -3.0900821400   -1.9211542130   -0.1662215112