19

 O   -0.0463035479    1.3101880345   -0.5740544849
 C   -0.0099282131    0.0649779428    0.1169496626
 C   -1.3971754965   -0.5187077084    0.0915601234
 C   -1.8724235860   -1.2752289038   -1.1278740154
 C   -1.6162600258   -2.0108975415    0.1595336453
 N   -0.4705661705   -2.8787335849    0.2197908266
 C   -0.2836411170   -3.6260981479    1.4601930199
 C   -0.7448818493   -4.3124600585    0.2214582708
 H    0.8352162198    1.6928709780   -0.5355479736
 H    0.6911814220   -0.6391591482   -0.3497732994
 H    0.3132440191    0.2075935293    1.1613994237
 H   -2.1389268339    0.0908377964    0.6000809145
 H   -2.8956675344   -1.1468415328   -1.4620175197
 H   -1.1482452489   -1.4249618808   -1.9210811939
 H   -2.4938926534   -2.3448381905    0.7215505283
 H    0.7424469043   -3.7298514304    1.8014961429
 H   -1.0160992414   -3.4855468433    2.2534439392
 H   -1.7858048191   -4.6296045207    0.1870228198
 H   -0.0618954179   -4.9259452691   -0.3591909402