16

 O   -0.3956078094    0.3694339315    0.6468168248
 C    0.1060447787    0.9430323278   -0.2830351072
 C    1.2598205477    1.9259855588   -0.1352321139
 C    1.2383668299    3.0454247587   -1.1783354268
 C    2.5385758319    3.8818459382   -1.3530538060
 C    2.5235377416    3.3417746552   -2.7964467415
 O    1.3575041180    2.5238676255   -2.5216295810
 C    0.0225254634    3.8689496909   -1.0443656819
 N   -0.9222881318    4.5252152017   -0.9342886664
 H   -0.2274591483    0.7669013348   -1.3273206183
 H    1.2600887468    2.3279604468    0.8821316691
 H    2.1907337020    1.3626255777   -0.2812218088
 H    2.4245888378    4.9586876398   -1.2376571096
 H    3.3624417926    3.5298087436   -0.7313709213
 H    2.3161189320    4.0870734667   -3.5710475789
 H    3.3791941470    2.7309952823   -3.0993346123