12

 O    0.0605472868    0.0059034860   -0.0144501177
 C    0.0166253370    1.1956358518    0.0498432244
 C   -1.1461176858    2.2318761110    0.1164251374
 C   -0.0678255855    3.3124072848   -0.1055678674
 O    0.8263995849    3.1910540722    1.0060634108
 C    1.0494385090    2.3108237299   -0.1083541800
 C   -0.1831400976    4.5442384334   -0.8037206632
 C   -0.3289872564    5.5802461799   -1.3955523061
 H   -1.8328255086    2.0921299293   -0.7227602388
 H   -1.6999526517    2.3178183950    1.0525080346
 H    2.0235198106    2.3299985200   -0.5828843532
 H   -0.4458601427    6.4984654366   -1.9169630408