17

 C   -0.0235393605    1.4147058742    0.0238120431
 N   -0.0136082288   -0.0320488823   -0.1375522891
 C   -1.0953549940   -0.6579803944   -0.1011647561
 N   -2.4844701397   -0.2277464957    0.1343030561
 C   -3.2677418060   -0.7392378696   -1.0254376174
 C   -2.9017005638   -1.6960570473    0.0335765891
 C   -1.4551320244   -2.1223671102   -0.1379088800
 C   -0.8284445060   -3.2917229416   -0.7586714418
 O   -0.8252131113   -3.0972666654    0.6624092226
 H    0.6612394874    1.6813019975    0.8357112974
 H    0.3726187241    1.8736653633   -0.8888642196
 H   -1.0147839541    1.8313198969    0.2356059692
 H   -4.2827698524   -0.3546818544   -1.0454151004
 H   -2.7820470582   -0.7992094213   -1.9964572444
 H   -3.5995261444   -2.1263150041    0.7410228991
 H   -1.4539316329   -4.1074545917   -1.1181846735
 H    0.1393907150   -3.1788789739   -1.2432506243