16

 C   -0.6614501122    1.5134044423    0.1754785539
 C   -0.0001739094    0.1629517178   -0.0140776896
 O   -0.9299718445   -0.9166757328    0.0164185331
 C    0.9417873686   -0.0812586682   -1.2275446795
 C    1.9280334386   -0.8936619588   -0.3044755626
 O    3.3113444670   -0.7837716187   -0.4290388293
 C    1.2501093176   -0.1593511425    0.8535963503
 O    1.6924607292    0.2942927300    1.8736509163
 H    0.0693912241    2.3246927079    0.1136870173
 H   -1.4285482155    1.6690807041   -0.5888184006
 H   -1.1360125773    1.5734600188    1.1616946021
 H   -1.3862956975   -0.8899114816    0.8653556679
 H    0.4941862145   -0.6331693170   -2.0538447089
 H    1.3996642089    0.8450994582   -1.5814130654
 H    1.6434795748   -1.9508256911   -0.3312815872
 H    3.6066744831   -0.1027122982    0.1876781323