18

 O   -0.0530899824    0.5160001685   -0.8405265311
 C    0.0970495289    1.2965090317    0.0757128561
 N    1.2793329383    1.5685685244    0.6901614866
 C    2.5420880375    0.9706072206    0.2818034841
 C    3.5283137072    2.0114850098   -0.1451168590
 C    3.5778288877    2.8453425773   -1.4382277182
 C    5.1334129684    2.9498215026   -1.2514839718
 C    4.9871400357    2.1245534927    0.0339119549
 O    4.0881358462    2.8395991468    0.8934014297
 H   -0.7364254617    1.8766333604    0.5184951658
 H    1.2995211490    2.2607581825    1.4227168776
 H    2.9694977881    0.3868423772    1.1056823686
 H    2.3077786674    0.2913317852   -0.5413115480
 H    3.2979068763    2.2765388842   -2.3276602800
 H    3.0117647596    3.7784548152   -1.4078470043
 H    5.6851664313    2.4290409749   -2.0373092877
 H    5.5502479186    3.9494359114   -1.1110665416
 H    5.6986897540    1.4601603048    0.5119748383