16

 O    0.6219132297    0.7046447876   -1.0521811249
 C    0.0715446459    1.0920813886   -0.0415740941
 C    0.6252884652    0.8472946761    1.2769072680
 C    1.0722026140    0.6700051904    2.3804354057
 C   -1.2582908186    1.8215868972   -0.0521613813
 C   -1.9358268772    2.1080517788   -1.4108601745
 C   -3.0709698240    1.2067448729   -0.9286069016
 C   -2.5737889929   -0.1295743978   -0.5648573770
 N   -2.4225852089    0.9601293605    0.4304542950
 H    1.4744835438    0.5024871251    3.3502063363
 H   -1.1997168226    2.6930969162    0.6046532400
 H   -2.2181230714    3.1555547101   -1.5226113894
 H   -1.3971269138    1.7764357158   -2.3005909666
 H   -4.1284175198    1.4369949669   -1.0029260230
 H   -3.3002704044   -0.8676192573   -0.2406796901
 H   -1.6968845648   -0.5383547911   -1.0604139824