16

 C   -0.0172415524    1.4870960586    0.0861185658
 C    0.0075362627   -0.0144937479   -0.0143324693
 C   -0.1359870721   -0.6849888971   -1.2225627829
 C   -0.1042038562   -2.0828593492   -1.2494480052
 C    0.0705256646   -2.7738398117   -0.0656751642
 O    0.1096274507   -4.1316848227   -0.0300005119
 C    0.2063293997   -2.0042569821    1.1031540180
 O    0.3779205521   -2.6968354789    2.2627496263
 N    0.1780314763   -0.6918708948    1.1401077533
 H    0.9180100066    1.8626024701    0.5148891575
 H   -0.1588117775    1.9501191815   -0.8933420562
 H   -0.8261676476    1.8183438529    0.7460255615
 H   -0.2721987427   -0.1271525316   -2.1418130896
 H   -0.2132458566   -2.6358451308   -2.1757292276
 H    0.2384700748   -4.3954572139    0.8895803195
 H    0.4546159776   -2.0378817823    2.9655276647