18

 C   -0.0757020457    1.4571860150   -0.1850065228
 C    0.0113527360   -0.0685130905    0.0564654219
 C    0.7383092514   -0.3597431990    1.3900893472
 C   -1.3414043111   -0.6303355203    0.1022125840
 C   -2.4551949304   -1.0766892643    0.1761222019
 C    0.8308949725   -0.6844538273   -1.0818204707
 C    0.5397625534   -1.9760917499   -1.7110756258
 O    0.2361939923   -0.7407731794   -2.3715591466
 H    0.9286356282    1.8938444529   -0.2028959211
 H   -0.5620878400    1.6626154962   -1.1412046737
 H   -0.6487739760    1.9409678754    0.6102478252
 H    0.2004539327    0.0963471062    2.2250850329
 H    0.8063811777   -1.4355050975    1.5727047973
 H    1.7520136114    0.0541133392    1.3673444200
 H   -3.4410671656   -1.4679685137    0.2286840145
 H    1.8671174380   -0.3371931286   -1.0845232975
 H    1.3505822085   -2.5533690395   -2.1532405456
 H   -0.3264951531   -2.5449414949   -1.3821040912