17

 O    0.0845690394    1.4221430125   -0.2410420087
 C    0.0408854566    0.0340106554    0.0403920301
 C   -1.3609142281   -0.4811802350    0.1304192749
 C   -1.9815273157   -1.8074448414   -0.1133060068
 C   -2.8643110992   -1.6765793354    1.1272843240
 C   -2.5236110125   -0.1439635254    1.1279763749
 N   -3.5784456139    0.4968723272    0.3270525795
 C   -3.3557673665    0.1009968433   -0.8608976685
 N   -2.1650238075   -0.6627827650   -1.0977810648
 H   -0.3599349337    1.5538459265   -1.0858104224
 H    0.5873590461   -0.5570213472   -0.7105325701
 H    0.5510761125   -0.0961623206    1.0010509813
 H   -1.5714825957   -2.7138798239   -0.5419042873
 H   -3.9232127100   -1.9410164125    1.0696900518
 H   -2.3884005578   -2.1905587129    1.9658233800
 H   -2.3312630997    0.3547100018    2.0744235400
 H   -4.0065836043    0.3099229727   -1.7038599880