22

 C    0.0472279848    1.3778055163    0.0226664619
 O    0.0212958519   -0.0283700778   -0.0065786207
 C   -1.2867872272   -0.5541275930    0.0219580329
 C   -1.1978231408   -2.0753504429   -0.0138786936
 C   -2.5509283803   -2.7476629143    0.0140711743
 C   -3.7357825932   -2.6403214717   -0.9829542713
 N   -4.2883414838   -3.6365395210    0.0495768029
 C   -2.8821249170   -4.2583389360   -0.0100723699
 C   -3.6690054804   -2.6880928586    1.0891648563
 H    1.0949358000    1.6872330309   -0.0018361875
 H   -0.4728895013    1.8155612657   -0.8446020781
 H   -0.4199419950    1.7775173156    0.9371568747
 H   -1.8151344575   -0.2205257828    0.9324767828
 H   -1.8693496843   -0.1819094438   -0.8391680003
 H   -0.6540686030   -2.3753361877   -0.9180206901
 H   -0.5989803806   -2.4133314738    0.8406990983
 H   -4.2979829966   -1.7026963645   -1.0243558174
 H   -3.6099936291   -3.0709460948   -1.9809042390
 H   -2.6892874245   -4.8137006130   -0.9328618354
 H   -2.6311320914   -4.8553101976    0.8718448074
 H   -3.4798320005   -3.1640316629    2.0560485269
 H   -4.2259958202   -1.7542219023    1.2098325351