18

 O   -0.0928287384    1.3543064418    0.0040421435
 C   -0.0055691204   -0.0443293083    0.0034271599
 C    0.7020558643   -0.7336496847    1.2020473771
 C    0.4467426521   -2.1676572259    0.7604399532
 C   -0.8758547371   -2.1677099132    0.0108539104
 C   -1.3867697606   -0.7329697369    0.0150707419
 C    0.4339643912   -2.1677528518   -0.7608292340
 C    0.6818078411   -0.7338102496   -1.2068485953
 H    0.8018343985    1.7099646369   -0.0027303212
 H    1.7680120936   -0.4810993609    1.2566427518
 H    0.2302015919   -0.4753557246    2.1553837436
 H    0.7829035255   -3.0264581573    1.3266238124
 H   -1.5353227752   -3.0253928844    0.0164623871
 H   -1.9626187712   -0.4755942653    0.9096668482
 H   -1.9775724208   -0.4756690318   -0.8697443036
 H    0.7605633798   -3.0266413109   -1.3324518685
 H    0.1939632922   -0.4756241933   -2.1521315613
 H    1.7466799634   -0.4812450999   -1.2794239053