20

 C    3.0151042962   -0.7059374907    0.4455081559
 N    1.6212712815   -1.1284744152    0.4313631511
 C    1.2194026150   -2.2046849576    1.3212337287
 C    0.7413153681   -0.8093245144    1.5586590861
 C    1.2202689006   -0.0459672850    2.7595171488
 O    1.2127219533    1.3921416421    2.5499539463
 C    0.3063491548    1.6076566660    3.6483461309
 C    0.2349179108    0.0934831542    3.9489659514
 O   -0.9962743606   -0.5477388807    3.7166463819
 H    3.5449916783   -0.8929062812    1.3926108482
 H    3.5479392224   -1.2468585962   -0.3431680707
 H    3.0690683375    0.3647629371    0.2278203597
 H    0.5470416045   -2.9531070969    0.9104767225
 H    1.9644431489   -2.5973835389    2.0146434971
 H   -0.2690544487   -0.5512146514    1.2547178467
 H    2.2172304756   -0.3798837547    3.0692537536
 H    0.7476962696    2.2366338348    4.4319956084
 H   -0.6481202416    2.0400731534    3.3226444979
 H    0.6613027211   -0.1999865018    4.9162081844
 H   -1.5727281373   -0.3828737129    4.4691393909