11

 O    0.0668226242    1.3831498918    0.2549093567
 C    0.0626195854    0.0433494298    0.0333072141
 C    0.1175308087   -0.7477644220   -1.0816619582
 O    0.1992826329   -0.3059839112   -2.3673895245
 N    0.0801688700   -2.0686669472   -0.7407292454
 C    0.0028364157   -2.0950787468    0.5736781051
 N   -0.0110095484   -0.8316962575    1.0936323971
 H    0.1290938633    1.8170597174   -0.6028464293
 H    0.2183705746   -1.0927776081   -2.9239308651
 H   -0.0454207596   -2.9771264557    1.1914716191
 H   -0.0631113067   -0.5639943505    2.0619938304