18

 C    0.1318351100    1.4785180641   -0.1538378204
 C    0.0682945912   -0.0140930056   -0.1036365675
 C   -0.0223798986   -0.9573316202   -1.1148064316
 C   -0.0204167596   -0.6644417385   -2.5938931026
 C    1.3697704381   -0.2175607572   -3.0049856086
 O    1.6585799279    0.9024806748   -3.3465701934
 C   -0.0757230519   -2.2426316469   -0.4974513835
 C   -0.0284953591   -2.0535203793    0.8611404321
 N    0.0569251305   -0.7013991100    1.0854545889
 H    0.8905542229    1.8728994428    0.5324124873
 H    0.3961757441    1.8145635149   -1.1585895216
 H   -0.8255384968    1.9439255425    0.1150447675
 H   -0.2765216265   -1.5763570431   -3.1459857157
 H   -0.7325007000    0.1187097212   -2.8706569904
 H    2.1469178897   -1.0106956157   -2.9186326361
 H   -0.1480765037   -3.1927118383   -1.0054738066
 H   -0.0491307662   -2.7542600494    1.6798633352
 H    0.1063263380   -0.2689921861    1.9918878070