17

 C   -0.0054805524    1.5275785986   -0.0509698618
 C    0.0563250918    0.0081887882   -0.0021156611
 O    0.6834399768   -0.4473761889   -1.1958048238
 C    0.9514480808   -1.8323611928   -1.1640732664
 C    2.0152424227   -2.1282799919   -0.1144379639
 N    1.6051693394   -1.5297578899    1.1460402804
 C    0.7495193061   -0.4761015407    1.2832301232
 O    0.5026872613    0.0282971066    2.3636997384
 H    1.0014712198    1.9440085588   -0.1448833533
 H   -0.5970508242    1.8500064116   -0.9111029128
 H   -0.4560239227    1.9023422617    0.8687251887
 H   -0.9697009202   -0.3989854971    0.0461342624
 H    0.0340752189   -2.4029463544   -0.9441292572
 H    1.3054535769   -2.1167155837   -2.1584796823
 H    2.1301158295   -3.2111909542    0.0126839402
 H    2.9816091353   -1.7243490537   -0.4475618350
 H    2.0759313700   -1.7975680181    1.9986303943