16

 N    0.0698090586    0.6456584408    1.2603272559
 C    0.0679163000   -0.1715468910    0.1675939019
 O    0.9509252373   -0.2615802259   -0.6495306612
 O   -1.0762186849   -0.9110926822    0.1460578511
 C   -1.1710300122   -1.8400177255   -0.9394211980
 C   -2.5071158168   -2.5790790415   -0.7814117139
 O   -2.7396375108   -3.3655628006   -1.9133277914
 C   -2.5178693440   -3.4335225301    0.4730869609
 O   -2.7348822468   -4.6204410137    0.4185272913
 H    0.7670459610    1.3698290512    1.2726254084
 H   -0.7916697533    0.8087192776    1.7526767267
 H   -1.1572939553   -1.3158263130   -1.8983585194
 H   -0.3276453402   -2.5366883437   -0.9226313970
 H   -3.2965890715   -1.8167365987   -0.6547769813
 H   -2.8633266075   -4.2695223962   -1.5811735091
 H   -2.3153485637   -2.9148272775    1.4286036852