19

 C    0.0676013871    1.4340717016    0.2848060096
 C    0.1200134530   -0.0472149209   -0.0146075250
 C    0.6782409332   -0.6186837120   -1.3016342821
 C    1.2362336323    0.2441464952   -2.4137444984
 C    1.4187983993   -0.8265342227    0.0038454709
 N    2.6618850379   -0.1415570748    0.2092350824
 C    3.0798014277    0.2757392693    1.4377593234
 O    2.4220225925    0.2288439376    2.4536393746
 H    0.9313833747    1.9697491981   -0.1147115510
 H   -0.8333146333    1.8857535835   -0.1443019010
 H    0.0545176627    1.5971819441    1.3660018963
 H   -0.7187988502   -0.5997596614    0.4003014972
 H    0.1728048798   -1.5092341223   -1.6663835808
 H    1.7770466803    1.1147188521   -2.0357448327
 H    1.9248973467   -0.3278599378   -3.0468114242
 H    0.4312882763    0.6125716575   -3.0583744933
 H    1.3840261907   -1.8187284121    0.4476055982
 H    3.3453868595   -0.1502086305   -0.5326312295
 H    4.1114958497    0.6828185555    1.4002128054