14

 C   -0.7023429982    1.1331956823    0.2706882499
 N    0.0407861634   -0.1167176895    0.1273822445
 C    1.3300693582   -0.0934460489   -0.5027885181
 C    1.2213565989   -0.3926600543    0.9725641697
 C    1.7527174596    0.6220333877    1.9187117221
 O    1.8399575636    1.8123976344    1.7143042501
 C    2.1839833834    0.0656390239    3.2203746622
 N    2.5341569632   -0.3724826494    4.2317325998
 H   -0.0749114715    2.0137183302    0.4485136499
 H   -1.2713225605    1.2784294302   -0.6520924457
 H   -1.4118269562    1.0284058061    1.0963196276
 H    1.5599517010   -0.9187471960   -1.1714790443
 H    1.7671145604    0.8697640853   -0.7614343040
 H    1.2858116246   -1.4194696520    1.3205557362