15

 C    0.0550077504    1.3541026480   -0.0335131361
 N    0.0636580061   -0.0891828071    0.0384996921
 N    0.1493193750   -0.8163184340   -1.0972153246
 C    0.1333290563   -2.0821939081   -0.6923591367
 O    0.2038839567   -3.1035675896   -1.5687609947
 C    0.0377638116   -2.2011300404    0.7026024983
 C   -0.0056130925   -0.8838715016    1.1478682082
 C   -0.1012657259   -0.3673191020    2.4573257264
 C   -0.1829919152    0.0698514871    3.5768717222
 H    0.9756357225    1.7146470143   -0.5011263787
 H   -0.7990111292    1.6979221696   -0.6239752481
 H   -0.0188199224    1.7504496866    0.9792841255
 H    0.2612132271   -2.7163459069   -2.4513518207
 H    0.0047663347   -3.0944241961    1.3013963082
 H   -0.2552295753    0.4487156103    4.5663778187