15

 O    0.0660720031    1.4869732794    0.1414820721
 C    0.0726978058    0.0691307177    0.1434932115
 C   -1.2662851549   -0.5215430736    0.1360357537
 C   -2.3801676389   -0.9796611462    0.0903065558
 C   -3.7232538022   -1.4907295125    0.0888454115
 O   -4.3079978178   -1.8629846930   -1.1599167542
 C   -4.0548646591   -2.9113752066   -0.2262658747
 C   -2.9681175782   -3.8680188781   -0.6049263022
 O   -2.9273423806   -5.0041501596   -0.2098734214
 H   -0.4450293974    1.7764743717   -0.6217710126
 H    0.6476568070   -0.3377229809   -0.7034125207
 H    0.6026975332   -0.2272845987    1.0553402774
 H   -4.4135328091   -0.9873900286    0.7655618103
 H   -4.9265233571   -3.3561814380    0.2515298603
 H   -2.2065643337   -3.4374434531   -1.2876474068