12

 N    0.0669575273    1.3413058157    0.1929412905
 C   -0.0444356096   -0.0137747574    0.0690467987
 C   -1.1366953751   -0.8556279681    0.0245346118
 C   -0.5898575713   -2.1940443752   -0.0224576701
 C    0.7506248835   -2.0601876758   -0.0111099675
 O    1.0961282102   -0.7201569026    0.0470216609
 C   -2.4814215858   -0.4365868214    0.0150801977
 N   -3.5780106329   -0.0569191326    0.0028813478
 H    0.9136901211    1.7437467905   -0.1813447051
 H   -0.7693526361    1.8586123264   -0.0347659896
 H   -1.1530079571   -3.1119946346   -0.0647489862
 H    1.5790270758   -2.7455197948   -0.0368961288