11

 O   -0.2169888143    1.3823277095   -0.0106548661
 C   -0.0426474189   -0.0105627710    0.0035949556
 C   -0.4453771241   -0.7881010922    1.2394200162
 C   -1.3387587856   -0.7700616374    0.0145413684
 O   -2.5191234967   -0.0351281811    0.0349349033
 H    0.3113229379    1.7666621869    0.6958520488
 H    0.7915068049   -0.3680458576   -0.5969831073
 H    0.1076296551   -1.6883205888    1.4858531112
 H   -0.7972945671   -0.2116304484    2.0891830573
 H   -1.4223516645   -1.6756434095   -0.5786647882
 H   -2.2516868166    0.8937632796   -0.0114093592