15

 N   -0.0248785116   -1.1227277525   -0.1075168029
 C    0.0228282249    0.0277140371   -0.0102949979
 C    0.0586555094    1.4603575372    0.1449706557
 O    0.3111430703    2.2323193352   -1.0387665112
 C    1.2852207953    2.2809247042    0.0068795231
 C    1.1431267007    3.4659792935    0.9490661755
 N   -0.1671292264    3.3654547080    1.6291862926
 C   -1.3644774945    3.4775253897    0.7861298842
 C   -0.8406966876    2.1376939104    1.1598825979
 H    2.2577943607    1.8603425738   -0.2388577316
 H    1.9297925627    3.4162600864    1.7099759507
 H    1.2396167915    4.4215194486    0.4240582241
 H   -2.2348206732    3.8728571431    1.3019605083
 H   -1.2538501252    3.7777834531   -0.2505048673
 H   -1.3219425272    1.5034133224    1.8972124488