18

 C   -0.5456762599    1.5538651320   -0.2703628328
 C    0.0465966220    0.1922114258    0.0334064528
 C    0.8024363343   -0.5853216233   -1.1333957546
 C    2.0125890874   -0.5080737698   -0.2152682484
 N    3.2206111416   -0.8521201045    0.1847009408
 C    3.2353679603   -0.2871210723    1.4485939629
 C    4.4328246591   -0.3618047984    2.3360896503
 N    2.1142366513    0.3423763979    1.8325117779
 N    1.3712199900    0.1954935840    0.7085913959
 H    0.1719036553    2.1810095023   -0.8074095439
 H   -1.4433867380    1.4424935512   -0.8867344486
 H   -0.8293513296    2.0668836840    0.6531334307
 H   -0.6672765374   -0.4471348874    0.5616334048
 H    0.4221540403   -1.5900492926   -1.3285954052
 H    0.8732753577   -0.0304291904   -2.0717444052
 H    5.2747878525    0.1869318470    1.9014634191
 H    4.2023950918    0.0642523233    3.3139269391
 H    4.7527946912   -1.4005509889    2.4614462343