20

 O   -0.1005273083    0.9008377774   -0.9203622006
 C   -0.1322560924   -0.2045455072   -0.0489785154
 C    0.2180917733    0.0718022290    1.4204224836
 C   -0.2175144024   -1.2210094535    2.1286290906
 C   -1.4849506775   -1.6945648044    1.3581710003
 C   -1.5173675159   -0.8948484679    0.0424205743
 O   -2.5249694098    0.1233261261    0.1524059324
 C   -3.0860712239    0.5668877484   -0.9911172175
 N   -3.7650695214    1.6315296692   -0.9854872716
 H   -0.6782661401    1.5795139562   -0.5512628150
 H    0.5814380403   -0.9280898563   -0.4630268214
 H    1.2721543057    0.3200638511    1.5631756077
 H   -0.3808155107    0.9217989675    1.7713750837
 H    0.5748555337   -1.9731127464    2.0489354862
 H   -0.4108695761   -1.0759828164    3.1937125454
 H   -1.4652639581   -2.7704405554    1.1678632112
 H   -2.4016774359   -1.4805324556    1.9121498094
 H   -1.7322730677   -1.5107508444   -0.8377921468
 H   -2.9026401741   -0.0892059566   -1.8520721954
 H   -4.1534611786    1.7984084092   -1.9114755611