16

 C   -0.0301627169    1.5353156276    0.0263994234
 C    0.1187422737    0.0417064745    0.0218467062
 N   -0.7552303774   -0.8474806471    0.8305854256
 C    0.7080851749   -0.8083412812    1.0891784247
 C    1.4118845545   -1.9521716127    0.4257330528
 N    2.1300354823   -2.8050820575    1.0284867133
 N    1.1279449963   -1.8218719407   -0.9389946257
 C    0.4468994290   -0.6596515090   -1.2852256462
 O    0.2028222002   -0.2907771485   -2.4064881639
 H    0.8792117857    2.0215157289   -0.3393582567
 H   -0.8531873583    1.8352202047   -0.6287491882
 H   -0.2330889507    1.9032428467    1.0368317989
 H   -1.2135143608   -0.2740999421    1.5388438863
 H    1.0888898410   -0.4284007897    2.0280613181
 H    2.5294653272   -3.4917508989    0.3856467722
 H    1.4074453795   -2.4926227349   -1.6391493408