18

 O   -0.0432005295    0.4017192157    1.7467294446
 C    0.0312236595    1.2084523340    0.8535802109
 C    1.3906268881    1.9142261415    0.6035026905
 C    1.6495344159    2.2832485727   -0.7820610279
 N    1.8343998974    2.5647127447   -1.8877926014
 C   -1.1211918040    1.5792039204   -0.0396558202
 C   -1.2760165452    0.7096848428   -1.3440920123
 C   -2.8054041611    0.6808284949   -1.0855952493
 C   -2.5425133514    1.1270295807    0.3771655355
 H    1.3938787635    2.8244111064    1.2178759702
 H    2.1838147188    1.2663419601    0.9849743329
 H   -1.0691681837    2.6394448197   -0.3048344582
 H   -0.9092261438    1.1547567174   -2.2692751749
 H   -0.8206223036   -0.2761968661   -1.2175653985
 H   -3.3259517849    1.4499722982   -1.6624696544
 H   -3.3169915633   -0.2719064990   -1.2360369303
 H   -2.4796196939    0.2833506217    1.0678626110
 H   -3.1975141387    1.8891707043    0.8041041419