21

 O   -0.2010789476    1.5583496906    0.0305793439
 C   -0.0415808924    0.1648091516   -0.1915847794
 C   -1.3704229847   -0.5327240922    0.1228991175
 C   -1.2726070535   -2.0213809851   -0.2646670695
 C   -2.5716454532   -2.7861614746   -0.2490984252
 C   -3.5164656954   -2.7874364752    0.6891854177
 C   -3.5724172405   -2.0665543535    2.0064260361
 C   -2.6256522174   -0.9433870463    2.3271740188
 C   -1.7453324713   -0.2947008442    1.5665796819
 H    0.6593883788    1.9782426787   -0.0555700890
 H    0.2383186558   -0.0365532594   -1.2375710227
 H    0.7522518941   -0.2517420253    0.4504439280
 H   -2.1254803188   -0.0624548226   -0.5229701392
 H   -0.8465551242   -2.0888160964   -1.2730988358
 H   -0.5453803871   -2.5091242189    0.3998279626
 H   -2.7388303811   -3.4246956343   -1.1142594938
 H   -4.3801669437   -3.4290849783    0.5188700156
 H   -4.5955664181   -1.6769211037    2.1379440389
 H   -3.4921745036   -2.8238776259    2.8049819690
 H   -2.7339451764   -0.5912298647    3.3527957580
 H   -1.2204120495    0.5417281998    2.0213505165