22

 C   -0.1150301427    1.5877872602    0.0253142507
 C    0.0735511000    0.0772872066    0.0269569170
 C    1.0748361391   -0.6093034660   -0.9471881615
 C    2.5138962418   -0.0663683561   -0.8502310666
 N    2.7815119162   -0.8122591128    0.4258191100
 C    2.1350490076   -0.0980568438    1.5765677768
 C    0.7319647609   -0.6578995720    1.2405374835
 C   -0.1618529368   -1.1146023272    2.3710182113
 C    1.4777236972   -1.5763436847    0.2113565809
 H    0.8288181311    2.1242405409    0.1636232799
 H   -0.5487519450    1.9256628166   -0.9226365884
 H   -0.7927196337    1.9008736824    0.8275977057
 H   -0.9010976504   -0.4025645669   -0.1318313921
 H    0.6977170168   -0.9122417936   -1.9254171414
 H    3.1586194034   -0.4610583238   -1.6426379106
 H    2.6664035695    1.0173894929   -0.7918482586
 H    2.5206867458   -0.5016825656    2.5199163996
 H    2.2800962528    0.9883208303    1.5853781838
 H   -0.5482929796   -0.2578517261    2.9374496060
 H   -1.0243620418   -1.6785918006    1.9982932221
 H    0.3802341335   -1.7558810717    3.0750642842
 H    1.4864215641   -2.6663402790    0.1910765777