19

 C   -0.0078028994    1.5373717668   -0.0022254276
 C   -0.0202463443    0.0286724478   -0.0356141999
 C    0.2316946840   -0.8118475974   -1.3110431111
 C   -0.3466580936   -1.9337473503   -0.4301693940
 O    0.6708011793   -2.1109834802    0.5399057235
 C    0.7315869642   -0.7440261107    1.0944513165
 C   -0.2488444144   -0.7712963817    2.2439237689
 C   -1.4713014000   -0.8869199325    1.7035267939
 C   -1.3206350083   -0.8205570089    0.2231865387
 H    1.0013416743    1.9273743565   -0.1784547181
 H   -0.6639289196    1.9528153830   -0.7738942118
 H   -0.3473433583    1.9106729833    0.9693821994
 H   -0.4293609059   -0.5073550302   -2.1268253946
 H    1.2562457933   -0.9476270913   -1.6657722700
 H   -0.7062131218   -2.8943221334   -0.7947593392
 H    1.7700174838   -0.4839895887    1.2992017211
 H    0.0246768090   -0.8586180842    3.2874412696
 H   -2.4000960969   -1.0730497426    2.2289625551
 H   -2.1889674254   -0.5861296151   -0.3915744104