16

 C   -0.0022553724    1.4138243471   -0.1759438753
 O    1.2831341220    1.9771513168   -0.0414399433
 C    1.9292705901    1.5657771107    1.1431086832
 C    1.1815554424    1.5322285687    2.4759290507
 C    0.3567291081    0.2890951775    2.4799802938
 C    0.6124294715   -0.4189109956    1.1495824180
 O   -0.0212908012    0.0111715186   -0.0350298463
 C    2.0656544092    0.0467400546    1.3487724871
 N    1.8095247680    0.2216400535    2.8702685220
 H   -0.6865005001    1.8702092046    0.5565778106
 H   -0.3368975804    1.6325496088   -1.1911473418
 H    2.8734586511    2.1073411662    1.2075763691
 H    1.0343570623    2.3296339450    3.1940191291
 H   -0.4330365924    0.1180639167    3.2012254079
 H    0.4806173074   -1.4990491068    1.2193418146
 H    2.9195171545   -0.5209741462    0.9885987308