20

 C   -0.0240159282    1.3803197767    0.0591636671
 N    0.1127020003   -0.0589915324    0.1298648166
 C    0.5291022777   -0.6506987240   -0.8983236510
 O    0.6817107885   -1.9905050419   -0.9069492373
 C    1.1610770060   -2.5525995586   -2.1298932804
 C    1.2530847832   -4.0555158381   -1.9254297384
 C    1.7560254502   -4.7828412237   -3.1634188078
 C    1.8757878530   -6.2910025280   -3.0572164089
 O    2.0426980706   -4.1830147311   -4.1754896038
 H    0.5948244192    1.8474530435    0.8339420081
 H    0.2593413475    1.8119045570   -0.9151911053
 H   -1.0619921093    1.6623620067    0.2701388766
 H    0.7964044059   -0.1549521277   -1.8454172298
 H    0.4785735756   -2.3192021916   -2.9555171750
 H    2.1440571992   -2.1396737502   -2.3850957973
 H    1.9153313646   -4.2821352161   -1.0800821013
 H    0.2727239183   -4.4594619213   -1.6422484007
 H    0.9005105580   -6.7346775053   -2.8272773607
 H    2.2531910852   -6.6991884866   -3.9952806157
 H    2.5487165645   -6.5642511373   -2.2367891949