18

 O    0.0994903725    1.3901466238   -0.0551925166
 C    0.0313038243    0.0054911584   -0.0506306946
 C    0.2108092432   -0.8267042873   -1.3214881906
 N   -0.4559670519   -1.9512139164   -0.5475049676
 C    0.6212846301   -2.1941133339    0.4721552860
 C    0.7533819794   -0.7803463822    1.0820311644
 O   -0.1366073314   -0.6622274155    2.2002129545
 C   -1.4362249996   -0.9884794607    1.6669204195
 C   -1.2580055211   -0.8438090695    0.1623759851
 H    0.0788475180    1.6886034235    0.8619931661
 H   -0.4316102635   -0.4960960878   -2.1406253918
 H    1.2143336030   -1.0504126930   -1.6940256013
 H    0.3145938217   -2.9327621022    1.2155859661
 H    1.5220495259   -2.5566663129   -0.0285691057
 H    1.7405901178   -0.4345384219    1.3882885445
 H   -1.7406550003   -1.9998750979    1.9666904692
 H   -2.1697966270   -0.2783454249    2.0631220223
 H   -2.1394022011   -0.5741380695   -0.4172525393