23

 C   -0.1454716038    1.5474366773    0.0426405632
 C   -0.0841757509    0.0204602779   -0.0477418777
 C    0.7898716379   -0.4748140433   -1.2062693328
 C    0.8621652241   -2.0024858727   -1.2640826626
 N    1.5242870639   -2.5126790624   -2.4666718859
 C    2.9463636815   -2.1905225809   -2.5220710868
 C    1.2962421152   -3.9444162279   -2.6070396073
 C    1.7029445445   -4.4450756389   -3.9263949704
 N    2.0266126777   -4.8544698874   -4.9568438098
 H    0.8512443183    1.9755403813    0.1963148899
 H   -0.5530518141    1.9820076491   -0.8766681203
 H   -0.7787250493    1.8720716598    0.8739401775
 H    0.2985077633   -0.3871305142    0.8974066862
 H   -1.0998017085   -0.3808277146   -0.1619966303
 H    0.3936549026   -0.1077078646   -2.1609114726
 H    1.7942337217   -0.0484459524   -1.0980806414
 H    1.3469202211   -2.3853321034   -0.3429701305
 H   -0.1614458905   -2.3969778351   -1.2636336074
 H    3.5106496268   -2.6014944646   -1.6632064779
 H    3.3788738693   -2.5940485380   -3.4411571886
 H    3.0851652271   -1.1082739595   -2.5373831876
 H    1.8208472098   -4.5502202566   -1.8411448961
 H    0.2262645523   -4.1476055590   -2.4885053706