17

 C   -0.0781797414    1.3558487730   -0.0012799723
 O    0.0069274424   -0.0736841062   -0.0357065228
 C    0.6010139886   -0.5855484136   -1.1304033677
 O    1.0243761917    0.0908546623   -2.0383797037
 C    0.6231016952   -2.0816445144   -1.1043491729
 N    0.2870834499   -2.6916407607    0.1594959345
 C    0.2647744069   -2.7207094568   -2.4517639694
 C    1.6838648048   -2.7268438967   -1.9591864596
 H    0.9192209801    1.8008578725   -0.0353401160
 H   -0.6569501681    1.7292222852   -0.8499921250
 H   -0.5736626334    1.6005099725    0.9383037018
 H   -0.6508006088   -2.4217114871    0.4398242064
 H    0.2941830698   -3.7021447516    0.0674222679
 H   -0.3032410411   -3.6438321544   -2.4026600405
 H    0.0182228867   -2.0616753557   -3.2759461036
 H    2.3892181841   -2.0642678251   -2.4454406726
 H    2.1001705728   -3.6565488033   -1.5854827844