18

 C   -0.2299854888    1.4379360351    0.0807362512
 C   -0.0697938143   -0.0713912342    0.0770193093
 O   -0.0906905951   -0.7168779003    1.0999999148
 C    0.0781778626   -0.7246078413   -1.2942707606
 C    0.6318884768   -2.1684432268   -1.2650499438
 C   -0.4440459761   -2.9931877482   -2.0042655458
 O   -1.1875404445   -2.0592433366   -2.7790882533
 C   -1.3139427600   -0.9063270071   -1.9774793171
 H    0.6858070489    1.9091341233   -0.2952188499
 H   -1.0394123578    1.7441965467   -0.5919359848
 H   -0.4338746092    1.7912763917    1.0919808567
 H    0.6911915778   -0.0794083798   -1.9305790811
 H    1.5939884432   -2.2205654139   -1.7791542470
 H    0.7674654192   -2.5041908769   -0.2356193906
 H   -0.0385291474   -3.7435307380   -2.6868493609
 H   -1.1053560620   -3.4989081165   -1.2835961949
 H   -2.0948210301   -1.0454330937   -1.2103294968
 H   -1.5996948832   -0.0707505436   -2.6208992252