18

 C    0.1090146016    1.6136839832    0.1967348875
 C    0.0461094625    0.0787350045    0.0845042422
 C    0.6089541307   -0.4132590310   -1.2547036641
 C    0.9023481793   -1.9042154564   -1.1700144580
 O    1.7393858347   -2.2087768212   -0.0381530074
 C    1.5018861251   -1.4889525140    1.0738499200
 N    0.7534229770   -0.4789562536    1.2452581744
 C   -1.4242011301   -0.3190081095    0.2582322686
 O   -2.1206991091   -0.7828750860   -0.6075861345
 H    1.1540785308    1.9359397380    0.1896680775
 H   -0.4150817132    2.0901755145   -0.6376272609
 H   -0.3375951714    1.9475793415    1.1375199138
 H   -0.1081530990   -0.2311225551   -2.0595170167
 H    1.5301675921    0.1329903803   -1.4835360732
 H   -0.0275996816   -2.4742453033   -1.0713577954
 H    1.4456368670   -2.2702277728   -2.0431982992
 H    2.0814626954   -1.8864662825    1.9057243928
 H   -1.8084499420   -0.1339941566    1.2841532126