25

 C    0.5446553673    1.1483064246    0.5041535090
 C    0.0175068355   -0.2889238707    0.4229717131
 C   -1.4501677940   -0.4735379093   -0.0465324960
 C   -2.4249199310    0.1876067960    0.9477130800
 C   -1.6529061953    0.1459743126   -1.4425513262
 C   -1.7320976860   -1.9932574332   -0.0392089256
 C   -3.0625001471   -2.5298462567   -0.6199714739
 O   -2.3720165180   -3.2962540997   -1.6260929434
 C   -1.0842183043   -2.8980715671   -1.1159257205
 H    1.5777140020    1.1507480569    0.8659643122
 H    0.5407389580    1.6432444785   -0.4715249544
 H   -0.0425463312    1.7628714384    1.1933485690
 H    0.6688256427   -0.8614698424   -0.2507768680
 H    0.1200038381   -0.7575897330    1.4109015617
 H   -2.2831617374    1.2714798282    0.9900038331
 H   -3.4655698806    0.0086579427    0.6561416888
 H   -2.2885840273   -0.2094154172    1.9600191332
 H   -0.9275006204   -0.2330624184   -2.1691058551
 H   -2.6537973959   -0.0572479299   -1.8342957996
 H   -1.5396013589    1.2330974104   -1.4036854397
 H   -1.5488171014   -2.3620938738    0.9747331642
 H   -3.6422272841   -3.1711773213    0.0564521020
 H   -3.7410681041   -1.7904585880   -1.0627054889
 H   -0.4793667596   -2.3957426750   -1.8804605900
 H   -0.5154178172   -3.7532971325   -0.7287654449