20

 C    0.0974657135    1.3850392572    0.0394423148
 O   -0.2791951779    0.0685104557   -0.2999929796
 C    0.5898461108   -0.5442002387   -1.2123655945
 C    1.8859162734   -1.1692633435   -0.6199237720
 N    1.2668446732   -2.5093603805   -0.7454891908
 C    0.1488073357   -1.9916052688   -1.5408158096
 C   -1.2959275222   -2.4644035726   -1.3090247918
 O   -1.5017399793   -2.6542682833   -2.7297223983
 C   -0.1133180389   -2.4091037644   -3.0061825065
 H    1.0773226472    1.4194691918    0.5381297208
 H    0.1388601053    2.0339875276   -0.8493131271
 H   -0.6593563498    1.7707733104    0.7261070352
 H    0.7463686220    0.1022054935   -2.0884135888
 H    2.7755037039   -1.0008604345   -1.2402564499
 H    2.1148059615   -0.8867724462    0.4135108553
 H    1.8305999751   -3.2260491052   -1.1882923310
 H   -1.3556019648   -3.4068590794   -0.7495190266
 H   -1.9828899149   -1.7286503407   -0.8815756947
 H    0.0327762479   -1.6436695264   -3.7797538781
 H    0.4195988484   -3.3250889319   -3.3057810069