20

 C   -0.2049278710    1.5347952220    0.0402045486
 C    0.0404234576    0.0269471247   -0.0489752993
 O    0.7947159381   -0.3086745127   -1.2046772710
 C    0.7445171272   -0.5198935749    1.2022934763
 C    0.8760536065   -2.0450151833    1.2568710360
 C    2.1743797101   -2.2314833294    2.0536033411
 C    3.0163123838   -1.0433260928    1.5708337818
 O    2.0927003496   -0.0180560894    1.1881338678
 H    0.7389211093    2.0644351388    0.2042465824
 H   -0.6518719755    1.8967773428   -0.8892114046
 H   -0.8789308540    1.7768774530    0.8692634524
 H   -0.9195268525   -0.4934256061   -0.1568788048
 H    1.6934592595   -0.0132184329   -1.0065666163
 H    0.2336362073   -0.1439741529    2.1027243845
 H    0.0098316514   -2.5223539519    1.7212264607
 H    0.9833407496   -2.4302793719    0.2379069813
 H    1.9790871543   -2.1496919128    3.1281822185
 H    2.6641786785   -3.1915071734    1.8736964551
 H    3.6837628376   -0.6475065359    2.3443213021
 H    3.6301253825   -1.3173146010    0.7013481476