17

 N    0.0541358049    1.1998743751    0.3286654170
 C    0.0301499510   -0.0329726561    0.0823464424
 O    1.1053360718   -0.8370381541   -0.1715683728
 C    0.6149075752   -2.1268942402   -0.5278161588
 O   -0.6868763604   -2.2268870974   -0.0152483288
 C   -1.2170038312   -0.9024449155    0.0139921969
 C   -2.1535020730   -0.7212914394    1.1894978235
 C   -3.0603862967   -1.8188993878    1.5938416348
 N   -1.9113928050   -1.4398554424    2.4422682123
 H    1.0055478604    1.5682659360    0.3062254120
 H    0.6250038637   -2.2195098145   -1.6251382553
 H    1.2469692304   -2.8928283675   -0.0715813705
 H   -1.7532066398   -0.6822190317   -0.9233146250
 H   -2.4604265275    0.3142209827    1.3084964130
 H   -4.0365117609   -1.5899155161    2.0112849972
 H   -3.0014195626   -2.7518259328    1.0406630981
 H   -1.1648107003   -2.1146199584    2.2866182540