16

 O    0.0147007672    1.4402449050    0.0070932107
 C   -0.0012481906    0.0238939762    0.0020268001
 C   -1.4215530943   -0.4619816921    0.0123640498
 C   -2.5057094471    0.3647317284    0.0235645493
 C   -3.8344859850   -0.1489433936    0.0329967199
 C   -4.0069422741   -1.4965428373    0.0306104848
 N   -2.9224471677   -2.3232458585    0.0194274310
 C   -1.5838739989   -1.9068359638    0.0096482561
 O   -0.6765293729   -2.7294484064   -0.0002872593
 H    0.9320098274    1.7256369270    0.0003226642
 H    0.5085310285   -0.3898972758   -0.8828701500
 H    0.5235345026   -0.3964654188    0.8749502661
 H   -2.3396883567    1.4360676626    0.0252605160
 H   -4.6911136900    0.5110226694    0.0418511553
 H   -4.9756491547   -1.9808843268    0.0371557920
 H   -3.0424476436   -3.3267773554    0.0175656540