17

 O    0.0421538409    1.4290076294    0.0161705895
 C    0.0700417744    0.0255835638   -0.0745894458
 C   -1.3433691697   -0.5619473594   -0.0006644772
 C   -1.3883657600   -2.1183137725   -0.0166935027
 N   -2.1135173867   -2.4034413498    1.2304042303
 C   -2.4720694832   -3.6391084471    1.7128746054
 O   -3.0555344028   -3.8228095436    2.7557778990
 C   -2.3503070740   -1.1913423593    1.8793033297
 N   -1.9638916374   -0.1418686983    1.2740989936
 H   -0.5210299694    1.6351870204    0.7733706198
 H    0.5345864319   -0.2294060021   -1.0340311320
 H    0.6822589733   -0.4284887003    0.7242538156
 H   -1.9307725094   -0.1336927920   -0.8203772537
 H   -1.9215520407   -2.5184378993   -0.8823946825
 H   -0.3850366806   -2.5592912508    0.0092725895
 H   -2.1649552922   -4.4543746106    1.0310204666
 H   -2.8402181542   -1.2181494985    2.8446530749