19

 C    0.0205898289    1.5914580200   -0.0349638613
 C    0.0938966269    0.0628761721   -0.0524294784
 C    0.6297299901   -0.5286747229    1.2649515722
 C    0.7178603414   -2.0276950665    1.2609724338
 C   -0.0963158854   -2.8990961068    1.9509469538
 N    0.2971747525   -4.1818558616    1.6580832796
 C    1.3572547657   -4.1513805578    0.7891957218
 C    1.6402659605   -2.8328286731    0.5239029102
 H    1.0090305103    2.0343024189    0.1330211569
 H   -0.3633061400    1.9850179568   -0.9815624559
 H   -0.6384161853    1.9480068463    0.7650329463
 H   -0.8994240417   -0.3580413617   -0.2510712429
 H    0.7328511520   -0.2688226024   -0.8801400835
 H    1.6193393660   -0.0957660982    1.4667475112
 H   -0.0161616444   -0.2034367711    2.0904597930
 H   -0.9168754439   -2.7081134352    2.6247470317
 H   -0.1192991592   -5.0145714750    2.0344456794
 H    1.8176125819   -5.0621003564    0.4409915574
 H    2.4260935237   -2.4748202553   -0.1247612953