18

 O    0.0579115361    1.3941185129    0.2786683557
 C    0.0524962438    0.0107951890    0.0008892866
 C   -1.3699823730   -0.5431395426   -0.0619748598
 C   -1.4045251488   -2.0441849089   -0.3447011868
 N   -2.6936108630   -2.7038061650   -0.4350921702
 C   -3.6927934128   -2.4771535450    0.2966568955
 O   -3.9277522794   -1.5565351306    1.2781779760
 C   -3.3442396215   -0.2628417978    1.2082641649
 O   -1.9584099369   -0.2418267552    1.2082592730
 H   -0.4856599501    1.5064792921    1.0674621103
 H    0.5433935324   -0.1245328604   -0.9676952571
 H    0.6249390850   -0.5567605022    0.7524145598
 H   -1.9285429922   -0.0018929123   -0.8417364731
 H   -0.8748777988   -2.2250656176   -1.2876623668
 H   -0.8276101212   -2.5548072750    0.4396759882
 H   -4.5622279526   -3.1304037704    0.2199801817
 H   -3.7366279326    0.2443743561    0.3126906522
 H   -3.6811615246    0.2404859229    2.1158571698