16

 N    0.0698978967   -1.0863505853   -0.7048851907
 C    0.0294169222    0.0191390518   -0.3714259767
 C   -0.0059370817    1.4155525236    0.0633948991
 C    1.3730909799    2.0495296739    0.0468871964
 C    1.8834423787    2.8106721508   -1.1632432451
 O    0.9089584493    3.1925450810   -2.1080667010
 C    0.3739989673    4.4109311509   -1.6188355773
 O    0.4008261704    4.3228711832   -0.2028190782
 C    1.5463613671    3.5552428583    0.0940822456
 H   -0.6804164045    1.9706814268   -0.5926352485
 H   -0.4324172661    1.4561380728    1.0719045692
 H    2.1379703685    1.4929678403    0.5820105778
 H    2.8816050989    2.6612419997   -1.5586995670
 H    0.9825856076    5.2638681989   -1.9615636932
 H   -0.6611185990    4.5108218387   -1.9545480408
 H    2.2630572646    4.0285071045    0.7561304104