21

 O   -0.2407835746    1.6025262940   -0.1741021663
 C   -0.1708267832    0.2794609399    0.3401136158
 C   -1.3772310279   -0.4785413347   -0.1691704794
 C   -1.4670224117   -0.8751941901   -1.6679699602
 C   -2.1346264663   -2.2075203775   -1.2302663445
 C   -1.5753265944   -1.9728624617    0.1916511980
 C   -0.4220909856   -2.8556470997    0.7300718541
 C   -1.3960035125   -3.1734696484    1.8795332431
 O   -2.3983755034   -2.2973409355    1.3261518847
 H    0.5378015253    2.0824248224    0.1232060348
 H    0.7540248235   -0.2216952223    0.0093503712
 H   -0.1700496939    0.2779474891    1.4432216221
 H   -2.2847676089    0.0570967874    0.1308472831
 H   -2.0345242957   -0.2170075048   -2.3266855755
 H   -0.4752571634   -1.0330763680   -2.1030639025
 H   -3.2257133256   -2.1323732679   -1.2162964704
 H   -1.8477334562   -3.1304698745   -1.7414846669
 H   -0.1494313356   -3.6980634147    0.0916104842
 H    0.4838719162   -2.3244170978    1.0260942859
 H   -1.7440101119   -4.2121764874    1.9344581627
 H   -1.0802662642   -2.8533094978    2.8796435759