14

 C   -0.2710379383    1.6062715338    0.0631045126
 C    0.0422785842    0.1124170644    0.0227187708
 N    1.2354589259   -0.2702229505   -0.7923828291
 C    1.8619889794   -1.0556438102    0.3045879348
 C    0.8230101000   -0.4670627107    1.2609779468
 O    0.6704002693   -0.3923384604    2.4360235486
 C   -1.1442185577   -0.6942327305   -0.2705588855
 N   -2.0581289585   -1.3558044826   -0.5272230045
 H    0.6439716979    2.1604945467    0.2827381187
 H   -0.6624303468    1.9424955185   -0.9006213775
 H   -1.0140753196    1.8142163456    0.8376094990
 H    1.0137095951   -0.8062261257   -1.6235109179
 H    1.7640569041   -2.1472596169    0.2279087089
 H    2.9079813149   -0.8056620513    0.5070807241