18

 C    0.0333525059    1.5262652883   -0.0263684289
 C   -0.0031373558    0.0704525876   -0.0161377912
 C   -0.0326726182   -1.1337465763   -0.0094739085
 C   -0.0717229570   -2.5929551505    0.0080592946
 C    0.6837476825   -3.2372788359    1.2136093086
 C   -0.1209800367   -4.5108650497    1.5687969052
 C   -1.4842340161   -4.2242118560    0.9837381022
 C   -1.4661361771   -3.1908323990    0.1467832804
 H    0.7747221297    1.9115339205    0.6827475134
 H    0.2937228516    1.9133588051   -1.0179415839
 H   -0.9379663070    1.9520137984    0.2495298262
 H    0.3683190560   -2.9547799972   -0.9351830067
 H    1.7334226725   -3.4350074393    0.9850708392
 H    0.6532631383   -2.5363564565    2.0520714988
 H    0.3137630596   -5.4108855429    1.1106167338
 H   -0.1477918170   -4.6997705441    2.6477793554
 H   -2.3554944530   -4.8315364236    1.2038911999
 H   -2.3067814183   -2.8087770291   -0.4199572085