17

 O    0.4380489712    1.1772761363    0.6484444504
 C    0.0443225216   -0.0864947929    0.1128821866
 C   -1.4755765209   -0.2989201524    0.1520810191
 C   -2.3381441090    0.6896490950   -0.6185371047
 O   -3.2198360524    1.3123737766   -0.0556969476
 C   -2.1555141423    0.8395217474   -2.0761002076
 C   -1.0925019340    0.4870563688   -2.8258556498
 C    0.1962616760   -0.0777858314   -2.4464636122
 C    0.7001498132   -0.3191020325   -1.2251399129
 H    0.1994356630    1.8590116157    0.0101232221
 H    0.4707479972   -0.8118086204    0.8148187097
 H   -1.6864242005   -1.3040098690   -0.2399722410
 H   -1.8114350168   -0.2599051467    1.1909318525
 H   -2.9951501098    1.3323363285   -2.5579813450
 H   -1.1743200620    0.6959888533   -3.8907991549
 H    0.8524357938   -0.2754443101   -3.2909092335
 H    1.7288220817   -0.6663798961   -1.1690458310