18

 C    0.0585227113    1.5263104373    0.0084139461
 C   -0.0294716221    0.0275567115   -0.0189970853
 C   -0.0267894683   -0.6778064365   -1.1561618798
 C   -0.0835324832   -2.1586358223   -1.1564977704
 O    0.8737090263   -2.8652283170   -0.3232468426
 C   -0.4944163742   -2.8537211162    0.0747649604
 C   -0.8570970896   -2.0116122554    1.2760896314
 C   -0.0729742085   -0.6849550757    1.3159907400
 H    0.9409505743    1.8586117778    0.5709550833
 H    0.1191883947    1.9490488268   -0.9979816502
 H   -0.8121673010    1.9632506289    0.5144668850
 H    0.0216798222   -0.1759314006   -2.1185604473
 H   -0.2527294656   -2.6438745940   -2.1155840233
 H   -1.0014381363   -3.8161683967   -0.0098217149
 H   -1.9356076032   -1.8104848008    1.2254634045
 H   -0.6849670373   -2.5721249360    2.2017331970
 H    0.9562969435   -0.8911418848    1.6348355283
 H   -0.5040959731   -0.0278650564    2.0798171678