15

 C   -0.1353928849    1.4979393507    0.0118444609
 C    0.0004706888   -0.0110904521    0.0034208440
 O   -1.3315614730   -0.5655356403    0.0113715376
 C   -1.3885908422   -1.8856346078    0.0060080047
 N   -0.4276784681   -2.7551365431   -0.0055124941
 C   -1.1055678430   -3.9765286744   -0.0054380967
 C   -2.4357403478   -3.7577114812    0.0060443142
 O   -2.6361114787   -2.3901498371    0.0137303013
 H    0.8580128898    1.9558651081    0.0060293653
 H   -0.6818200156    1.8453538356   -0.8691978679
 H   -0.6674777435    1.8367508213    0.9049323500
 H    0.5258731001   -0.3739635698   -0.8860766192
 H    0.5400155558   -0.3825864053    0.8808025742
 H   -0.5747814442   -4.9151322835   -0.0137794284
 H   -3.3203179434   -4.3688984110    0.0103525540