19

 O   -0.2374383752    1.3451675574    0.0502874842
 C    0.0157558744   -0.0570842553    0.0779882703
 C    0.5494260747   -0.5245399149   -1.2049417253
 C    1.0366886109   -0.8677400966   -2.2495455319
 C    0.9458420099   -0.4540890429    1.2577624046
 C    0.3573253375   -0.0378716998    2.6340267540
 C   -0.1837424750   -1.3407337794    3.2810267582
 C    0.4677809342   -2.4294599991    2.4633338164
 C    1.0905150835   -1.9546213849    1.3861279387
 H    0.5684176695    1.7781722917   -0.2534549021
 H   -0.9657029090   -0.5155980740    0.2488660577
 H    1.4436437509   -1.1795869993   -3.1797705719
 H    1.9115675155    0.0333480869    1.0681545294
 H    1.1556071118    0.3768226622    3.2558181780
 H   -0.4008862688    0.7405435607    2.5265157432
 H    0.0664350185   -1.4076273080    4.3461318850
 H   -1.2787532188   -1.4130526537    3.2249898238
 H    0.4041722951   -3.4785531260    2.7324868041
 H    1.6048833603   -2.5493696349    0.6406007934