15

 C    0.0102805738    1.5263553214    0.2207332395
 C   -0.0154878805    0.0487720008   -0.0394455413
 C   -1.1536964831   -0.6103164889   -0.3202104791
 O   -1.1645720408   -1.9627254528   -0.5585620599
 C   -0.0201215032   -2.6800916415   -0.5156795175
 O   -0.0159546384   -3.8684499947   -0.7297305744
 C    1.2009085318   -1.8876585726   -0.1936336703
 N    2.3249109339   -2.6334041830   -0.1436193781
 N    1.2016866292   -0.6081339134    0.0249763907
 H    0.6639531059    2.0291745182   -0.4998337753
 H   -0.9882479928    1.9647524652    0.1514077787
 H    0.4134277668    1.7317225827    1.2180673467
 H   -2.1433718114   -0.1834563894   -0.3904673530
 H    2.2592066143   -3.6097288985   -0.3755528853
 H    3.2129010345   -2.1906205237    0.0133717186