17

 C   -0.0273636386    1.4054639162    0.0430473475
 N    0.0192057623   -0.0360461903    0.1401377727
 C   -1.2012183417   -0.8242982722    0.0819590314
 C   -0.6814207930   -2.2281115837   -0.2089328977
 O   -1.2771225183   -3.1509963829   -0.7011452340
 C    0.8055048678   -2.2279687265    0.0991103923
 O    1.5478968405   -3.1528925077   -0.6315133800
 C    1.1654525098   -0.7598646103   -0.1345239337
 N    2.2775964981   -0.2478695518   -0.4721893311
 H    0.9926326262    1.7841505941    0.1125894832
 H   -0.4567740948    1.7356204272   -0.9139655610
 H   -0.6319410423    1.8239541300    0.8554821652
 H   -1.7731144393   -0.7975944927    1.0215884421
 H   -1.8778283034   -0.5045628880   -0.7235148426
 H    0.9071874845   -2.4082873268    1.1862000871
 H    0.9094007981   -3.7510195375   -1.0460262487
 H    2.9741088039   -0.9830884271   -0.5846661428