21

 O   -0.1650843411    1.5378046127    0.2434110654
 C    0.0418895850    0.1400893166    0.0833841503
 C   -1.3268618038   -0.5075729258   -0.0535474725
 C   -2.0909422474   -0.1680278192   -1.3712708315
 C   -2.4703503888   -1.5809433270   -1.8674192800
 C   -1.2286982587   -2.2803570943   -2.4677211733
 C   -0.4392612030   -2.6425471200   -1.1727651419
 C   -1.3696951405   -2.0571270396   -0.0866488090
 O   -2.6700490128   -2.3026607270   -0.6394266262
 H    0.6950030329    1.9650687432    0.2938455697
 H    0.6563022371   -0.0622593401   -0.8078379887
 H    0.5739636702   -0.2827001766    0.9522494511
 H   -1.9203801931   -0.1785107034    0.8047958228
 H   -2.9801378927    0.4334215667   -1.1728701776
 H   -1.4706072721    0.3804834792   -2.0857460865
 H   -3.3746781823   -1.6386086013   -2.4734752086
 H   -1.5169304065   -3.1768736329   -3.0213447816
 H   -0.6699316115   -1.6298969371   -3.1458623237
 H   -0.3608819451   -3.7249391609   -1.0473962318
 H    0.5734941411   -2.2336691477   -1.1518703461
 H   -1.2930565871   -2.5337380854    0.8915374797