16

 C   -0.1110706993    1.5838837189   -0.0118669233
 C   -0.0316289529    0.0699097772   -0.0154399414
 C    1.2361443355   -0.6086743703   -0.6063158406
 O    2.0202947011   -0.1452381152    0.5537647269
 C    0.7516848835   -0.6370202085    1.1300480629
 C    0.9087170397   -1.8976230975    0.2354711266
 O   -0.2459001110   -2.6459018209   -0.0003911814
 C    2.0649164884   -2.7515018351    0.5249926494
 N    2.9151592335   -3.5139201229    0.7023063225
 H    0.8477006362    2.0247219308    0.2678893639
 H   -0.3912891898    1.9563589857   -1.0026239072
 H   -0.8736676370    1.9268675725    0.6948761976
 H   -0.9736892831   -0.4100490061   -0.2856398275
 H    1.6956194742   -0.5320214652   -1.5918739354
 H    0.6310834768   -0.5906293642    2.2119354684
 H   -0.0303737355   -3.3802249089   -0.5861888812