20

 C   -0.0840742139    1.4378682302    0.0159629250
 C    0.0784062700   -0.0564340087    0.0011920240
 C    0.7510241123   -0.8806881422   -1.0298803537
 C    1.5744034858   -1.9351894716   -0.3233556042
 O    1.3269455049   -1.7881469205    1.0732590576
 C    0.2322576398   -0.8890508645    1.2858772127
 C   -1.0823646714   -1.6798862786    1.3467645338
 C   -1.3378869362   -1.9986772293   -0.1424134395
 N   -0.7273624763   -0.8888527131   -0.9149101782
 H    0.8076754297    1.9275881440    0.4222172890
 H   -0.2537177659    1.8104621915   -0.9975163007
 H   -0.9413786109    1.7373756346    0.6297736255
 H    1.1258924299   -0.4736148469   -1.9651522849
 H    1.3282773996   -2.9578366810   -0.6458988851
 H    2.6425077348   -1.7747946933   -0.5202267848
 H    0.4452116347   -0.3064078230    2.1857054193
 H   -0.9989984785   -2.5636514852    1.9835118150
 H   -1.8829270887   -1.0436344046    1.7419551845
 H   -0.9060368595   -2.9630320177   -0.4315581326
 H   -2.4030834502   -2.0367752701   -0.3845753328