17

 C   -0.6470053839    1.3362365783   -0.0834376678
 C    0.1677803933    0.0501156820    0.0364382068
 C    1.1171059125   -0.2250548678   -1.1623307731
 C    2.2832533466   -0.9391554415   -0.5367245336
 C    2.2714889849   -0.8284738106    0.7990466808
 C    1.0865129450   -0.0122158705    1.2862567105
 C    3.2565543366   -1.3526096102    1.6793302049
 N    4.0399738738   -1.7686949395    2.4248947842
 H    0.0088729286    2.2115686380   -0.1540878502
 H   -1.2813690673    1.3214850130   -0.9757898061
 H   -1.2987870186    1.4765672392    0.7849736872
 H   -0.5233385464   -0.7988352099    0.1013731289
 H    0.6379473839   -0.8059947440   -1.9578863469
 H    1.4577340237    0.7116188012   -1.6296044774
 H    3.0542003300   -1.4456678181   -1.1053271615
 H    1.4209915598    0.9878160392    1.5950178102
 H    0.5925253675   -0.4594677189    2.1539189230