16

 C    0.0463698888    1.6022822740    0.1215562382
 C    0.0247872132    0.0619655535    0.0439828228
 C    0.7178091613   -0.5103479908    1.2038925912
 N    1.2670230909   -0.9217880545    2.1331183072
 C   -1.4104327220   -0.4841274426   -0.0470610209
 C   -2.1963348166   -0.2328882138   -1.3489686500
 O   -2.3038296622   -1.6729882538   -1.5752168722
 C   -1.5756942749   -1.9605437757   -0.4462029811
 O   -1.2436324621   -3.0239685492   -0.0411906854
 H    1.0733688602    1.9709036690    0.1700517670
 H   -0.4327572140    2.0313442671   -0.7628342264
 H   -0.4854918953    1.9521963762    1.0105090717
 H    0.5741194821   -0.2551774153   -0.8519160836
 H   -1.9670638265   -0.2406725933    0.8615549868
 H   -3.1829627470    0.2211518189   -1.2448618404
 H   -1.6389992360    0.2419466703   -2.1603822849