15

 C   -0.3461334113    1.3663792576   -0.3805946416
 O   -0.3731252086   -0.0532901998   -0.6133495174
 C    0.8037197833   -0.6211008865   -0.8609167428
 O    1.8650675775   -0.0458910078   -0.9024169930
 C    0.6851472209   -2.1055583232   -1.0974471994
 C    1.4964344858   -2.6207783878   -2.2618414111
 N    1.9266362374   -2.8824472082   -0.9033419561
 C   -0.5487957096   -2.7603576595   -0.7332694354
 N   -1.5378640427   -3.2922538729   -0.4626553243
 H    0.2913094628    1.5970043995    0.4755548282
 H    0.0341294364    1.8872900561   -1.2620900822
 H   -1.3789109975    1.6476417981   -0.1810874030
 H    1.1124912256   -3.4783341088   -2.8046443676
 H    2.0169851844   -1.8681500409   -2.8462857046
 H    2.6491980559   -2.2098318558   -0.6433501797