16

 C    0.0228118440    1.6515677498    0.0316363340
 C   -0.0142363449    0.1214778364    0.0051733777
 C    0.6588984584   -0.4830281945    1.2682267970
 O    2.0112873402   -0.1169507216    1.3720288645
 O   -1.3649004337   -0.3715580274    0.0582871241
 C   -2.1520336768   -0.2886945614   -1.0454386936
 O   -3.3031922796   -0.5924359855   -1.0152707558
 C    0.7037890178   -0.4008379703   -1.1771801502
 N    1.3189876243   -0.8202021435   -2.0614981352
 H    1.0519526623    1.9851664116    0.1783678061
 H   -0.3636511239    2.0813190299   -0.8953725283
 H   -0.5892812553    2.0001477074    0.8675415177
 H    0.1413770494   -0.0743105188    2.1403598503
 H    0.5060663626   -1.5692071872    1.2548011950
 H    2.5193651269   -0.6295850272    0.7330478355
 H   -1.6148984919    0.0626355922   -1.9435031189