18

 C   -0.1119816930    1.4946273599    0.1120875789
 C    0.0098967167   -0.0173895543    0.0183269272
 C   -1.3411716472   -0.7674108494   -0.0702014960
 C   -1.2217153693   -1.8645442230    0.9584542210
 C   -0.0748447445   -1.8247424344    1.6333865194
 C    0.8191931458   -0.6996057049    1.1738795590
 N    2.0721537883   -1.1787184055    0.5514848066
 C    1.9396059241   -0.9415377581   -0.6864926604
 O    0.8267851470   -0.3315135598   -1.1547053448
 H    0.8766107599    1.9574728149    0.1870178121
 H   -0.6185992415    1.9020098594   -0.7681329953
 H   -0.6896665808    1.7703504253    1.0002283171
 H   -2.1831349985   -0.0968853559    0.1439907415
 H   -1.4991033244   -1.1519424723   -1.0838965132
 H   -2.0108022924   -2.5918562264    1.1161112943
 H    0.2296847225   -2.5132543340    2.4123665294
 H    1.0709280936   -0.0109576682    1.9893582840
 H    2.6658871837   -1.1906834032   -1.4532322108