18

 C   -0.0074688889    1.4563633114   -0.0621946900
 C   -0.0441856226   -0.0453153256    0.0621244154
 C   -0.8386052566   -0.6888650497    1.1614865304
 C    0.6992099514   -0.7359032330    1.1862419838
 C    1.3668682090   -2.0058857982    0.8240529292
 C    1.1019133077   -2.6171192148   -0.3310388041
 C    0.1366941794   -2.0220422843   -1.3194521601
 O    0.0293573754   -0.6070864044   -1.2211837762
 H    0.9044747269    1.7728040911   -0.5777236190
 H   -0.8663050702    1.8140025936   -0.6394331426
 H   -0.0328262884    1.9282571840    0.9235312278
 H   -1.3403792223   -0.0408024366    1.8723177108
 H   -1.3452601325   -1.6290176175    0.9759649798
 H    1.1962797634   -0.1150252235    1.9245451354
 H    2.0842286776   -2.4249184465    1.5237798949
 H    1.5745472851   -3.5569599763   -0.5983433888
 H    0.4701935350   -2.2123761463   -2.3455508368
 H   -0.8601931093   -2.4874111133   -1.2249575799