13

 O   -0.1558234144    1.4531353021    0.0113694898
 C    0.0284589703    0.0458574105    0.0020188789
 C   -1.3581942794   -0.5813857612    0.0119118512
 C   -1.3248811314   -2.0950105350    0.0034359324
 O   -0.2961704529   -2.7377834451   -0.0101098603
 C   -2.6259703531   -2.7464169246    0.0125636333
 C   -3.7103695902   -3.2686906240    0.0201054640
 H    0.7120901042    1.8667881838    0.0056693821
 H    0.5784624188   -0.2891667699   -0.8887948135
 H    0.5953861018   -0.2987037363    0.8784694136
 H   -1.9229717636   -0.2463883474    0.8915926303
 H   -1.9396387445   -0.2370358160   -0.8531864813
 H   -4.6603250357   -3.7459864568    0.0257966593