19

 O    0.1087700763    1.4195710889    0.1138732283
 C    0.0580360672    0.0047430304    0.0290966391
 C   -1.3889480238   -0.5800686257   -0.0263117612
 C   -1.2433987387   -1.8394285384   -0.8854301377
 O   -2.2618946317   -2.0666744850   -1.8566075379
 C   -1.6437661896   -2.8005101871   -2.9162383524
 C   -0.1388575051   -2.3705375392   -2.9770493478
 C   -0.0196387896   -1.5649730094   -1.7190000745
 C    0.6997410231   -0.5594898573   -1.2303669406
 H   -0.3031941852    1.7695503291   -0.6844460405
 H    0.5782839031   -0.3309648524    0.9352460094
 H   -1.8226986656   -0.7508559357    0.9611739913
 H   -2.0281554603    0.1283135596   -0.5649041534
 H   -1.1223850594   -2.7423962758   -0.2602485470
 H   -1.7208057459   -3.8812767165   -2.7251042316
 H   -2.1905638688   -2.5775410247   -3.8357592117
 H    0.5192598707   -3.2459869091   -2.9895274876
 H    0.0904381727   -1.7782385860   -3.8670802138
 H    1.6045444707   -0.1294823358   -1.6458059003