22

 C    0.3395235005    1.2651972445    0.4250418224
 C   -0.4076035914    0.1473275184   -0.3152819295
 C    0.4156902546   -0.4524032870   -1.4530896856
 C    0.4079891618    0.4073034343   -2.7065601703
 O    1.7102764668   -0.9630471302   -1.0737932782
 C    0.7197715971   -1.9072445019   -1.5208287506
 C    0.2366968248   -2.8762188689   -0.4558390193
 C    1.0193196667   -2.6013900255   -2.8372506308
 H    1.2786750745    0.8829784778    0.8340542141
 H    0.5792451586    2.1058903970   -0.2337441131
 H   -0.2647119038    1.6543855441    1.2498832284
 H   -0.6953251550   -0.6220114503    0.4041535503
 H   -1.3422813443    0.5372468873   -0.7378307485
 H    1.1953594476    0.1187002799   -3.4024139468
 H   -0.5585964643    0.3398191688   -3.2183302565
 H    0.5698989727    1.4583786156   -2.4467607387
 H    0.2415666857   -2.4265247364    0.5368761990
 H   -0.7746441229   -3.2349532953   -0.6777780969
 H    0.8973151874   -3.7496522479   -0.4252325768
 H    1.8019057107   -3.3532563234   -2.6869057920
 H    0.1278054412   -3.1224207759   -3.2038949724
 H    1.3588553610   -1.9151151450   -3.6119854681