16

 N    0.0494552288   -1.1876271267   -0.0028757133
 C   -0.0073880056   -0.0339196241   -0.0099657643
 C   -0.0617052513    1.4284246247    0.0016431193
 C    1.3223613164    2.0487472933   -0.0776990593
 C    2.3341537569    1.8673709475    1.0708620305
 O    2.6588084446    3.2832780487    1.0439073472
 C    1.7036228616    3.5448873321    0.0066642318
 C    2.2660669934    3.3419697354   -1.4086642880
 O    1.9267950993    1.9272310302   -1.3754205513
 H   -0.6659978116    1.7710701023   -0.8444426954
 H   -0.5600544884    1.7532363533    0.9219410738
 H    1.9055467576    1.5775143525    2.0380903633
 H    3.1877017489    1.2273381761    0.8295532542
 H    1.0526846047    4.3947269867    0.2204098505
 H    1.7223676816    3.8574691368   -2.2094758281
 H    3.3416340530    3.5169299312   -1.5062472108