19

 O   -0.0703611126   -0.0133676192    0.2490603084
 C   -0.0654401212    1.1693597162    0.0835986407
 C   -1.1817232856    2.2246695614   -0.2553563286
 C   -0.0321412633    3.0708682905   -0.8861413860
 C    0.4988704088    4.5148021624   -0.6683527805
 C    1.7774596058    4.1477363312    0.1436115341
 C    1.1524074852    3.2186971794    1.2124046275
 C    0.9818008187    2.2791135031   -0.0303292920
 C    2.3509461612    2.8219637726   -0.5037985530
 H   -1.9768472689    1.8707698329   -0.9141964224
 H   -1.6277007263    2.6513792027    0.6466343192
 H    0.0565746074    2.7850563728   -1.9386370686
 H    0.7111706772    5.0157500434   -1.6166582340
 H   -0.1613636428    5.1651355955   -0.0863372682
 H    2.4479316268    4.9618660067    0.4232601945
 H    1.8778420746    2.8095700209    1.9186100355
 H    0.2610900496    3.5656001020    1.7415364708
 H    2.5431305547    2.8008306041   -1.5796464805
 H    3.2180665607    2.4554061413    0.0490791632