18

 C   -0.0994262800    1.5073785573   -0.0604698280
 C   -0.0260529193   -0.0239514549    0.0145098833
 O    0.6736650431   -0.5523957693   -1.1167025843
 C    0.6877771312   -0.5124843955    1.2325219221
 C    0.1730557402   -1.2300050845    2.2380826648
 N    1.1365687216   -1.5131632635    3.2158596440
 C    2.3754732696   -0.9930228347    2.8748860092
 O    3.3888799813   -1.0882186116    3.5260557517
 C    2.1547066392   -0.2925896613    1.5236174176
 H    0.9043599621    1.9415198280   -0.0884137682
 H   -0.6331525598    1.8235629262   -0.9648599584
 H   -0.6339514658    1.9143895476    0.8029836766
 H   -1.0548001805   -0.4203337379    0.0410346795
 H    0.3137183939   -0.1355595792   -1.9066028774
 H   -0.8385613754   -1.5905235920    2.3645050028
 H    0.9836306972   -2.0412505707    4.0584776843
 H    2.8071064887   -0.7338824833    0.7628978237
 H    2.4411868725    0.7615726992    1.6108319367