19

 C   -0.0032464355    1.5342131470    0.1310293796
 C   -0.0507268626    0.0407654509   -0.0039476065
 C   -0.8688007235   -0.8361177486    0.8623410639
 N    0.5977271971   -0.9073987828    1.0016882438
 C    1.0517328037   -1.7608633269   -0.1536051465
 C    0.5195142855   -0.7406238424   -1.1934552950
 C   -0.4446734606   -1.1876783650   -2.3043523417
 C    0.2078862875   -2.0491758130   -3.2889647003
 N    0.7464618638   -2.7302572521   -4.0516238170
 H    0.9793731862    1.9262102492   -0.1525000769
 H   -0.7549216139    2.0103868541   -0.5099769616
 H   -0.2025391109    1.8350528764    1.1633821846
 H   -1.3547078529   -0.3688315677    1.7136212484
 H   -1.4015195234   -1.6971496676    0.4625356363
 H    2.1370640110   -1.8676853075   -0.1499531074
 H    0.5960283356   -2.7572174176   -0.1657550606
 H    1.3485832043   -0.1919056420   -1.6480616811
 H   -1.2975904965   -1.7300343520   -1.8825436854
 H   -0.8524856847   -0.3119716623   -2.8234845767