17

 C    0.4244576099    1.5570127795    0.8563215416
 O    0.7956243501    0.2199528886    1.1067726931
 C    0.1380860081   -0.6947859953    0.2622110357
 C    0.5598002213   -2.0826948899    0.6128911221
 C    1.9403655144   -2.6333441646    1.0506671088
 C    0.9278189019   -3.7724002580    1.3118341761
 O   -0.0284632414   -2.7529493798    1.8162084403
 C    0.2892263310   -3.4602344886   -0.0673386191
 O   -0.2334069420   -3.9554762252   -1.0096653071
 H   -0.6526959895    1.7175318505    1.0172069853
 H    0.9843856712    2.1841248985    1.5534468371
 H    0.6681493642    1.8617729424   -0.1736616985
 H   -0.9572749905   -0.6179468209    0.3585542171
 H    0.3876087193   -0.5091144584   -0.7970713957
 H    2.7149493389   -2.7746589454    0.2926447593
 H    2.3027790339   -2.1645418923    1.9656054594
 H    1.0321928592   -4.6908309212    1.8839325345