25

 C    0.2167233218    1.0927884710   -0.4908113126
 C   -0.2858511312   -0.3269425908   -0.2194395156
 C   -1.6181298955   -0.3617046612    0.5317006552
 C   -2.1830115851   -1.7846231748    0.6813488280
 C   -2.8225215588   -2.3533581598   -0.5936246046
 C   -3.3155892869   -3.7876760361   -0.3998277825
 O   -3.8706844523   -1.5088320057   -1.0721222890
 O   -1.3787274309    0.2188044427    1.8144583034
 C   -2.5031840045    0.8207931266    2.4063955607
 H    1.1876816862    1.0789458801   -0.9953460121
 H   -0.4826925437    1.6436511792   -1.1297753608
 H    0.3249730087    1.6448622868    0.4460617209
 H   -0.3961951194   -0.8705689661   -1.1647752467
 H    0.4522883082   -0.8774908386    0.3777756670
 H   -2.3561688804    0.2484437977   -0.0113469997
 H   -1.3859146744   -2.4550018505    1.0262679551
 H   -2.9469926272   -1.7839473213    1.4712070036
 H   -2.0860538086   -2.3444889421   -1.4060436716
 H   -2.4906815278   -4.4593565497   -0.1414198372
 H   -4.0519305364   -3.8387506979    0.4123927374
 H   -3.7898003996   -4.1526282242   -1.3149087312
 H   -4.5792347664   -1.5271219043   -0.4186469703
 H   -2.9131344205    1.6268795426    1.7778436179
 H   -3.3139238067    0.1039351756    2.6107722877
 H   -2.1783654685    1.2480539709    3.3589541269