16

 C   -0.1695215668    1.5853422186    0.0064012340
 C    0.0124082140    0.0631704572   -0.0400329088
 C    0.8708915315   -0.4880463077   -1.2026920073
 O    1.4112951392   -1.7154530322   -0.7310904625
 C    1.7805228536   -1.5371969333    0.6204342224
 C    0.8630722312   -0.4478545765    1.1735636843
 O    0.8258525872   -0.0135375638    2.2868468190
 C   -1.2781292587   -0.6268521663    0.0049048855
 N   -2.2997792882   -1.1668650767    0.0445915449
 H    0.8031983140    2.0793353789   -0.0689097085
 H   -0.8041080792    1.9298425969   -0.8134652790
 H   -0.6280317582    1.8735112454    0.9545794127
 H    0.3036691000   -0.6980373479   -2.1099410494
 H    1.6677714583    0.2369562598   -1.4331496041
 H    1.6616977004   -2.4789128932    1.1633002208
 H    2.8252922119   -1.2026227593    0.7286936558