20

 C   -0.1667367135    1.5609569241   -0.0386126066
 C   -0.0179672415    0.0438935632    0.0134727052
 C   -1.2884655240   -0.6627279339   -0.4387962987
 O    1.1216767608   -0.3779422304   -0.7923437510
 C    1.8541033207   -0.8258665054    0.3627097494
 C    0.6518471508   -0.5647178150    1.2888054439
 C    0.8660491395    0.3154186355    2.5256848153
 C    1.6545631103   -0.3727811231    3.5475258461
 N    2.2810034723   -0.9356113046    4.3388495973
 H    0.7656402784    2.0677114994    0.2240328395
 H   -0.4300268831    1.8637145613   -1.0565874090
 H   -0.9584393794    1.9100284991    0.6331242540
 H   -1.5546737709   -0.3519678475   -1.4540002045
 H   -1.1476649592   -1.7469548997   -0.4397654360
 H   -2.1266809314   -0.4199982378    0.2238997401
 H    2.1834091228   -1.8659480466    0.2690683327
 H    2.7318037352   -0.1962778679    0.5653102413
 H    0.1539793246   -1.4879488747    1.5938510290
 H    1.3826420187    1.2442525643    2.2625286615
 H   -0.0964983109    0.6009105798    2.9661633705