16

 C    0.0555799684    1.3817258563   -0.4779936381
 C   -0.0877908542    0.0656398696    0.3071340275
 C   -1.4605438124   -0.5223224616    0.2522266904
 N   -2.3207555331   -0.5833770908    1.2385779787
 C   -3.4614713430   -1.1820534470    0.7311492862
 C   -3.2693622782   -1.4815284043   -0.5892231969
 O   -4.0090981475   -2.0593690144   -1.5673983382
 N   -2.0003971304   -1.0630794618   -0.8974287368
 H    1.0727660918    1.7760766720   -0.3920810776
 H   -0.1572283667    1.2409052998   -1.5433117576
 H   -0.6388993318    2.1360551411   -0.0971968649
 H    0.6496767759   -0.6605559742   -0.0608063790
 H    0.1341042026    0.2351977522    1.3638340971
 H   -4.3345957947   -1.3599371034    1.3397749705
 H   -4.8635191758   -2.3016536050   -1.1973388836
 H   -1.5658657508   -1.1560286884   -1.8003345376