16

 C   -0.0340701932    1.4981963584    0.2770632549
 C    1.3091602666    2.1165819612   -0.0626689232
 C    2.4764359453    1.7598156610    0.4822896828
 C    2.6677803587    0.7286358313    1.5237459872
 O    1.6282617383    0.5068733095    2.4799093682
 C    1.8754673753   -0.5480272045    1.5471187491
 C    0.8496272738   -0.8614967134    0.5302788853
 C    0.0027815291    0.0115857527   -0.0241338078
 H   -0.2777469272    1.6686815988    1.3290464645
 H   -0.8173691539    1.9734177074   -0.3184271302
 H    1.3181859167    2.8729935055   -0.8430615326
 H    3.3902095999    2.2317618565    0.1308043521
 H    3.6675538164    0.6819763850    1.9555009213
 H    2.3682625592   -1.4115882788    1.9938316859
 H    0.8267981212   -1.8987311868    0.2064256338
 H   -0.6836548861   -0.3526178336   -0.7840107014