15

 C   -0.0309842699    1.5060558806    0.0049249200
 C   -0.0087523804    0.0081069490   -0.0357844871
 N   -0.0378404755   -0.6215449507   -1.1641744650
 C   -0.0170027033   -1.9996332197   -1.1873257175
 C    0.0337115671   -2.7025195620   -0.0378263241
 O    0.0577469772   -4.0361590158    0.0517358088
 O    0.0657603972   -2.0939735467    1.1651514852
 C    0.0469656689   -0.6947767610    1.2540187659
 N    0.0767018477   -0.1195661501    2.3821928905
 H    0.8569341354    1.8937672250    0.5154937974
 H   -0.0726611321    1.8948131702   -1.0131320689
 H   -0.8928745004    1.8661613946    0.5766388842
 H   -0.0422077994   -2.5000532616   -2.1448215583
 H    0.0938723528   -4.2777784654    0.9863414135
 H    0.1136757148   -0.7930158066    3.1473713354