15

 N   -0.0279720109   -1.1434466967   -0.0051422229
 C    0.0085325591    0.0102045911    0.0017197809
 C   -0.0002960462    1.4744880066    0.0119748706
 O    1.3278427089    1.9410804899    0.0004713466
 C    1.4477921120    3.3022212764    0.0066051564
 C    0.4579495943    4.2642983860    0.0245881758
 N    1.1015926773    5.4849804763    0.0235275916
 C    2.4557379729    5.3034708107    0.0053325267
 C    2.7103940359    3.9519261199   -0.0055533927
 H   -0.5553934541    1.8357567191   -0.8676642461
 H   -0.5357589259    1.8233945621    0.9086282670
 H   -0.6158466064    4.1986073592    0.0378022803
 H    0.6362655364    6.3743758317    0.0344245865
 H    3.1308840879    6.1436205126    0.0015599791
 H    3.6736976189    3.4691686350   -0.0204634398