17

 O   -0.1176353996    1.4003387733   -0.1150921209
 C   -0.0019321850   -0.0189245171   -0.0117870422
 C    0.4780299742   -0.6448171793   -1.3355910154
 C   -0.4476739108   -0.2767099570   -2.4902680663
 O    0.0059844651   -0.8997090915   -3.6976372738
 C    0.4377743044   -0.1086030754   -4.6973625240
 O    0.8524573636   -0.5389129863   -5.7305597406
 C    0.8603979158   -0.4136264579    1.1028575412
 C    1.6077258515   -0.7089102855    1.9966689278
 H    0.7649397593    1.7721573175   -0.0066525018
 H   -1.0242055940   -0.3654849340    0.1892612008
 H    1.4956198451   -0.2982747859   -1.5508700437
 H    0.5242963380   -1.7333202958   -1.2291742391
 H   -1.4644849261   -0.6400972098   -2.3071784908
 H   -0.4931820598    0.8109200565   -2.6114845749
 H    0.3596344021    0.9695854212   -4.4527393490
 H    2.2518871961   -0.9759788631    2.7982020928