20

 O    0.0227372920    1.4237558666   -0.2739854304
 C    0.0059265150    0.0141139221   -0.0404354913
 C    0.7402412632   -0.3763872531    1.2591399949
 C   -0.0303279123   -0.0782201818    2.5316409135
 C   -0.8144914244    1.2072849056    2.6788790769
 C   -1.5375475831   -0.1072553108    2.4629710398
 N   -2.1886690850   -0.5221035273    1.2416698667
 C   -2.5837707515    0.4346631346    0.2165611458
 C   -1.4356905881   -0.4852942053   -0.0171070413
 H    0.9332078213    1.7231927695   -0.1780911213
 H    0.5103142987   -0.4904323466   -0.8775660966
 H    0.9456082400   -1.4543968428    1.2135062403
 H    1.7214116967    0.1190784746    1.2737036222
 H    0.4254583143   -0.4853353248    3.4294956390
 H   -0.8914689887    1.6501696502    3.6664278514
 H   -0.7607127256    1.9168480082    1.8639471828
 H   -2.0571800690   -0.5012518732    3.3314702618
 H   -3.5416489588    0.2383661501   -0.2588285597
 H   -2.3497859699    1.4843221451    0.3622266384
 H   -1.5950200050   -1.3679411508   -0.6333362029