21

 C    0.0344651916    1.5558754720   -0.1282118706
 C    0.0136779313    0.0349739745    0.0186696830
 C    0.2605241944   -0.5853322752   -1.3687858228
 C    0.2654944623   -2.0845496356   -1.3664819307
 C    0.0638823218   -2.7103295517   -0.2110996845
 C   -0.1557769547   -1.8909822911    1.0179807102
 C    0.7537898930   -0.6307767732    1.2426007870
 C   -0.3659915153   -0.0969711088    2.1746664329
 C   -1.0958695637   -0.6372493496    0.9164857087
 H    1.0001519829    1.8837222905   -0.5313818082
 H   -0.7342964844    1.8775140475   -0.8410383904
 H   -0.1335036044    2.1005732138    0.8013594052
 H   -0.5022259480   -0.2109972311   -2.0686584720
 H    1.2139557572   -0.2047679704   -1.7661315669
 H    0.4321747604   -2.6127770766   -2.3007705942
 H    0.0536092828   -3.7932049394   -0.1311475919
 H   -0.3118678922   -2.4946230211    1.9152625306
 H    1.8303116902   -0.6411605251    1.4303108600
 H   -0.5260888091   -0.6671088728    3.0939529616
 H   -0.4055122626    0.9718232708    2.3778153922
 H   -2.1715837635   -0.6551985673    0.7247752008