18

 C    0.0128305819    1.4003925437    0.1862441380
 N   -0.1093400588   -0.0237402471   -0.1063860914
 C    0.6781233066   -0.4980376318   -1.2163795305
 C    2.2878876657   -0.4921086970   -1.1612645006
 C    2.2428616177   -2.0159832992   -1.2385675508
 N    1.4455893160   -2.4602321336   -0.0679975451
 C    0.7598456504   -2.0384033825   -1.3089241059
 C    0.2099286752    0.0904142575   -2.4751442157
 N   -0.1375456522    0.5513870524   -3.4764333989
 H    1.0457979950    1.7350379213    0.3807270744
 H   -0.3770183347    1.9841496989   -0.6535451463
 H   -0.5934649246    1.6337863634    1.0651858135
 H    0.1512258235   -0.5865239873    0.6972817767
 H    2.7343437124   -0.0164350780   -2.0351034410
 H    2.7127305007   -0.0793165415   -0.2437596334
 H    2.9599373726   -2.6778576029   -1.7055745301
 H    1.4412843662   -3.4791574352   -0.0562718906
 H    0.0699502562   -2.6886895511   -1.8304849722