19

 C    0.1653810897    1.6067085216    0.1691700104
 C    0.1925858354    0.0795705469    0.0536913559
 C    0.6946292214   -0.4170063996   -1.2999523849
 O   -0.0552526672    0.0739634380   -2.3787712332
 C    2.2183011477   -0.2634864193   -1.5326184902
 N    2.4097568943   -1.6592002302   -1.0690065408
 C    0.9927741865   -1.9722378465   -1.3437185713
 C    0.3354932392   -2.8627979104   -0.3909424567
 N   -0.2197576763   -3.5486765673    0.3562999455
 H    1.1689951622    2.0331155342    0.0727356804
 H   -0.4582580189    2.0545537354   -0.6095811536
 H   -0.2324288284    1.9110101946    1.1411009278
 H    0.8259789786   -0.3524497017    0.8355033567
 H   -0.8134868663   -0.3301229065    0.2216817710
 H   -0.9878770511    0.0664294440   -2.1351070425
 H    2.4212074967   -0.0993411318   -2.5982795708
 H    2.7504932204    0.4849169775   -0.9387673943
 H    3.0775116692   -2.2136307524   -1.5928238034
 H    0.7883923869   -2.3289003063   -2.3623757359