17

 C    0.0780066913    1.4113810142    0.1182465671
 C    0.0262259529   -0.0813846725   -0.0124458060
 N    0.0611558125   -0.8746466008    1.0425313033
 N   -0.0571499296   -0.6324329524   -1.2186881711
 H   -0.0828010682   -0.0184863309   -2.0167481587
 C   -0.1122394854   -2.0192974401   -1.4714471938
 C   -0.1997134076   -2.6875614584   -2.6895104190
 C   -0.2162540247   -4.0252185746   -2.2739959470
 N   -0.1451822114   -4.1363832233   -0.9350453870
 N   -0.0804808127   -2.8882662674   -0.4362027553
 H    1.0012697384    1.7160021482    0.6213044007
 H    0.0381133647    1.9042042014   -0.8549712898
 H   -0.7636415139    1.7685137960    0.7202015042
 H    0.1240707885   -0.4711731372    1.9622828045
 H    0.0157918635   -1.9393887198    0.7926799249
 H   -0.2429906914   -2.2792898796   -3.6873414800
 H   -0.2767644869   -4.9123687129   -2.8896838868