9

 O    0.0233899215    0.0058581586    0.0028943470
 C   -0.0486669825    1.1915981377    0.0102818360
 C   -1.2329399080    2.1516462483    0.0318880661
 N   -0.6502438294    3.4919582940    0.0310218689
 C    0.6019161271    3.3037923000    0.0126455938
 O    1.0822153914    2.0172311285   -0.0009512495
 H   -1.8739911739    1.9938661163   -0.8416179595
 H   -1.8495241951    1.9843698715    0.9211000676
 H    1.3677559789    4.0697609050    0.0061482296