16

 C   -0.3023875741    1.6029442467    1.1866177554
 C   -0.2432654133    0.4001446573    0.2249294995
 C    0.6443949198   -0.6556114040    0.7040933841
 C    1.3864973359   -1.5047570028    1.1198464389
 C   -1.6543076504   -0.1067337606   -0.1261642490
 O   -2.6059274534    0.6424354212   -0.1277173010
 C   -1.8451528502   -1.5579138659   -0.5307263602
 O   -3.1528905758   -1.7992261400   -0.9550949924
 H    0.6917829911    2.0387303651    1.3044792380
 H   -0.9874902030    2.3548689470    0.7926742429
 H   -0.6607206913    1.2884538912    2.1699996556
 H    0.1504354981    0.7556767064   -0.7416472649
 H    2.0398090152   -2.2604897302    1.4809514166
 H   -1.1142777844   -1.8027553149   -1.3183093752
 H   -1.5716402107   -2.1834823333    0.3343036249
 H   -3.6260560135   -0.9637618633   -0.8161300430