15

 C   -0.0309652036    1.3848280850    0.0638926246
 N    0.0007144864   -0.0637203924    0.0440654919
 C    0.5660135793   -0.6145505341   -0.9528355429
 N    1.1905102905   -0.0608613425   -2.0839673600
 C    1.6722783176   -1.0441532011   -2.9200530510
 C    1.3738195125   -2.2421131953   -2.3544447934
 N    0.6998846855   -1.9794940461   -1.1570105864
 C    1.6534819150   -3.5408393791   -2.8208197403
 N    1.8756202123   -4.6173243063   -3.1900045838
 H    0.9754363120    1.8388274208    0.0705851832
 H   -0.5794462556    1.8165374306   -0.7915303611
 H   -0.5385937884    1.7233023904    0.9705531042
 H    1.2616540629    0.9279777770   -2.2402234701
 H    2.1849012754   -0.8316433471   -3.8420266943
 H    0.3487133183   -2.6600446097   -0.5073236306