16

 C   -0.0436639376    1.5145020545    0.0129409749
 C   -0.0073461185    0.0249640545   -0.0325489506
 C   -0.0504759167   -0.8222606664   -1.0698011271
 C    0.0249444672   -2.2020552795   -0.4506698050
 C   -0.7856288894   -2.1599458293    0.8921817589
 O    0.1741564066   -3.0436467203    1.5632472821
 C    0.9944043862   -2.1130548675    0.7798899549
 C    0.0932339875   -0.8926542352    1.1786350602
 H    0.8566645886    1.9227482749    0.4898734386
 H   -0.1187636890    1.9414006294   -0.9910873336
 H   -0.8964817834    1.8765995482    0.6014109298
 H   -0.1230669919   -0.5933955373   -2.1245091721
 H    0.0109389163   -3.1095759920   -1.0516264684
 H   -1.8507155958   -2.3261282779    1.0733315206
 H    2.0810448222   -2.2225598544    0.8253073190
 H    0.1467970275   -0.4978507018    2.1925790077