18

 C   -0.0656773198    1.4441396762   -0.0480178936
 N   -0.0996307015   -0.0131741858   -0.0768678619
 C    0.5593406850   -0.6454730063   -1.1071166389
 N    1.0954436641   -0.0487809953   -2.1621411433
 C    1.5571059132   -1.1096431962   -2.8903672785
 N    2.1430977829   -0.9236572376   -4.1299193835
 N    1.3630271971   -2.3043482124   -2.3616649338
 N    0.6846381393   -1.9862958426   -1.1959950385
 C    0.2344398222   -3.0173838671   -0.2978358440
 H    0.9438710237    1.8506912050    0.0993313920
 H   -0.4432093956    1.8268564934   -0.9974736539
 H   -0.7152487969    1.7918715981    0.7587473416
 H    0.0308552212   -0.4461352351    0.8254084975
 H    2.6088595739   -0.0312910629   -4.2092242998
 H    2.7320164416   -1.6945574291   -4.4107086259
 H    1.0024500934   -3.2975886102    0.4344673602
 H   -0.6591616441   -2.6738238254    0.2312151460
 H   -0.0223909897   -3.8997740568   -0.8863088017