19

 C   -0.0352381791    1.5078777431    0.0606310526
 C    0.0089591849    0.0057307958   -0.0082536962
 C   -0.0117590017   -0.6548319553   -1.1771310286
 C    0.0013744599   -2.1277089496   -1.2706402895
 O    1.1983731828   -2.8330962977   -0.8452956774
 C    0.0347055386   -2.9278611369   -0.0289029066
 C    0.0573829971   -2.2305692177    1.2988346572
 C    1.2907494762   -1.4865221285    1.7227975533
 C    0.0606017873   -0.7060527519    1.2912877667
 H    0.8554203261    1.9048431826    0.5635206159
 H   -0.0963120975    1.9563531276   -0.9342565811
 H   -0.9000226628    1.8486021832    0.6443142147
 H   -0.0565073854   -0.0973923383   -2.1087943265
 H   -0.4427835062   -2.5602898217   -2.1657214583
 H   -0.4386518928   -3.9092028975   -0.0326377120
 H   -0.5333930591   -2.7105008333    2.0713727113
 H    1.5456669985   -1.4752599231    2.7764773397
 H    2.1268483060   -1.5137387959    1.0348047217
 H   -0.4761075827   -0.2132413145    2.0978419533