15

 C   -0.0216319033    1.4469498525    0.0073459838
 C   -0.0003049689   -0.0405502040   -0.0193906672
 N   -0.0478924859   -0.7591109836   -1.1162337521
 N   -0.0038003158   -2.0513802946   -0.6539594019
 C   -0.0094162069   -3.3484633707   -1.1307820791
 C    0.0631292801   -4.1127370587    0.0141280685
 N    0.1132359990   -3.3521180896    1.1755819597
 C    0.0695619720   -2.1317114868    0.7025375143
 N    0.0719838101   -0.8180681751    1.1202446050
 H    0.8816956385    1.8509969027    0.4771929899
 H   -0.0778097281    1.8162156439   -1.0170961342
 H   -0.8862958782    1.8240934857    0.5642845330
 H   -0.0614882486   -3.5864124215   -2.1778198648
 H    0.0824106878   -5.1907084829    0.0687302000
 H    0.1174024084   -0.4949004972    2.0698933451