21

 O   -0.0557903536    1.3907624187   -0.0629202370
 C   -0.0089798939   -0.0017366715    0.2034870534
 C   -1.3629809744   -0.5887483862   -0.1734525146
 C   -1.4392506535   -2.0888443684    0.0691391835
 O   -2.7278818822   -2.5374300973   -0.3110181638
 C   -2.9080909684   -3.9162032000   -0.1659032193
 C   -3.2555435893   -4.4654275486    1.2418613688
 O   -4.4908441323   -5.0236617346    0.7490817547
 C   -4.3217190117   -4.3886911475   -0.5359843907
 H    0.7952456508    1.7711522371    0.1727956529
 H    0.7883116414   -0.4925250280   -0.3792630062
 H    0.2013894154   -0.1971229581    1.2682352205
 H   -2.1453378384   -0.0874446408    0.4058994881
 H   -1.5634146645   -0.3820185307   -1.2299403640
 H   -0.6686755636   -2.6195412956   -0.5164192350
 H   -1.2509105249   -2.3182606755    1.1314583043
 H   -2.0999263321   -4.4709803372   -0.6637401006
 H   -2.5984746344   -5.2338272053    1.6649794783
 H   -3.4228446879   -3.6717139051    1.9826249665
 H   -5.0153741598   -3.5518558300   -0.6857730370
 H   -4.4143170626   -5.0995601152   -1.3641032129