16

 N   -0.2049528286    1.4066679901    0.3893328473
 C   -0.0389199251    0.0442224795    0.1265946506
 N   -1.0821470473   -0.7750380470    0.1259952145
 N   -0.5284594488   -2.0183197215   -0.0655377717
 C    0.8079249690   -1.9637908066   -0.1937680155
 O    1.5400499369   -3.0695387360   -0.4075264001
 C    1.1931645100   -0.6378013573   -0.0755041556
 C    2.6147422422   -0.1795072907   -0.1018815635
 O    3.4116837870   -1.0223444755   -0.9620904610
 H    0.3481301866    2.0009475188   -0.2152168528
 H   -1.1824058692    1.6659584796    0.3292359163
 H   -1.1195812184   -2.8270645507   -0.1371626383
 H    2.4420787864   -2.7478283094   -0.5855757521
 H    2.6993191960    0.8727582212   -0.4080000404
 H    3.1030715619   -0.2620572521    0.8764419809
 H    3.0846047515   -0.8938932825   -1.8603288886