16

 N    0.0629320685   -1.1415527691    0.5307507768
 C   -0.0132489370   -0.0522231948    0.1518567856
 C   -0.0849140766    1.3304116174   -0.3243155400
 C    1.3002139124    2.0040341825   -0.2858849096
 C    1.9085547869    2.9325433208   -1.3045744302
 C    0.9301605001    4.0330997285   -1.8170637210
 O   -0.3619884665    3.8435953394   -1.2195001869
 C    0.6709782210    4.4885799959   -0.4581902317
 C    1.6350944984    3.4131344349    0.1291647213
 H   -0.4937742433    1.3294967405   -1.3370220386
 H   -0.8039449201    1.8744190917    0.2919806550
 H    2.0648011746    1.3265293645    0.0870910883
 H    2.8636928817    2.7342095704   -1.7734522322
 H    0.9764878667    4.5588542415   -2.7623192041
 H    0.4590132526    5.4682861771   -0.0491429142
 H    2.3519656405    3.6335048186    0.9095523817