15

 O   -0.1745799820    0.5415556991   -1.2895889226
 C   -0.0427459237    1.3260752746   -0.3941155614
 O   -1.0816722615    1.6048614020    0.4177086429
 C   -1.0035922371    2.5757718587    1.4720235327
 C    0.0231480225    3.6423827846    1.2510574485
 C    1.0877935224    3.4167879443    0.4943943666
 C    1.2932704348    2.0505547287   -0.1264038187
 C    2.1394349005    1.2124181601    0.7259522422
 C    2.8225292881    0.5358709095    1.4465478736
 H   -2.0087097117    3.0035869358    1.5354116522
 H   -0.8169363113    2.0445548594    2.4162752519
 H   -0.1388834367    4.5929203002    1.7490182868
 H    1.8529254076    4.1666881666    0.3263261119
 H    1.7653308636    2.1364267739   -1.1107285967
 H    3.4316947945   -0.0699788275    2.0709228800