21

 O    0.3227412533    1.2753546465    0.4062792563
 C    0.1265301573   -0.0621212111    0.1143907943
 C    0.5670826357   -0.8629925453   -1.1497268817
 C   -0.2680812923   -1.8395729317   -0.2725008390
 C    0.5196828754   -1.3112461017    0.9629950010
 C   -1.2912848431   -0.6691361157   -0.0719067850
 C   -2.2929846379   -0.6463162338    1.0608299671
 C   -3.6116531593   -1.3670653287    0.9132111596
 C   -2.6022784583   -1.8506959671    1.9203705241
 H    1.2656520378    1.4276165000    0.5310533798
 H    0.1289102325   -0.5567843356   -2.1032109711
 H    1.6328607042   -1.0905629122   -1.2435412826
 H   -0.4939068438   -2.8777685324   -0.5049267761
 H    1.5842316635   -1.5629235713    0.9960921094
 H    0.0497445609   -1.4150229310    1.9403078806
 H   -1.7658470391   -0.3446933923   -1.0059015076
 H   -2.3483259150    0.3144641269    1.5669641948
 H   -4.5127163638   -0.8800457153    1.2694922144
 H   -3.7555223313   -1.9674834152    0.0199823664
 H   -2.0816928427   -2.7773271221    1.7039661389
 H   -2.8031241137   -1.6931599010    2.9747235765