20

 C   -0.1158430032    1.6078488368    0.0780353424
 C   -0.0043642505    0.0853121034   -0.0290164272
 C   -1.3695298610   -0.5927338042    0.1638037390
 O   -1.9043381902   -0.3415654067    1.4469151738
 C    0.8399594228   -0.4269565135   -1.2520124701
 C    1.9710950432   -0.9068870907   -0.2857274157
 C    1.0625460453   -0.5355579170    0.8635726392
 N    1.0140401968   -0.7426242916    2.1134473730
 O    2.1438679850   -1.4455347716    2.5691602116
 H    0.8676150503    2.0870702550    0.0461704463
 H   -0.7122097185    2.0009053278   -0.7533340646
 H   -0.6080461332    1.8840772146    1.0133891847
 H   -2.0900960507   -0.1976882596   -0.5625257999
 H   -1.2677425447   -1.6741141133   -0.0253387756
 H   -1.2312712253   -0.6177042596    2.0855249858
 H    0.3606343764   -1.2435277760   -1.7973918238
 H    1.1292889563    0.3484621232   -1.9634615535
 H    2.2511166668   -1.9624865074   -0.3317507643
 H    2.8891989676   -0.3130366010   -0.3279299392
 H    1.9807333568   -1.5075066285    3.5165327180