19

 C   -0.2047311228    1.5893444603    0.0127828357
 C    0.0226685052    0.0737121627   -0.0194245248
 O   -1.2437752134   -0.6036916991   -0.0487680247
 C    0.9008828876   -0.3999779681   -1.1713459521
 C    1.8614870640   -1.2371095223   -0.7638721163
 C    1.8882199203   -1.3791766438    0.7179855871
 C    2.1856409368   -0.0871519070    1.4623997584
 O    2.8281390395    1.0031340651    0.8767441521
 C    0.7524542094   -0.4744008013    1.2098853567
 H    0.7348510417    2.1295304905    0.1479384101
 H   -0.6727675377    1.9294970972   -0.9196484768
 H   -0.8735061531    1.8424612546    0.8403203009
 H   -1.7472221221   -0.2526113732   -0.7917493151
 H    0.7189498648   -0.0927308057   -2.1964532394
 H    2.5806196724   -1.7280737758   -1.4107505232
 H    2.1409324893   -2.3305954973    1.1723380234
 H    2.5259748595   -0.1993026762    2.4872647290
 H    2.7639014575    0.8961265558   -0.0817061884
 H    0.1257036412   -0.7528602965    2.0489261474