18

 C   -0.0315857574    1.5610603580   -0.0820071715
 C    0.0171340500    0.0387007111    0.0076989460
 C   -1.3462022118   -0.5808812617    0.3265107229
 C    0.7328706839   -0.6858939891   -1.1726894592
 O    2.0669415520   -0.2001742396   -1.2416261632
 C    1.7770379312   -1.2482875718   -0.2861724644
 C    1.1324645549   -0.5684830078    0.8866986672
 N    1.2669228303   -0.5499779978    2.1436080369
 O    2.3440268599   -1.3537098862    2.5602161995
 H    0.9410092536    1.9589686602   -0.3795152727
 H   -0.7807966473    1.8828425308   -0.8140124577
 H   -0.2995031016    1.9920272811    0.8876312851
 H   -2.0844218969   -0.2926908987   -0.4302225296
 H   -1.2946739728   -1.6741615896    0.3550997248
 H   -1.7023710923   -0.2367786063    1.3014618148
 H    0.2922610077   -1.1008936062   -2.0722625115
 H    2.3640248280   -2.1544977537   -0.3426906659
 H    2.3257071286   -1.2375953828    3.5162996186