14

 C   -0.0090664213    1.5536599483    0.0200078100
 C   -0.0204164376    0.0111243354   -0.0303596018
 C   -1.4562377855   -0.5524515985    0.0228841803
 C    0.6845790833   -0.4749114618   -1.2107198686
 C    1.2602791106   -0.8714631277   -2.1972570540
 C    1.9105589411   -1.3181240564   -3.3112015636
 N    2.4634838543   -1.6988398712   -4.2596455131
 H    1.0118663593    1.9426166300    0.0056265451
 H   -0.5475448378    1.9716114194   -0.8353290118
 H   -0.4985974492    1.8952896002    0.9365843303
 H    0.5252215384   -0.3626082417    0.8473912900
 H   -2.0405437526   -0.2012931194   -0.8324038945
 H   -1.4532937335   -1.6449901386    0.0106288192
 H   -1.9495140895   -0.2161721580    0.9394294826