20

 C   -1.2827257588    3.4173891220    1.5125768612
 C   -1.1003696472    2.0617515219    0.8187049639
 C    0.0081347450    1.2360904515    1.4557311867
 N   -0.1084774586    0.7655895712    2.8905341794
 C   -1.0024958232   -0.3990416234    2.9726544948
 C   -2.2639246614   -0.6802606614    2.1806452968
 C    0.3844617071   -0.6237722600    2.4680479616
 C    0.4677825836   -0.1751481786    1.0311392330
 O    0.8959675507   -0.6552903554    0.0214783034
 H   -0.3656303352    4.0140203386    1.4622737110
 H   -2.0845933683    3.9930826277    1.0410279824
 H   -1.5337336664    3.2862542504    2.5694084706
 H   -2.0479799728    1.5194753793    0.8179125826
 H   -0.8276634125    2.2112313169   -0.2334309238
 H    0.9316671529    1.8342991518    1.4303011080
 H   -1.1096954547   -0.6739280004    4.0214160361
 H   -2.1278994168   -0.6103622745    1.1007170906
 H   -2.5896781192   -1.7025472754    2.4002352509
 H   -3.0726048244   -0.0049014421    2.4788131900
 H    1.1339791003   -1.1868961303    3.0130104209