14

 O    0.0470713140    0.0266923327    0.5216980092
 C    0.0774916200    1.1655147000    0.1428996494
 N   -1.1116634828    1.8757551967   -0.0845839871
 C   -1.3569609779    3.2341513388   -0.0205182536
 C   -0.5165071117    4.2681538273   -0.2190840285
 C    0.8453730703    4.1840841581   -0.7346613823
 O    1.5345587080    5.1619187763   -0.9502483191
 C    1.3567897525    2.7922692591   -1.1036190708
 O    1.2258198555    1.8333156197   -0.0405180270
 H   -1.9047816689    1.2772604390    0.0949877039
 H   -2.3922228497    3.4452853799    0.2312840452
 H   -0.9012755420    5.2703384303   -0.0725002216
 H    0.8383480673    2.4284759946   -1.9999663745
 H    2.4244601553    2.8583788675   -1.3095786233