16

 C   -0.0175969122    1.5211218688    0.0481416332
 C   -0.0463011921    0.0253285400    0.0373518948
 N    1.1524681817   -0.7345390856   -0.3082020984
 C    0.5686678397   -0.9617812072    1.0309712478
 C    1.3399555826   -0.7211560385    2.2032003907
 C    1.9664040034   -0.5363333171    3.2128496160
 C   -0.6939548018   -1.8150891174    0.9264789636
 O   -1.8306909950   -1.0164317076    1.2782930600
 C   -1.2800556978   -0.8717630403   -0.0381327215
 H    0.9511396759    1.8768936013    0.4062722196
 H   -0.1768789865    1.9226335942   -0.9588912468
 H   -0.8027544377    1.9099806828    0.7028849505
 H    0.9584443862   -1.5166695798   -0.9318140274
 H    2.5233444502   -0.3679594813    4.1011933080
 H   -0.7922584192   -2.8909396920    1.0101082203
 H   -1.9376230171   -1.0578703606   -0.8796148303