19

 C    0.2054704964    1.5225349744    0.1639180306
 C   -0.0347738294    0.0195345185   -0.0589336391
 C    0.6672102518   -0.5172457490   -1.2696547167
 C    0.1344533346   -0.9671434985   -2.4363582040
 O    1.0940955739   -1.3670614994   -3.3078270115
 C    2.2998110872   -1.1720871834   -2.6907826220
 C    2.0899920725   -0.6556372527   -1.4460426437
 O    2.9725555758   -0.3083319075   -0.4794773988
 C    4.3341952571   -0.5169845095   -0.8065827743
 H    1.2733050041    1.7283068780    0.2776446127
 H   -0.1627969119    2.1068226535   -0.6851379634
 H   -0.3080545440    1.8694917027    1.0662207640
 H    0.3039153234   -0.5295153693    0.8284350865
 H   -1.1091460655   -0.1748382951   -0.1524152995
 H   -0.8827151298   -1.0652590407   -2.7804110203
 H    3.1726844218   -1.4450556137   -3.2559545155
 H    4.9198425432   -0.2014428559    0.0580717872
 H    4.5311915291   -1.5771410980   -1.0158291637
 H    4.6253670795    0.0776389953   -1.6831407785