22

 C    0.9306937626    0.4855948333    1.2289992888
 C    0.0737164475   -0.1988039036    0.1558739889
 C    0.8481245212   -0.5710760680   -1.1162626656
 C    0.7675789133    0.4278858257   -2.2673272814
 C    1.3137699942    1.8271416524   -1.9528213272
 N    2.1093959276   -1.2781038162   -0.9017465248
 C    1.0010473128   -2.0133243181   -1.5457370252
 C    0.4499922941   -3.1555141801   -0.7666347357
 O   -0.1918090227   -4.0515493240   -1.2570849496
 H    1.7711990790   -0.1558021310    1.5051828799
 H    1.3395796277    1.4392964297    0.8840372757
 H    0.3345944290    0.6831907931    2.1250981157
 H   -0.3829946373   -1.0905659538    0.5939345608
 H   -0.7627285914    0.4494147349   -0.1306743104
 H    1.3133792838    0.0146491143   -3.1249900345
 H   -0.2796211800    0.5115188783   -2.5846234036
 H    2.3533000482    1.7856467407   -1.6110761672
 H    1.2812668843    2.4556721332   -2.8479085013
 H    0.7263589016    2.3283739435   -1.1785468755
 H    2.8043653062   -1.0169123821   -1.5971728526
 H    1.0293447581   -2.1950233563   -2.6177963909
 H    0.6891308103   -3.1287514558    0.3185779756