18

 C    0.0149233493    1.5609984845    0.0218070762
 C    0.0570490088    0.0490271875    0.0169905673
 N   -1.1684387425   -0.5331815688   -0.4805460196
 C    1.3337344908   -0.7103495587   -0.2228175923
 N    2.4959028701    0.0197072724    0.3020236860
 C    1.9543701740   -0.0975576593    1.6961386838
 C    0.6597375095   -0.7476119595    1.1796614125
 C   -0.0432428219   -1.7855392982    1.8490201847
 N   -0.6119883414   -2.6440995150    2.3813248291
 H    0.9876568146    1.9902806437    0.2638401320
 H   -0.2647184399    1.9171550620   -0.9763665439
 H   -0.7396935472    1.9195722792    0.7266551857
 H   -1.2371630156   -0.4006664219   -1.4851760126
 H   -1.2290214106   -1.5288567858   -0.2939702136
 H    1.4159074342   -1.4997710465   -0.9621548116
 H    3.3470773844   -0.5225509081    0.2047939369
 H    2.5238062125   -0.7934851165    2.3169882722
 H    1.8539838609    0.8580826090    2.2195410471