13

 O   -0.2281857740    0.3555944070    0.7094160546
 C   -0.0371587668    1.3874670411    0.1626380516
 O   -0.9724998919    2.2082462498   -0.4443814622
 C    0.0395295157    3.2136210130   -0.7922448005
 C    1.1414595439    2.3496306787   -0.1582434781
 O    1.7050322497    3.0342041245    0.9388598926
 C    0.7928535050    4.0348045925    1.3836064543
 C   -0.0645656246    4.4068454667    0.1675054815
 O   -0.6789235787    5.4215784283   -0.0025350641
 H    0.0242361586    3.4589477998   -1.8519288531
 H    1.9387588064    1.9307492772   -0.7715129550
 H    0.1440740447    3.6651443292    2.1926067592
 H    1.3586440219    4.8915642423    1.7549869993