17

 C    0.2334795037    0.5911212677    0.5488914517
 O   -0.4485049397    0.3161213475   -0.6604763883
 C   -1.6030194736   -0.4844782599   -0.4979119553
 C   -1.2890272997   -1.9336208307   -0.2734705348
 N   -1.2425464906   -2.8405997049   -1.2474168763
 N   -0.9014692087   -3.9339927574   -0.5817713421
 C   -0.7261745064   -5.2291804608   -1.2087752223
 N   -0.7427983849   -3.7429624153    0.7229729594
 N   -0.9892369270   -2.4752850181    0.9343872296
 H    1.0766763134    1.2369677961    0.2931276244
 H   -0.4175276093    1.1175132060    1.2639217747
 H    0.6087018625   -0.3194419820    1.0332007552
 H   -2.2176381192   -0.1201135763    0.3385122790
 H   -2.1744751865   -0.3899280469   -1.4243294319
 H    0.0614072035   -5.1699000484   -1.9625909564
 H   -0.4480381405   -5.9334026377   -0.4259168512
 H   -1.6596204370   -5.5395442791   -1.6827123154