16

 C    0.0267465555    1.5251227232    0.0046400240
 C   -0.0181712657    0.0240022797    0.0309758184
 N    0.4410090976   -0.7682738772   -1.1771009318
 C   -0.3218733247   -1.9316945713   -0.5972301206
 C    0.4443903933   -2.1625674848    0.7155588039
 O    1.7549023653   -1.5992185589    0.7560117155
 C    0.6592248544   -0.7788697322    1.1612250785
 C   -1.3321293295   -0.8238946107   -0.1413587114
 O   -2.4998549113   -0.6026570273   -0.2330701125
 H    1.0491270024    1.8805826075   -0.1550919431
 H   -0.6132312463    1.9263678288   -0.7872763147
 H   -0.3308004891    1.9307006045    0.9562190715
 H   -0.0695843904   -0.4263272331   -1.9922650234
 H   -0.5766261099   -2.7648406230   -1.2471238366
 H    0.2409669544   -3.0110886836    1.3577145701
 H    0.6437838041   -0.4327509616    2.1885835522