14

 O    0.0053006287    1.3491342317   -0.0751908530
 C    0.0323896948   -0.0227765477   -0.0554656710
 C    1.1068813575   -0.8617664816   -0.7505529492
 C    0.8703740135   -2.2820999066   -0.1888595537
 C   -0.2651863647   -2.1801900772    0.7817560036
 N   -0.5256258053   -2.3170031961   -0.6931622064
 C   -0.3175414023   -0.8959589333   -1.2316810725
 C   -0.4053679308   -0.7481654577    1.1766529012
 O   -0.7733843103   -0.2253815293    2.1987916871
 H   -0.2845947169    1.6121853899    0.8118527884
 H    1.9940346869   -0.4421106663   -1.2009306295
 H    1.5329315495   -3.1380564959   -0.2560257448
 H   -0.5889340552   -2.9988736971    1.4091415392
 H   -0.7906635253   -0.5745938029   -2.1490634694