13

 N    0.2023808227    1.2995728653   -0.3648696108
 C    0.1105321294   -0.0548663100   -0.1435903331
 N   -1.0156675418   -0.6902798717    0.0661105739
 O   -0.6552058544   -1.9979059706    0.3261749066
 N    0.6878752888   -2.1651396014    0.2555488973
 C    1.1878002938   -0.9943729253   -0.0206045145
 C    2.6691853110   -0.7728807501   -0.1295745471
 C    3.0129358310    0.0616048506   -1.2828786022
 N    3.2332825144    0.7565827162   -2.1793676434
 H    0.9233997921    1.5775095089   -1.0179700683
 H   -0.6870098770    1.7371273123   -0.5633606080
 H    3.0493204387   -0.2770346569    0.7726838226
 H    3.1739447614   -1.7401265873   -0.2048819131