18

 C   -0.1483199962    1.5346363773    0.0441140730
 C    0.0649481194    0.0393676045   -0.0025527337
 C    0.0941607896   -0.6000974232   -1.1914805154
 C    0.0882883035   -2.0576828650   -1.4872348703
 O   -0.4443557388   -2.4787754195   -2.5041037001
 N    0.6761114679   -2.9052189145   -0.5856882779
 C    1.5695297320   -2.4948057503    0.4867372004
 C    0.8427401906   -1.7355204582    1.5675917729
 C    0.1749992644   -0.6063906265    1.3084518033
 H    0.6700100455    2.0315996152    0.5785448327
 H   -0.2203713958    1.9651214418   -0.9566628813
 H   -1.0700279140    1.7749433244    0.5884285187
 H   -0.0532821821   -0.0180508648   -2.0962489274
 H    0.6447436137   -3.8769910129   -0.8547130001
 H    2.0300451257   -3.3966836158    0.8947380151
 H    2.3826056846   -1.8711833931    0.0838569434
 H    0.8733631482   -2.1247822019    2.5807968199
 H   -0.3019793981   -0.0791575874    2.1322038868