17

 C   -0.0583624012    1.5686080912    0.2400133188
 C   -0.0000918307    0.0488281178    0.1143851205
 O    0.7172516733   -0.5680155759    1.1713993200
 C   -1.3987352412   -0.5713570777    0.1953213495
 O   -2.4245565427    0.0226384426    0.0095641588
 C    0.6239998331   -0.4177663338   -1.2493933852
 O   -0.0759146289    0.0757063533   -2.3736747064
 C    2.0538939223   -0.0889448017   -1.2748867365
 C    3.2160187413    0.2236331544   -1.2662361601
 H    0.9295921048    2.0100465058    0.0768480283
 H   -0.7709327788    1.9864242431   -0.4751998725
 H   -0.3991722598    1.8365898691    1.2424479740
 H    1.6507225429   -0.3470917341    1.0586690341
 H   -1.3723552190   -1.6536527204    0.4516786077
 H    0.5185134809   -1.5085135819   -1.2933661568
 H    0.1016308221    1.0195749285   -2.4513279985
 H    4.2477953817    0.4780789895   -1.2869411056