16

 N    0.2361947652    1.4137843573   -0.0738690149
 C    0.0467115419   -0.0027638811   -0.0594708006
 C   -1.1029961558   -0.7648469756   -0.0953631934
 N   -0.7277880054   -2.0805733032   -0.0591119888
 C    0.6428270505   -2.1959501598   -0.0002086740
 C    1.1440646568   -0.9133558470    0.0005412193
 N    2.4669162951   -0.4698826042    0.0486844758
 C    3.5719573549   -1.2568533371    0.1071465764
 O    3.5677266551   -2.4720698907    0.1260355932
 H   -0.1481063807    1.8351272748   -0.9133663185
 H   -0.2174052567    1.8609553360    0.7162234102
 H   -2.1402073246   -0.4745192306   -0.1431690103
 H   -1.3609971026   -2.8596185402   -0.0729401241
 H    1.1473851026   -3.1432632796    0.0357774602
 H    2.5680522779    0.5361716083    0.0371817886
 H    4.5001252256   -0.6535657174    0.1364110809