19

 C    0.1449890149    1.4387885268   -0.3104630003
 C    0.0603077649   -0.0408574593    0.0841138036
 O    0.6560928523   -0.2594120708    1.3623189742
 C   -1.3502502151   -0.5729796748    0.0387685007
 C   -2.0254743872   -1.1440692682    1.0962297101
 N   -3.2847403799   -1.4727503131    0.6791325911
 C   -3.4325404082   -1.1468244854   -0.6520776149
 C   -2.2492180906   -0.5837197388   -1.0773180213
 N   -1.9713500018   -0.0418127524   -2.3558534616
 H    1.1864274694    1.7734272477   -0.3000633705
 H   -0.2835790262    1.6059951132   -1.3020651685
 H   -0.4274541181    2.0480917101    0.3996090601
 H    0.6946980581   -0.6186013310   -0.6038146314
 H    0.2086100267    0.3290149437    1.9810239513
 H   -1.6879283617   -1.3586690596    2.0962723609
 H   -3.9858815241   -1.9139550417    1.2454544684
 H   -4.3551540817   -1.3314149744   -1.1788059035
 H   -2.7066313037   -0.2589333372   -3.0181645611
 H   -1.1000133079   -0.3967241149   -2.7353772673