18

 C    0.3820237966    1.2992460189   -0.1347200356
 N   -0.0292218314   -0.0894392785    0.0310544782
 C    0.5508355313   -0.6703980924    1.2333177799
 C   -1.4810238468   -0.2407156081    0.0007295560
 C   -2.0263041348   -0.0809568955   -1.3849424530
 C   -1.4918936138   -0.3910303280   -2.5959477400
 O   -2.3700781250   -0.0945611215   -3.5505158979
 N   -3.5209347309    0.4294448822   -2.8832709980
 N   -3.2828563880    0.4232886513   -1.6485511576
 H    1.4724933369    1.3531295558   -0.2055530219
 H   -0.0402473717    1.7093494360   -1.0555996285
 H    0.0601114924    1.9434627310    0.7050952918
 H    0.2171803246   -0.1732876378    2.1637735384
 H    0.2880340434   -1.7305729570    1.3011643092
 H    1.6412009072   -0.5922733601    1.1857651850
 H   -1.7211439978   -1.2461779100    0.3673894786
 H   -2.0061083530    0.4654448471    0.6699726613
 H   -0.5414299793   -0.7982762133   -2.8960433860