24

 C   -0.4013557966    1.8275369235   -0.1025999441
 C   -0.2075210567    0.3101710147   -0.0371757055
 C   -1.5286045666   -0.4645670936   -0.0790996960
 C   -1.3214737742   -1.9822636242    0.0032183413
 N   -2.5675218986   -2.7445670210   -0.0621713485
 C   -3.0358167577   -3.1127652942   -1.3834568132
 C   -3.2312521693   -2.9905966259    1.1129873898
 C   -4.5241762525   -3.7946818055    1.0488066971
 O   -2.7991270590   -2.5863318865    2.1820396704
 H    0.5570956071    2.3548419010   -0.0676143413
 H   -0.9103469086    2.1223905064   -1.0271202256
 H   -1.0089685146    2.1835308336    0.7364663128
 H    0.4331631603   -0.0137975692   -0.8687585549
 H    0.3333888216    0.0492334508    0.8817209396
 H   -2.1648305413   -0.1616846022    0.7602101514
 H   -2.0728347276   -0.2120425428   -0.9994286041
 H   -0.6774443000   -2.3230969448   -0.8169392875
 H   -0.8332907541   -2.2312091675    0.9476923911
 H   -3.9838576473   -3.6440318462   -1.3290154895
 H   -3.1845447669   -2.2255795264   -2.0129004576
 H   -2.3093973439   -3.7628350335   -1.8890861823
 H   -4.3797293619   -4.7750303623    0.5842862597
 H   -4.8648363074   -3.9330698188    2.0742571526
 H   -5.3031869640   -3.2692620454    0.4867672745