20

 C    0.0013605580    1.4012110107   -0.0212338009
 O    0.0405481428   -0.0046027550   -0.0216689138
 C    0.6300105496   -0.5374550959    1.1474728837
 C    0.6600982160   -2.0605023191    1.0164020826
 C    1.5130469574   -2.5552007945   -0.1404756364
 C    2.4358217062   -3.4385250694    0.2460029004
 C    2.3855088896   -3.6366904642    1.7248603396
 N    2.6996340158   -2.3834965730    2.4747625922
 C    1.2896236713   -2.7623211293    2.2207827530
 H    1.0100051365    1.8393570054    0.0430695326
 H   -0.4623467328    1.7179501450   -0.9589495013
 H   -0.5942570673    1.7939015307    0.8188597208
 H    1.6533895161   -0.1582201782    1.2820596350
 H    0.0453742897   -0.2441142608    2.0370392715
 H   -0.3783949571   -2.3973011742    0.8897648126
 H    1.3744952417   -2.1753437927   -1.1450864630
 H    3.1597378919   -3.9250480453   -0.3967356042
 H    2.6315945090   -4.5885519992    2.1832202924
 H    2.9198191629   -2.6305773624    3.4386961728
 H    0.6684779729   -3.0411305887    3.0652677604