18

 C   -0.0256233021    1.5821471904   -0.1049357015
 C   -0.0223266068    0.0513826570   -0.0378578027
 N    0.6621598882   -0.5924672056   -1.1596964199
 C    2.1140310007   -0.6471797657   -1.1676401574
 C    0.0112565557   -0.7928802223   -2.3286133249
 C    0.4708551492   -1.1987688961   -3.5737913557
 N   -0.6229004524   -1.2796561002   -4.3780462849
 N   -1.6844664471   -0.9728960282   -3.8101057194
 O   -1.2966423712   -0.6188893986   -2.3805465310
 H    0.9920433323    1.9849722996   -0.1185227504
 H   -0.5473060455    1.9275968932   -1.0017202886
 H   -0.5394524560    1.9952847905    0.7685830081
 H    0.4713874353   -0.2890475565    0.8785441497
 H   -1.0470860571   -0.3250623394   -0.0144291992
 H    2.4516728012   -1.5449500835   -1.6939420369
 H    2.5730720193    0.2287662370   -1.6465703444
 H    2.4711530773   -0.7065577415   -0.1372051626
 H    1.4626880789   -1.4194689200   -3.9227280081