19

 C    0.0002705427    1.4552900514   -0.0229399216
 C   -0.0075614440   -0.0004259149   -0.0047762169
 C   -0.0188692521   -1.2060594781    0.0059949729
 C   -0.0027183538   -2.6380761995    0.0395472947
 C   -0.4459533967   -3.4102318855   -1.1909627429
 C   -1.2988442869   -3.4713362869    0.0532970477
 C   -1.0143576750   -4.6163181196    0.9630114837
 C    0.2327342005   -4.5805800791    1.4374006337
 C    0.9839617531   -3.3485147988    0.9841450337
 H    0.9483498221    1.8504173413    0.3592067562
 H   -0.1302583299    1.8433004585   -1.0395757137
 H   -0.8027931848    1.8720017387    0.5959072936
 H   -0.8057741987   -2.8120656306   -2.0205587392
 H    0.1101461969   -4.3007511315   -1.4671422880
 H   -2.2713497284   -2.9927184675    0.0466072707
 H   -1.7434805611   -5.3923017066    1.1669501605
 H    0.6867699752   -5.3365533564    2.0678874097
 H    1.9278955522   -3.5926241115    0.4809867336
 H    1.2411120288   -2.6990714935    1.8302098316