17

 C   -0.1685651704    1.5723320391   -0.0657667258
 C    0.0778062618    0.0815536806    0.0186380551
 O    1.1423400133   -0.4084716938   -0.8526081753
 C    1.7482730946   -1.1697761212    0.2002671296
 C    2.9050841876   -0.4616221534    0.9699995299
 O    2.6093466946    0.9343030285    1.0107245623
 C    1.9441843549    0.0940899690    1.9477794406
 C    0.7461525740   -0.6018094508    1.2446193003
 O   -0.0047832984   -1.3336147242    2.1540180365
 H    0.7414477615    2.1312811200    0.1491639128
 H   -0.5202888946    1.8393141940   -1.0674883244
 H   -0.9482088584    1.8566430414    0.6497979960
 H   -0.8532326625   -0.4625431474   -0.2182214510
 H    1.8779425407   -2.2338137681   -0.0138069278
 H    3.9451381633   -0.7500179260    1.0724017359
 H    2.0346531840    0.3223086601    3.0037547255
 H   -0.6153218861   -1.8987232978    1.6676833298