23

 C   -0.0323458641    1.5734725044    0.0640999429
 C    0.0291493580    0.0389517849    0.0560775261
 C    0.7686249277   -0.4687848811    1.3030246609
 C   -1.3686487908   -0.5909165555   -0.0706262286
 C   -2.1648715023   -0.1583236246   -1.3295391939
 C   -3.2788561022   -1.2051561367   -1.4670586077
 C   -2.6863857985   -2.4901544327   -0.8795501542
 O   -3.1640294215   -3.5918735771   -0.9640921581
 C   -1.3813944245   -2.1289412821   -0.1635955082
 H    0.9705979763    2.0012079539    0.1620429103
 H   -0.4744856313    1.9728472839   -0.8529834482
 H   -0.6293030837    1.9363270016    0.9097663319
 H    0.6056273043   -0.2720943181   -0.8288195423
 H    0.8909193703   -1.5556924940    1.2929231662
 H    1.7660295697   -0.0228395496    1.3738022064
 H    0.2226079377   -0.2023085512    2.2162625184
 H   -1.9539861129   -0.2972711043    0.8142913054
 H   -2.5478349933    0.8618138289   -1.2566121065
 H   -1.5045279016   -0.1950331816   -2.2061090995
 H   -4.1504129924   -0.9399749708   -0.8535670837
 H   -3.6452002804   -1.3696430383   -2.4832402112
 H   -0.5549679423   -2.4830102683   -0.7976454796
 H   -1.3018333322   -2.6600822213    0.7872650532