17

 O   -0.0241397201    1.3301310494    0.2910721402
 C    0.0541243172   -0.0517784275    0.1204075839
 C    1.0267485138   -0.4921799548   -0.9258297545
 C    1.3567298560   -0.7445986194    0.5436146534
 C    2.3499644158    0.0425018213    1.2111497558
 N    3.1174256806    0.6968690150    1.7791365823
 C   -1.2358336081   -0.7949840318    0.3128891603
 C   -2.2473174134   -0.3145444075    1.2860478038
 N   -2.4873282805   -0.1949393404   -0.1630314930
 H    0.1352572559    1.5465823149    1.2175181454
 H    0.7949935275   -1.3640990473   -1.5263543076
 H    1.5839592373    0.2910403190   -1.4243657801
 H    1.2749947832   -1.7656845590    0.9011703999
 H   -1.1580138190   -1.8648045087    0.1270218749
 H   -2.8810636970   -1.0286999922    1.8032526910
 H   -2.0299936323    0.5908182798    1.8457059593
 H   -2.2957166070    0.7653353793   -0.4442994449