21

 C   -0.1473147990    1.5084806391   -0.0417551020
 O   -0.0650050667    0.1149372984   -0.2143648523
 C   -1.2844616271   -0.5427023669    0.0548483315
 C   -1.0647658116   -2.0415208588   -0.1232837958
 C   -2.3352962751   -2.8531061409    0.1099969070
 C   -2.2808617622   -4.4158269319    0.0792085859
 C   -3.1061466488   -4.4867370748    1.3994678563
 C   -2.8732492200   -2.9749398040    1.5497103142
 O   -2.9588074560   -2.2057040715    2.4643538272
 H    0.8378380318    1.9258965128   -0.2647099215
 H   -0.8867157271    1.9629183621   -0.7211266710
 H   -0.4229458774    1.7779615780    0.9901566482
 H   -1.6294573579   -0.3289221178    1.0781631262
 H   -2.0719933271   -0.1878461821   -0.6347319199
 H   -0.6872920014   -2.2269868793   -1.1359100689
 H   -0.2810592597   -2.3668182686    0.5711503972
 H   -3.1446062376   -2.4869392009   -0.5370338201
 H   -2.7241242899   -4.8938739079   -0.7949021215
 H   -1.2620829339   -4.7892576934    0.2080666692
 H   -4.1649185273   -4.7172347372    1.2416919527
 H   -2.7336333961   -5.1133655945    2.2133426873