17

 O    0.1313467055    1.3582540212   -0.0588096052
 C   -0.0003293508   -0.0407310817    0.0345584247
 C   -0.6692524257   -0.6375920860    1.2493094831
 C   -1.4051564446   -0.5888291737   -0.0602347692
 C    1.0818949669   -0.8657521978   -0.6294732276
 O    1.1182667183   -2.0702639368   -0.5315025760
 N    1.9675420480   -0.0809504408   -1.3524623140
 C    3.0663990659   -0.4649728692   -2.1133843546
 N    3.4986729548   -1.6525652597   -2.2048082830
 H    0.6216078931    1.6623347464    0.7133617453
 H   -0.2887361789   -1.5947951560    1.5843678794
 H   -0.9705673342    0.0600265522    2.0232405163
 H   -2.1871360429    0.1520757527   -0.1764303825
 H   -1.5315979802   -1.5149656720   -0.6073879307
 H    1.7261604290    0.8998234259   -1.3575813821
 H    3.5027032477    0.4096107478   -2.6139843640
 H    4.3116508181   -1.6714714823   -2.8189526298