17

 N   -0.3643119994    0.9623361119    0.8373091757
 C   -0.1985504023   -0.3103944777    0.3112621180
 O    0.6305423490   -1.0950317196    0.7313922801
 N   -1.0691241468   -0.5984973624   -0.7263707266
 C   -1.1928576732   -1.9786758332   -1.1848482166
 C   -2.4342852465   -2.6226328228   -0.7587498316
 C   -3.4813175189   -3.1178672471   -0.4256194569
 C   -4.7075492798   -3.7623312660    0.0436732387
 O   -4.8635108900   -3.7228068161    1.4547456406
 H    0.4114127742    1.2467923663    1.4157838291
 H   -0.7081123243    1.6854786856    0.2234764701
 H   -1.9105632129   -0.0448023139   -0.7832871422
 H   -1.1205457635   -2.0146832484   -2.2792392443
 H   -0.3233220292   -2.5059631263   -0.7806420236
 H   -5.5866196602   -3.2529460235   -0.3669781113
 H   -4.7365984400   -4.7965046648   -0.3362756584
 H   -4.0407396361   -4.0374776819    1.8440125792