19

 C   -0.2819960115    1.6176466429    0.1482714373
 C    0.0197158864    0.1460987186   -0.0237825883
 C    1.3888204545   -0.3464790435   -0.4142492744
 O    2.4412634915    0.5695260643   -0.2672733556
 C    2.9179834082    0.5491186477    1.0818672011
 C    1.7921604507   -0.0496367695    1.9533066196
 C    1.1226861939    0.9382327339    2.8948735412
 O    1.5303897401    2.0421436235    3.1486685174
 C    0.8452926579   -0.7060209980    0.9423071063
 H    0.6041067691    2.1848162768    0.4380467211
 H   -0.6404187245    2.0358870497   -0.7982468065
 H   -1.0602716540    1.7864419162    0.9000505376
 H   -0.7948442313   -0.4224147623   -0.4680958385
 H    1.5336641797   -1.0690137530   -1.2121520986
 H    3.8288733696   -0.0614235100    1.1445930097
 H    3.1559710117    1.5724761437    1.3825831877
 H    2.1849567412   -0.8384497212    2.6102624513
 H    0.1976148156    0.5443564480    3.3743143697
 H    0.4932442212   -1.7079444379    1.1560765817