18

 C   -0.1263504017    1.4443610067    0.0281105328
 C    0.2259723001   -0.0360828533   -0.0672921615
 N    0.6978511766   -0.5305779916    1.2217972733
 C    0.8855827340   -1.8634222120    1.4470615380
 N    1.6293536216   -2.4003797278    2.3732621725
 C    1.4121318599   -3.7651629063    2.2205420537
 N    2.1119390851   -4.6573340317    3.0263455769
 C    0.5458596645   -3.9847456584    1.2010170604
 O    0.2015537465   -2.7287088337    0.6834894682
 H    0.7496878641    2.0441802268    0.3006767921
 H   -0.4904999706    1.8111014383   -0.9354838014
 H   -0.9009737468    1.6126483787    0.7815796991
 H   -0.6570774284   -0.6187115685   -0.3421079593
 H    0.9723349774   -0.1970929982   -0.8609352094
 H    1.3943886115    0.0342061780    1.6857564874
 H    2.3667619605   -4.2324213018    3.9080122359
 H    1.6367193079   -5.5367682202    3.1732185653
 H    0.1131579979   -4.8382116249    0.7141355159