18

 O    1.0295668242    1.0364941378    0.3902269045
 C    0.4233186813   -0.1771996823    0.1359148748
 C    0.4846851664   -1.0627881217   -1.1507595606
 C   -0.5228033344   -1.7546996688   -0.1861090032
 C    0.5014959431   -1.5054087492    0.9584931633
 C   -1.1178953595   -0.3333464281    0.0717015665
 C   -1.9818468185   -0.0189839109    1.2986594144
 C   -3.3413265446   -0.5374630416    1.1516280781
 N   -4.4099990358   -0.9564843700    1.0173690826
 H    1.9851098499    0.9140038163    0.3896001452
 H    0.0751225081   -0.6286780860   -2.0660451521
 H    1.4206990747   -1.5970442635   -1.3323310069
 H   -1.0807199927   -2.6672257196   -0.3769850933
 H    1.4399459532   -2.0619202170    0.8879789680
 H    0.1352365747   -1.4977784868    1.9858804620
 H   -1.5720978772    0.1202398208   -0.8145698731
 H   -1.5583674571   -0.4230560270    2.2222848569
 H   -2.0365589358    1.0678245875    1.4313787629