17

 C   -0.6065431681    1.1686089932    0.2372377769
 C    0.2571328141   -0.0601334928    0.0474847639
 C    0.9155968459   -0.2927152917   -1.3299392788
 C    2.2559344347   -0.2452327569   -0.5444200062
 O    1.5574541571    0.0761927593    0.6840248325
 C    3.0111883636   -1.4841520554   -0.4744277123
 C    3.6469804236   -2.5135590354   -0.4259491089
 C    4.3543858688   -3.6739291130   -0.3735698608
 C    4.9831773039   -4.7039703918   -0.3288943254
 H   -0.1124914143    2.0584874884   -0.1652085467
 H   -1.5685846638    1.0413914165   -0.2714650204
 H   -0.8027008439    1.3357069047    1.3009229769
 H   -0.2565832836   -0.9507536883    0.4332552498
 H    0.6938923385   -1.2383354222   -1.8231069361
 H    0.7930354589    0.5312593600   -2.0351477336
 H    2.9264102950    0.5741286157   -0.8333933445
 H    5.5352790195   -5.6099495303   -0.2879467864