19

 C    0.0575367889   -1.1903276594    0.0385217970
 C    0.0053074210    0.0043829758    0.1620602795
 C   -0.0206122105    1.4567757271    0.3014004559
 C    1.3704617921    2.0799087097    0.1035211682
 C    1.9780390999    2.1276609130   -1.3516754935
 C    1.0910601632    3.3993351482   -1.5837668339
 C    1.4642305430    3.6452800250   -0.0808225708
 C    2.9869311627    3.7894063904   -0.2067908434
 C    3.3222077004    2.7975612551   -1.0384244434
 H    0.0903652889   -2.2462166090   -0.0666432634
 H   -0.7532786408    1.8737008668   -0.3976488805
 H   -0.3794974491    1.7183854195    1.3061281224
 H    2.0504186278    1.6719359742    0.8557248121
 H    1.9575284572    1.2638557657   -2.0149479314
 H    1.4563554623    4.1307066545   -2.3075885446
 H    0.0334983935    3.1887064780   -1.7619909611
 H    0.9193424340    4.3427856371    0.5561942271
 H    3.6037933433    4.5259760909    0.2879756645
 H    4.2905851520    2.4972202874   -1.4123779309