16

 O    0.0603285882    1.3952410922   -0.0733418395
 C    0.0531528155   -0.0080132806    0.0590006398
 C   -1.3691511105   -0.5621494998    0.0671587158
 O   -2.0125034331   -0.2426814423   -1.1894430765
 C   -2.4174263006   -1.3835840298   -1.8176173018
 N   -3.0038482276   -1.4861711815   -2.9284152899
 N   -2.0691680531   -2.4571991037   -1.0093352861
 C   -1.4312623985   -2.0766492775    0.1540913970
 N   -0.9544934295   -2.7451043897    1.1201385025
 H   -0.3763408743    1.6047713780   -0.9065629351
 H    0.6263484541   -0.5030151226   -0.7404068559
 H    0.5240801616   -0.2546417062    1.0140419312
 H   -1.9446988010   -0.0912244004    0.8700162672
 H   -3.1599170797   -0.5693625055   -3.3407094674
 H   -2.2729582364   -3.4022255480   -1.2896452142
 H   -1.0790339850   -3.7503908725    0.9966781429