21

 O    0.0562512086    1.4932987211   -0.1933579288
 C    0.1199555113    0.0766492068   -0.1168498050
 C   -1.2911680701   -0.4840121043    0.0382597894
 C   -2.1125051289    0.1766231338    1.1902173193
 C   -2.9106416362    0.9927110582    0.1386402791
 C   -2.3173375724    0.1053572220   -0.9873786173
 C   -1.2036121149   -1.9934530308    0.0438917299
 C   -1.0916452992   -2.7948855644    1.2697625402
 O   -2.3242054237   -2.7216576189    0.5482393376
 H    0.9504157370    1.8301091283   -0.2966447076
 H    0.5814622873   -0.3433216318   -1.0268025991
 H    0.7326878990   -0.2436621777    0.7420481315
 H   -2.7335068151   -0.5582472730    1.7069058001
 H   -1.5366350150    0.7499665742    1.9198425035
 H   -3.9978576102    0.9819725307    0.2421759790
 H   -2.5670732712    2.0256289549    0.0710321657
 H   -1.8904705844    0.6265447224   -1.8468243151
 H   -3.0158643365   -0.6577333080   -1.3404981315
 H   -0.7890476293   -2.4238360374   -0.8717287498
 H   -0.5924059087   -3.7624208115    1.2454971926
 H   -1.0925051772   -2.2958725146    2.2377349162