16

 C    0.0131169778    1.4746768165    0.0643483961
 C    0.0099767666    0.0225495151    0.0017222674
 C    0.0199778084   -1.1813037591   -0.0529477156
 C   -0.0077373160   -2.5971802850   -0.1085839717
 N    1.0837743122   -3.2938617688   -0.3780033784
 O    0.6863803633   -4.6235232756   -0.3489251244
 C   -0.6286117583   -4.7049902905   -0.0645255290
 C   -1.2176349243   -6.0689951521    0.0053443605
 C   -1.1318540912   -3.4548319476    0.1001680198
 H    1.0115403844    1.8742945080   -0.1423693949
 H   -0.6780827882    1.9042740468   -0.6691822511
 H   -0.2908491365    1.8290428359    1.0555180806
 H   -0.7227013151   -6.6698188704    0.7752219535
 H   -2.2813188348   -6.0077934849    0.2419779918
 H   -1.1016550631   -6.5945382954   -0.9480640538
 H   -2.1425359453   -3.1671573228    0.3339603893