19

 N   -0.1686087254   -1.1346906763   -0.2736211526
 C   -0.0924075312    0.0156517192   -0.1887025150
 C    0.0158501045    1.4738222863   -0.0983221235
 N   -0.2792715052    2.0500704344    1.2305598611
 C    0.8547180984    3.0096559869    1.1091177263
 C    1.8623075407    3.0003465711    2.2758228743
 C    3.1152095508    2.2981065913    1.6999268228
 C    2.5686686825    1.3286654107    0.6318999538
 C    1.4334606671    2.1237112050   -0.0343567737
 H   -0.5710278121    1.9060416254   -0.9204217286
 H   -1.2057947565    2.4493585663    1.3304144377
 H    0.5499575505    4.0171451498    0.8034560666
 H    2.0860048969    4.0032003328    2.6503071284
 H    1.4356741770    2.4218720856    3.1003488492
 H    3.7698724735    3.0390751789    1.2249301262
 H    3.7090623406    1.7908186761    2.4650843300
 H    3.3315549324    1.0032352177   -0.0798357071
 H    2.1686134527    0.4300658367    1.1127913239
 H    1.7460048129    2.6223640620   -0.9518149199