17

 C    0.2378799269    1.3722638508    0.1896562291
 C    0.0456106174   -0.0837918934   -0.0306024405
 N   -0.4029341877   -0.6936218454   -1.0797310831
 C   -0.3818303952   -2.0424108581   -0.7408827086
 C    0.0944805077   -2.1868917985    0.5198760642
 O    0.3732297779   -0.9260895325    0.9924241625
 C    0.3379396604   -3.3281241194    1.4045940071
 C    1.4322058094   -3.2953924426    2.4162608179
 N    0.0296888783   -3.2440839172    2.8497029283
 H    1.2851218903    1.6049123721    0.4095218608
 H   -0.0638524238    1.9064652112   -0.7114096048
 H   -0.3628643208    1.7277312193    1.0335048931
 H   -0.7090380071   -2.8067704827   -1.4275040698
 H    0.0732257991   -4.2801712588    0.9534924411
 H    1.9573659899   -4.2134705717    2.6641360457
 H    2.0301541494   -2.3906885756    2.4739061128
 H   -0.2174003523   -2.2830315475    3.0764004842