19

 C    0.0276203702    1.3989071580   -0.0502081497
 C    0.0112714523   -0.0887643218    0.0133365247
 O    0.9143526924   -0.8542406556   -0.7898651390
 C    0.1140950802   -2.0303866152   -0.4318779192
 C    0.1364665815   -3.1210283907   -1.4561586444
 C    0.4623109598   -2.2450844377    1.0701232577
 C   -0.2907360682   -0.9307750245    1.2771818757
 O   -0.7761209137   -0.3882945653    2.4487034180
 C   -1.0903778352   -1.1041708813   -0.0031095161
 H    1.0230304034    1.7846434378    0.1981435606
 H   -0.2360535062    1.7600499649   -1.0490011207
 H   -0.6891334056    1.8066045914    0.6685584149
 H    1.1576703095   -3.4973543118   -1.5807141904
 H   -0.5018872405   -3.9536940341   -1.1461651370
 H   -0.2130778147   -2.7503611920   -2.4238634469
 H   -0.0888653671   -3.0866493563    1.4986242692
 H    1.5276408591   -2.3061852077    1.3174787881
 H   -0.0558385954    0.0757530071    2.8906544073
 H   -2.1472740219   -1.0757863851   -0.2311471427