13

 C    0.1653807205    1.5235249659    0.0431205806
 C   -0.0245678884    0.0576582121   -0.0119237380
 C   -1.1013965801   -0.7252675663    0.0538126724
 N   -2.4461191789   -0.4263344863    0.2003443804
 O   -0.6753986227   -2.0646938873   -0.0552350897
 C    0.6788460971   -2.0516915853   -0.1868366718
 O    1.3861903468   -3.0006013586   -0.3037511358
 O    1.0963926483   -0.7467697447   -0.1619247355
 H    0.8088680567    1.8064493619    0.8832709605
 H    0.6372787995    1.8946051057   -0.8731739294
 H   -0.8061535970    2.0061355550    0.1622653488
 H   -3.0027861638   -0.7416982549   -0.5883244043
 H   -2.8428726778   -0.8237879972    1.0464829317