16

 C    0.1260681333    1.5500540577   -0.3572025176
 C   -0.0208452273    0.1055023207   -0.0182337906
 N   -0.6932962524   -0.7871232472   -0.7077396756
 C   -0.5434151984   -1.9900493707   -0.0460223188
 C    0.2262584624   -1.8013478444    1.0673655565
 N    0.5586223436   -0.4676965583    1.0875649223
 O    0.7081622858   -2.6091256728    2.0490689973
 C   -0.1485643352   -3.5352678460    2.5727495359
 N    0.3066058786   -4.4177919579    3.3433163365
 H   -0.2655956278    2.1998497677    0.4340442970
 H    1.1736168624    1.8264075521   -0.5245263353
 H   -0.4326790774    1.7464531350   -1.2730235804
 H   -0.9778578710   -2.9057864920   -0.4140982346
 H    1.1307022872   -0.0256964638    1.7883009171
 H   -1.1824067554   -3.3800540921    2.2450724953
 H   -0.4480506585   -5.0157894879    3.6735039049