20

 C   -0.3619777222    1.4225405518    0.2590706476
 C    0.0087823950   -0.0384650250    0.0529617409
 C    1.1718575742   -0.3364647530   -0.9166080559
 O    1.9296530186   -0.9888562810    0.1203389262
 C    0.9089992042   -0.7500602515    1.1035449779
 C    1.3071589161   -0.0771027656    2.4385817452
 C    0.3407238497   -1.0483835856    3.1697919179
 C    0.3627488847   -1.9529512267    1.9070510512
 H    0.5232647894    2.0364519559    0.4556019647
 H   -0.8524482355    1.8245924067   -0.6341985269
 H   -1.0528130683    1.5487533572    1.0997275749
 H   -0.8879629904   -0.6243434389   -0.1705075532
 H    0.9498576453   -1.0118671105   -1.7517598272
 H    1.6897279765    0.5504721890   -1.3056702087
 H    2.3545861438   -0.3031873268    2.6588566024
 H    1.1487441592    0.9983855654    2.5482383352
 H    0.6872922898   -1.4881531882    4.1067284855
 H   -0.6422949638   -0.6010095904    3.3399581521
 H   -0.5741449723   -2.4058931612    1.5700650828
 H    1.1285538559   -2.7310266916    1.9768653275