19

 C   -0.9975120593    0.8853215706    0.1572749674
 C    0.2882850765    0.1115282253   -0.0422597506
 O    1.2407676229    0.2139347290    0.7026681102
 C    0.3751536535   -0.7997632034   -1.2145194131
 C    1.6364117630   -1.4559205646   -1.7840325997
 C    0.7563853733   -2.6632469601   -2.2499344896
 C   -0.4736729601   -1.9601164630   -1.6474986983
 C   -1.7074044655   -2.5979405586   -1.0965300148
 O   -0.5804682343   -0.6908573531   -2.2869678290
 H   -1.2083663507    1.4999063471   -0.7231832861
 H   -1.8480368622    0.2051891917    0.2716108592
 H   -0.9051489279    1.5110911278    1.0456308106
 H    2.1377064630   -0.8798426760   -2.5644258568
 H    2.3489085299   -1.7188377214   -1.0018143004
 H    0.6904285497   -2.8418502938   -3.3257714903
 H    1.0111977060   -3.5950673529   -1.7399292629
 H   -1.4505242693   -3.3762854880   -0.3716215438
 H   -2.3551276659   -1.8633710516   -0.6130704290
 H   -2.2780686827   -3.0685681552   -1.9057668431