19

 C    0.0378984484    1.5192084920    0.0419263852
 C   -0.0625570882   -0.0024303542   -0.0066842807
 C   -1.5263776242   -0.4534399075    0.1058593116
 C    0.6097308521   -0.5694528611   -1.2670473728
 C    0.9752641733   -2.0430262261   -1.1707842316
 O    1.1400268294   -2.7438259070   -2.1305681705
 O    1.2028941295   -2.5417620508    0.0697102334
 C    0.7642381986   -1.8386093609    1.2443931609
 O    0.7264396976   -0.4638727992    1.1110293320
 H    1.0866364907    1.8261213160    0.0726070526
 H   -0.4317380754    1.9630260947   -0.8407082956
 H   -0.4607558515    1.9082025345    0.9341676488
 H   -2.1242496809    0.0450547006   -0.6623433752
 H   -1.6492264131   -1.5310328716   -0.0385691662
 H   -1.9323677635   -0.1841826546    1.0851581276
 H   -0.0042095843   -0.4384789715   -2.1608847564
 H    1.5521881210   -0.0362234909   -1.4397980711
 H   -0.2138846008   -2.2581524180    1.5180693969
 H    1.4948707312   -2.0692237545    2.0224303509