14

 C   -0.0147722107    1.3517095739    0.0097389653
 N    1.2136949697    1.8341434611    0.0008372368
 C    2.0619585553    0.7690001797   -0.0132693692
 C    1.3500410004   -0.4177996434   -0.0133331331
 N    1.7019767139   -1.7193926827   -0.0241231494
 C    0.7397536951   -2.6055035592   -0.0200662790
 C   -0.6510260941   -2.2658884718   -0.0049229787
 C   -1.0078299279   -0.9559363392    0.0059627535
 N   -0.0150702262   -0.0132349051    0.0019396283
 H   -0.9277960494    1.9275159494    0.0216886812
 H    3.1339142582    0.8847782554   -0.0227595763
 H    1.0329188432   -3.6525179639   -0.0288393882
 H   -1.4078149953   -3.0391286660   -0.0021706425
 H   -2.0285100821   -0.5930772582    0.0177218512