17

 C   -0.9089275051   -0.5691073546    1.0613825483
 C    0.0886051995   -0.0015881778    0.0944639829
 N    0.7804902216    1.0189747121    0.3765364064
 N    0.1374176146   -0.6324209386   -1.2217371867
 C   -0.1622567235    0.1889710744   -2.3137591829
 O   -0.1431175729   -0.1286115068   -3.4754149917
 C    0.5108382545   -2.0063193788   -1.2909059874
 C    0.4698287053   -2.6958581465   -2.6298985402
 O    0.8530933168   -2.5650487983   -0.2747759086
 H   -1.9093866795   -0.5753566340    0.6145446176
 H   -0.6480303512   -1.5984654418    1.3126319063
 H   -0.9139982157    0.0424948881    1.9632310323
 H    1.4198223761    1.2658625763   -0.3813033812
 H   -0.4346127899    1.2030354979   -1.9724121787
 H    1.1686415797   -2.2322323315   -3.3292957961
 H    0.7339975214   -3.7397229603   -2.4601937820
 H   -0.5171798519   -2.6148713897   -3.0901757281