19

 C   -0.0690136792    1.5507656401   -0.0170983051
 C   -0.0413128880    0.0228030166   -0.0113353514
 C   -1.4264248661   -0.5828270820    0.2126207970
 C    0.7927835381   -0.6316619452   -1.1611037087
 N    1.7351798816   -1.1214853254   -0.1422749468
 C    2.8875323422   -1.8722385006   -0.2939519697
 N    3.6124956825   -2.2287865796    0.6845602739
 C    1.0348294619   -0.5596508449    0.9388578427
 O    1.2235764972   -0.5528432429    2.1189292899
 H    0.9266635315    1.9706342870   -0.1914696720
 H   -0.7401047232    1.9257819707   -0.7974083236
 H   -0.4251494511    1.9248534825    0.9473819302
 H   -2.1263962876   -0.2529636830   -0.5626953767
 H   -1.3939270663   -1.6768467215    0.2010724053
 H   -1.8216920701   -0.2705523372    1.1838289114
 H    0.2828643295   -1.4316951460   -1.7067680635
 H    1.2402321043    0.0731081505   -1.8688510187
 H    3.0728015260   -2.1040552089   -1.3514506858
 H    4.4069661467   -2.7710616401    0.3492558016