23

 C   -0.0478609611    1.5542035019    0.0675199617
 C   -0.0064974258    0.0238264532    0.0570781777
 C   -1.4014201172   -0.6120811233   -0.0119222157
 C   -1.3962420228   -2.1196714780   -0.0182523892
 C   -0.8203981197   -3.0886704666   -1.0991036244
 C   -1.4199824424   -4.0246200544   -0.0138509870
 C   -0.7596589018   -3.0876339011    1.0389598035
 C   -2.6468509824   -3.0647757111   -0.0146123480
 O   -3.5765021814   -3.0406458954    1.0323939354
 H    0.9585817829    1.9813352213    0.1188325212
 H   -0.5294092560    1.9432980882   -0.8365474589
 H   -0.6133030687    1.9286656629    0.9281434586
 H    0.5918500572   -0.3219053972   -0.7954411023
 H    0.5101451233   -0.3353871314    0.9563294706
 H   -2.0041427509   -0.2676941364    0.8402473005
 H   -1.9219528196   -0.2564289032   -0.9122267904
 H   -1.3114480133   -3.0840067724   -2.0772703577
 H    0.2672521667   -3.1100859759   -1.1974331364
 H   -1.4246776470   -5.1151286333   -0.0156263201
 H    0.3325941551   -3.1073000680    1.0865182545
 H   -1.1694142584   -3.0795544537    2.0551291036
 H   -3.2383319301   -3.0564897648   -0.9349508160
 H   -3.1095000666   -3.0937281212    1.8723264588