21

 C   -0.0408791656    1.5990090544    0.1062904751
 C    0.0544886223    0.0676457676    0.0888430681
 C    0.7335926711   -0.4679254759    1.3562869181
 C   -1.3490423057   -0.5440882944   -0.0532003114
 O   -2.1292887900   -0.1586911437    1.0683157484
 O    0.6968205837   -0.4130136140   -1.1036502358
 C    2.0435798896   -0.0305680702   -1.3067032693
 C    2.5203545102   -0.6080392685   -2.5584844837
 C    2.9411793597   -1.0698049642   -3.5840210779
 H    0.9255990217    2.0702241815    0.3074072870
 H   -0.4143246494    1.9650923078   -0.8551745012
 H   -0.7372881311    1.9091878144    0.8885721690
 H    0.0864025601   -0.2872216567    2.2174778403
 H    0.9005623072   -1.5460214193    1.2684340626
 H    1.6942172463    0.0194145766    1.5467695296
 H   -1.7877901300   -0.1876853004   -0.9961431377
 H   -1.2449356381   -1.6364562853   -0.1206022899
 H   -3.0035703272   -0.5454998020    0.9726129859
 H    2.1476630054    1.0641294497   -1.3539895469
 H    2.6878133510   -0.3760652789   -0.4838702510
 H    3.3076693687   -1.4808071083   -4.4918817992