18

 N    0.1363656313    1.2891467697    0.3786879425
 C    0.0336228651   -0.0605329145    0.0281114316
 C   -0.9579145797   -0.9659486432    0.3230081081
 N   -0.5096733123   -2.1799506616   -0.1895095501
 C    0.6971016315   -1.9339434922   -0.7628861817
 N    1.0601984736   -0.6732079993   -0.6480209403
 C   -1.2468223966   -3.4059963341   -0.2214766452
 C   -0.5527889042   -4.6852825931    0.1625364132
 C   -1.5920656398   -4.0878351242    1.0773776368
 H    0.8229628630    1.7520614354   -0.2032662674
 H   -0.7444631211    1.7842833931    0.3416829443
 H   -1.8969613919   -0.8861128094    0.8428252890
 H    1.2638379136   -2.7119400213   -1.2514217937
 H   -1.9846788383   -3.4612434787   -1.0178632482
 H   -0.7998953599   -5.5786261403   -0.3989604048
 H    0.4824096037   -4.6170594785    0.4744153193
 H   -1.2420407091   -3.6171523575    1.9883847566
 H   -2.5608545188   -4.5676270204    1.1531471002