25

 C   -0.0339747052    1.5910844867   -0.0615249006
 C   -0.0745711690    0.0653092072    0.0707837231
 C    0.7795947189   -0.4859663878    1.2158687788
 C    0.6874204252   -2.0161666024    1.4004117766
 C    1.9755475907   -2.4494837265    2.1605862894
 C    2.6581712990   -3.6577236432    1.5111152015
 C    2.8753602356   -1.1780131881    2.1709785532
 C    2.2947261434   -0.2492263748    1.0957592303
 O    2.6853514482   -0.6483354816   -0.2198386736
 H    0.9743227715    1.9419033059   -0.3034169747
 H   -0.7013453755    1.9348844496   -0.8581730277
 H   -0.3464462014    2.0829668296    0.8670990693
 H   -1.1118411751   -0.2592342272    0.2245129413
 H    0.2603010253   -0.3923455205   -0.8659765551
 H    0.4679826937    0.0005046179    2.1517871874
 H   -0.2262081346   -2.3111562232    1.9250806126
 H    0.6597125288   -2.4957332406    0.4157905083
 H    1.7224789331   -2.7142852748    3.1929420527
 H    2.9606572146   -3.4151375931    0.4870195056
 H    3.5516897145   -3.9611707093    2.0681975899
 H    1.9831643427   -4.5196225715    1.4684611892
 H    2.8257101571   -0.6740443365    3.1430638535
 H    3.9320410713   -1.4060751690    1.9877491186
 H    2.5683624525    0.8017217332    1.2666758785
 H    3.6447148744   -0.5995012501   -0.2694179082