23

 C    0.0535811540    1.5340326065    0.0803170625
 C    0.0202873901    0.0155439473   -0.0094047254
 C    0.6704805491   -0.5293106993   -1.2890643004
 C    0.7065957400   -2.0662160921   -1.2698451287
 C    1.3192283741   -2.5498865744    0.0328625321
 C    1.8105090872   -3.9653178610    0.1635784000
 C    2.8007616218   -2.8245943298    0.0953311232
 C    0.6582740366   -1.8973186031    1.2307580502
 O    0.6893243558   -0.4824303443    1.1456533091
 H    1.0873747682    1.8930434921    0.0610556864
 H   -0.4860785909    1.9825703572   -0.7592360763
 H   -0.4076236963    1.8708621428    1.0125792361
 H   -1.0314014658   -0.3274345259    0.0182125419
 H    0.1207883304   -0.1654783049   -2.1648122668
 H    1.6920502967   -0.1345665813   -1.3540416260
 H   -0.3185534439   -2.4545807099   -1.3566716666
 H    1.2639576839   -2.4543108459   -2.1296743170
 H    1.6792034132   -4.4710459215    1.1153540480
 H    1.7194313831   -4.6180444944   -0.6988394825
 H    3.3824122952   -2.7095554778   -0.8137441653
 H    3.3356596403   -2.5563579878    1.0003689504
 H   -0.3882296910   -2.2439650956    1.3104404459
 H    1.1711892983   -2.1623853769    2.1608013394