18

 C   -0.0056353778    1.6263706235    0.0130607240
 C    1.5155888450    1.3424443174    0.0144291787
 C    1.1635381797    0.0896654874    0.9127990384
 C   -0.0725694054    0.0689651316   -0.0189870751
 N   -1.3782557328   -0.5763536969   -0.0742487704
 C   -1.5716826454   -0.6860291196   -1.3322116703
 O   -0.5715536887   -0.3655790671   -2.2166457525
 C    0.5833311889   -0.2946832850   -1.3449012268
 C    1.6832883899    0.7815334808   -1.4318343552
 H   -0.3785071599    2.0195489981    0.9602838662
 H   -0.4323581194    2.1768284362   -0.8293766384
 H    2.2376123894    2.0849639790    0.3516941130
 H    1.8296517392   -0.7777164143    0.8948535972
 H    0.9461954997    0.3855262829    1.9403483148
 H   -2.4944205617   -1.0081409346   -1.8025706245
 H    1.0097747260   -1.3058409568   -1.3258803134
 H    1.4826732185    1.5494055699   -2.1835578181
 H    2.6650911249    0.3475788773   -1.6357177776