17

 C   -0.0466250210    1.4929224360    0.0285691673
 C   -0.0394264624   -0.0202334932   -0.0356408136
 C    0.6915181951   -0.7047804210   -1.1333789866
 N    1.2380589300   -0.7351757041    0.2325055109
 C   -1.2370355101   -0.6754228938    0.5540425265
 N   -1.6451932976   -1.8882461793    0.2064681924
 N   -2.7208675590   -2.0704394196    1.0061671877
 C   -2.9224745282   -0.9839465055    1.7758796002
 N   -2.0036115396   -0.0762119426    1.5173964685
 H    0.8602892743    1.8970338678   -0.4326576808
 H   -0.9114549086    1.9073310688   -0.4993996404
 H   -0.1012165246    1.8372142848    1.0648726206
 H    0.3311382723   -1.6613213601   -1.4972406381
 H    1.1710025022   -0.0758515162   -1.8797639591
 H    1.9828091953   -0.0461928785    0.3195916723
 H   -3.2429608873   -2.9297397737    0.9560333713
 H   -3.7301320108   -0.9015872800    2.4876512110