17

 C    0.1344478216    1.4238065166    0.0681560897
 C   -0.1251404488   -0.0799774451    0.0838027574
 O    0.3000113197   -0.6929510878    1.2927309024
 C   -1.6034959962   -0.4159091331   -0.1721442196
 O   -1.8106515771   -1.8027335310   -0.3387838814
 C   -2.2779569803   -2.3278396426    0.8876227390
 C   -2.7317789180   -1.1131547386    1.6818546661
 O   -3.2899382144   -1.0571640764    2.7346568424
 O   -2.3810670440   -0.0114536781    0.9557622022
 H    1.1895716814    1.6224067486    0.2715223580
 H   -0.1174763607    1.8596236353   -0.9038793958
 H   -0.4718512292    1.9275612529    0.8292288290
 H    0.4446396704   -0.5720658239   -0.7124361847
 H    0.0018043040   -0.1376919111    2.0222385925
 H   -1.9847395170    0.1023222668   -1.0593278165
 H   -3.1161357226   -3.0084297206    0.7103001602
 H   -1.4914746987   -2.8543699719    1.4405408590