23

 C   -0.3569581579    1.4980784579   -0.1175935915
 C    0.1472530335    0.0690393770   -0.0766757862
 O    1.4435867937   -0.0799804300   -0.7046888807
 C    1.9485761959   -0.8395459064    0.4104121752
 C    0.6781674638   -0.5608750051    1.2449282786
 C    0.8596310629    0.3467646938    2.4587247997
 C    1.5185515460   -0.3780708811    3.6375937697
 C    1.7343013706    0.5252674247    4.8445400991
 O    2.3419030946   -0.2488239753    5.8675452533
 H    0.3376398352    2.1868369367    0.3697844388
 H   -0.4730484267    1.8151822141   -1.1588922460
 H   -1.3342724020    1.5781619840    0.3708527298
 H   -0.5860424211   -0.5874110149   -0.5694450868
 H    2.1155698990   -1.8928029873    0.1486179366
 H    2.8852042101   -0.4203655232    0.8002008004
 H    0.1328736382   -1.4618823455    1.5411986074
 H    1.4674104683    1.2174290082    2.1800777543
 H   -0.1172655221    0.7398282856    2.7708494968
 H    0.9028262001   -1.2314132151    3.9475830267
 H    2.4903620169   -0.7887974882    3.3370536029
 H    2.3701371625    1.3799172897    4.5596635576
 H    0.7673699639    0.9381697480    5.1772280732
 H    2.4845532544    0.3187327826    6.6304292213