14

 C    0.3904375724    1.7061138344   -0.2371063388
 C   -0.0755435202    0.3212879491    0.1201809403
 O    0.8663057000   -0.7343501329    0.0456630324
 C    0.3534695483   -0.4263436532    1.3397640685
 C    1.3053126479    0.1716075098    2.3215596125
 O    2.3449299838    0.7266394890    2.0461548071
 C    0.9012033191    0.0772136581    3.7991737568
 O   -0.1067994517   -0.4535741558    4.1854134141
 H    1.3701191896    1.9151161297    0.1941091442
 H    0.4627466924    1.7958839587   -1.3259654283
 H   -0.3311182171    2.4518222724    0.1125092655
 H   -1.0686503664    0.0507651794   -0.2452806218
 H   -0.3385822655   -1.1519428734    1.7607833235
 H    1.6422067174    0.5567247446    4.4726735841