15

 C   -0.0072129607    1.4820590551    0.0097714220
 N   -0.0245248526    0.0229815437    0.0010283014
 C   -1.2157293107   -0.6543340828    0.0038910887
 C   -1.2184972626   -2.0153660896   -0.0035517820
 O   -2.3237605933   -2.7666109529   -0.0016125716
 C    0.0380650425   -2.7447644992   -0.0143848999
 O    0.0169483630   -3.9842080635   -0.0214930674
 C    1.1957951376   -1.8866986417   -0.0162015363
 N    1.1612822934   -0.5735446368   -0.0087614173
 H    1.0355076775    1.7926548218    0.0027353844
 H   -0.5162483363    1.8765900108   -0.8750044403
 H   -0.5009475368    1.8659371350    0.9078387413
 H   -2.1166171724   -0.0544533847    0.0121365037
 H   -1.9614462151   -3.6800877815   -0.0084949594
 H    2.1860786766   -2.3292923437   -0.0243059673