19

 C   -0.0038432557    1.5237733935    0.0940879286
 C    0.0096189070    0.0167761430   -0.0611421641
 C   -1.1803364315   -0.6820161765    0.5629606916
 C    0.6863602505   -0.6500801683   -1.2071117344
 C    1.6724695820    0.1236208777   -2.0648301342
 O    2.6879101998    0.5569771075   -1.1523412107
 C    2.4560357072    0.0462257764    0.1055282379
 N    3.1919415228    0.2465799154    1.1087795730
 N    1.2850585508   -0.7523309937    0.1380599304
 H    0.8384535969    2.0169534506   -0.3934440966
 H   -0.9286899743    1.9275896445   -0.3308443653
 H    0.0208752029    1.7907510011    1.1554785913
 H   -2.1111601077   -0.3555295818    0.0862091912
 H   -1.0948574334   -1.7661546481    0.4613741182
 H   -1.2443150342   -0.4462111961    1.6301372362
 H    0.2706289231   -1.5643108159   -1.6217091634
 H    2.1238642036   -0.5232874637   -2.8247792792
 H    1.2470867619    1.0026988689   -2.5606548864
 H    3.9816900183    0.8371246956    0.8492299160