14

 C    0.0816964809   -1.1378904990   -0.0239562807
 C    0.0255375076    0.0618496953    0.0050807298
 C   -0.0744440397    1.4853528494    0.0341520884
 C   -0.6818461346    2.4278281008    1.1134324557
 C    0.0362045174    3.2852139494    0.0501598590
 O    1.1563146461    2.3243350914    0.0606997153
 C   -0.6494117175    2.4493971945   -1.0709526142
 C   -0.0238625985    2.4257781513   -2.3795109053
 N    0.4321581441    2.4150089364   -3.4410791683
 H    0.1401952197   -2.1985978531   -0.0540354043
 H   -1.7694146679    2.4836642469    1.1938551533
 H   -0.1753284433    2.3801103442    2.0760425573
 H    0.2788509375    4.3450832977    0.0430581723
 H   -1.7377466118    2.5065544448   -1.1441225484