18

 O   -0.0292912457    1.4176910966   -0.3763493196
 C   -0.1720559980    0.0423137753   -0.1720912629
 C   -0.2600014737   -0.5403301320    1.2810947889
 C   -1.6081887544    0.2192723058    1.4389536825
 C   -1.6174353487   -0.4667317438    0.0409926747
 N   -0.9484641007   -1.7107537690    0.6046449064
 C   -1.7505189919   -2.6108026309    1.4425106803
 C   -2.6803916744   -3.3851225601    0.6251250514
 C   -3.4625883707   -4.0069604868   -0.0420084871
 H    0.9101550205    1.6235891711   -0.3862719222
 H    0.4215501622   -0.5687689756   -0.8587745074
 H    0.5406465613   -0.6906015450    2.0086107427
 H   -2.3114479964   -0.1483638430    2.1854020606
 H   -1.5585769214    1.3081098233    1.4463117632
 H   -2.4220593750   -0.5343246556   -0.6913225201
 H   -1.0468513625   -3.2916796720    1.9387345695
 H   -2.3209138182   -2.1198305975    2.2471645951
 H   -4.1475172623   -4.5649398210   -0.6309280862