18

 C   -0.2063323066    1.5536437170   -0.0878589517
 C    0.0587881732    0.0519794605   -0.0432522867
 C    0.9259494773   -0.5078516782   -1.1821061893
 C    1.3103318278   -1.8922959248   -0.6583910964
 N    1.5639524658   -1.6505543594    0.7681057843
 C    0.7998054885   -0.4820871625    1.2248503048
 C    1.7101600850    0.5195242700    1.8209980105
 N    2.4126085164    1.3046720307    2.2967830590
 H    0.7266668221    2.1239100637   -0.0620882825
 H   -0.7415779282    1.8153280821   -1.0058862852
 H   -0.8190020025    1.8795441558    0.7588407457
 H   -0.9023965076   -0.4772186571   -0.0660669452
 H    0.3939716421   -0.5466666089   -2.1356087521
 H    1.8203874561    0.1116728191   -1.3143691947
 H    0.4854805660   -2.6023505036   -0.8335533805
 H    2.2047473923   -2.2981390968   -1.1426696981
 H    1.4274266122   -2.4617761651    1.3532211548
 H    0.0686754199   -0.7362372926    2.0030089833