21

 C   -0.1781504553    1.5729335811   -0.1059540793
 C    0.0675683873    0.0672946688   -0.0370274249
 C    0.9875892842   -0.4818411874   -1.1319348858
 O    1.3991705652   -1.7633264319   -0.6783165384
 C    1.4856512293   -1.7593985615    0.7498511509
 C    2.9528142230   -1.6702250397    1.2438405412
 C    3.0801170440   -0.2573719995    1.7525897689
 C    1.9131966321    0.3853959465    1.7637035033
 C    0.7745189599   -0.4586757482    1.2403484771
 H    0.7619537062    2.1327138654   -0.0719162541
 H   -0.6921572737    1.8424482231   -1.0346795104
 H   -0.8029990950    1.9136785940    0.7262555250
 H   -0.8939261348   -0.4546932499   -0.1183201211
 H    0.4879575373   -0.6111366320   -2.0970519504
 H    1.8529929446    0.1850711592   -1.2801377455
 H    1.0000178543   -2.6765015255    1.0965915098
 H    3.1572651309   -2.3983891836    2.0402591629
 H    3.6388370657   -1.9033798170    0.4217976656
 H    4.0223430368    0.1578652595    2.0950389944
 H    1.7671006082    1.3991870338    2.1199595828
 H    0.0380098398   -0.6535087652    2.0287169778