18

 N   -0.1185377402    1.2961143386    0.9000497755
 C    0.1037369927    0.0538283710    0.3859200191
 O    1.2039181253   -0.4648157489    0.3800483190
 C   -1.1272401039   -0.6357615840   -0.2091221336
 C   -0.9620934046   -2.1389656260   -0.2497653549
 C   -1.2668249391   -2.9614582168    0.9875888823
 C   -2.2028640559   -3.0277346296   -0.1725909838
 C    0.1288358537   -2.6666750225   -1.1257498438
 O    0.4618226812   -3.8274750534   -1.1569217168
 H    0.6710559275    1.8232548147    1.2357109823
 H   -1.0195383127    1.7393238598    0.8719291818
 H   -2.0279178289   -0.3624922228    0.3511742219
 H   -1.2666046600   -0.2373915886   -1.2244930635
 H   -0.6143943550   -3.8101937511    1.1552090237
 H   -1.5737909806   -2.4210750683    1.8764733507
 H   -3.1644577418   -2.5302421315   -0.1037584218
 H   -2.1849873118   -3.9230443580   -0.7832984253
 H    0.6029950142   -1.9147570429   -1.7888917627