20

 C    0.1360205036    1.1440085339   -0.5472541180
 C    0.2988832400   -0.1952015763    0.1311155617
 N    1.6460195014   -0.5604652920    0.6117483445
 C    0.5514186101   -0.4001588029    1.5893067874
 C    0.7125381899    0.7659993601    2.5470282264
 C   -0.0548918603   -1.6122138870    2.2489096168
 C    0.1378234403   -2.9980997932    1.7659552037
 N    0.7845890740   -2.5562595848    3.0165606947
 H    0.7601288034    1.9096301023   -0.0827188273
 H    0.4279759168    1.0732269514   -1.6007054010
 H   -0.9076742391    1.4749911784   -0.5107528261
 H   -0.2721849932   -0.9974110080   -0.3361108603
 H    1.8408222417   -1.5401545266    0.4197765159
 H    1.2166950103    1.6072655686    2.0700684582
 H   -0.2618939418    1.1042420272    2.9168743969
 H    1.3106078832    0.4644227387    3.4137030260
 H   -0.9938965585   -1.3927159458    2.7556368255
 H   -0.6568855494   -3.7277617693    1.8936586478
 H    0.7576829814   -3.1746714484    0.8894940677
 H    1.7647667762   -2.3517161064    2.8275811797