15

 C   -0.2766359465    1.4980003910    0.0040764223
 C   -0.0056050849   -0.0186916839    0.0030096498
 C    0.8376746371   -0.4869603722   -1.1920426307
 O    0.4583261841   -0.6249601953   -2.3248132585
 C    2.2280097894   -0.8084323466   -0.6863922872
 O    2.7411672560    0.2934530828    0.0739437457
 C    2.1906062284   -0.8161534249    0.7959198944
 C    0.7764431384   -0.4996381679    1.2341199238
 O    0.3404949968   -0.6493231501    2.3448235655
 H    0.6592260557    2.0603113221    0.0307056069
 H   -0.8283421755    1.7758901309   -0.8975787236
 H   -0.8733389917    1.7666097698    0.8795055741
 H   -0.9625149343   -0.5510022763   -0.0239197870
 H    2.9409823948   -1.3736348777   -1.2781445833
 H    2.8729789421   -1.3876706816    1.4169594578