16

 C   -0.0525746019    1.4784300103    0.1070840878
 C    1.3056057652    0.8151299302    0.0127497640
 C    0.0468741901   -0.0152100390   -0.0147940890
 N   -0.4492846556   -0.8027085702    1.1344802884
 C   -0.7086870084   -1.9112182222    0.5688823833
 O   -2.0323434103   -2.2899573415    0.2862297564
 C   -1.5704721591   -1.9489942599   -1.0992928670
 C   -0.1639322700   -2.2409822583   -0.8634250857
 C   -0.4042355287   -0.8190996023   -1.2395018956
 H   -0.3643818169    1.8716131244    1.0668908308
 H   -0.4211642017    2.0244759502   -0.7555005770
 H    1.8745877350    0.9239818331   -0.9048068019
 H    1.9037181390    0.7609038818    0.9149471396
 H   -2.2693723998   -2.2037516228   -1.8866808245
 H    0.5193025303   -3.0112601730   -1.1936784977
 H   -0.2429112573   -0.4500087909   -2.2498149920