19

 C   -0.0788050197    1.4325619983   -0.0446579951
 C    1.3294246760    0.8268149566   -0.0466313720
 C    2.1587066022    0.3969945795   -1.2518287854
 C    1.4651561187   -0.8842690416   -1.7211984762
 C    0.9461724705   -1.9860514545   -0.7704584900
 C    0.9312886165   -1.9158339338    0.7718046134
 O   -0.0330859224   -0.8990715948    1.1234698802
 C    0.0905434474   -0.0383125399    0.0220545201
 C    0.0419170952   -0.8851626736   -1.2382110851
 H   -0.3399202497    1.9757659977    0.8573577242
 H   -0.5112742756    1.8416719793   -0.9537047586
 H    1.8548020551    0.9740486628    0.8907604363
 H    2.1659322791    1.1261011251   -2.0729146067
 H    3.2040994223    0.2422862757   -0.9609416048
 H    1.6902775142   -1.2458312767   -2.7212700360
 H    0.8871013145   -2.9724305126   -1.2167732096
 H    0.5953240617   -2.8611858300    1.2065114316
 H    1.9109089998   -1.6597594919    1.1972133652
 H   -0.8508528458   -1.0008370955   -1.8411296314