18

 C    0.0424617970    1.5602771396   -0.3294684376
 C    0.0167382737    0.0467667176   -0.0095572548
 C    0.5798627829   -0.2377472542    1.3874491540
 C   -1.4411413492   -0.3952670959   -0.1087362231
 O   -2.0990232572   -0.7961404681    0.8176221534
 C    0.8582012270   -0.6753469251   -1.0593858705
 C    0.5458366733   -2.0073284391   -1.5900024829
 O    0.3090144522   -0.8281210476   -2.3685722256
 H    1.0731381738    1.9295149247   -0.3111026576
 H   -0.3697198168    1.7605207716   -1.3230591405
 H   -0.5339853970    2.1265692593    0.4082532556
 H   -0.0061530724    0.2816143916    2.1491800072
 H    0.5446243746   -1.3061168554    1.6169157125
 H    1.6190328934    0.0988429477    1.4607789887
 H   -1.8774350435   -0.2924299774   -1.1249702286
 H    1.9066872088   -0.3674567420   -1.0557658248
 H    1.3473882162   -2.6494065800   -1.9507312613
 H   -0.3476968167   -2.5302075772   -1.2506612843