17

 C    0.0007581638    1.5110725758   -0.0040057684
 C    1.4305244790    2.0638258882    0.0522960507
 O    2.1320234647    1.6805558151    1.2533360579
 C    1.9138239898    0.3777515344    1.5257225743
 C    0.9844767679   -0.4827403163    1.0134792668
 C   -0.0234214399   -0.0346508450    0.0044347349
 N    1.1367063062   -1.7259237985    1.5976928753
 C    2.1334546157   -1.6028393201    2.4387491123
 N    2.6547333927   -0.3271675020    2.4374238995
 H   -0.5530189921    1.8938666251    0.8608890006
 H   -0.4851226436    1.9080806776   -0.9013747855
 H    2.0099981598    1.7093164044   -0.8115874725
 H    1.4368255300    3.1557390797    0.0538737317
 H   -1.0264809707   -0.3959527893    0.2562255691
 H    0.2036313231   -0.4276847305   -0.9959870767
 H    2.5290247491   -2.3770579078    3.0780622918
 H    3.4205177643    0.0286338193    2.9840102482