23

 C    0.1175343726    1.6150394982    0.0596239919
 C   -0.0305538557    0.0927136795   -0.0171734808
 C    0.6322644355   -0.4929232938   -1.2696479584
 C    0.6716140772   -2.0258206874   -1.3223418551
 O    1.4261830133   -2.4854816900   -0.2046294504
 C   -0.7303620347   -2.6555406985   -1.2370891198
 O   -1.5437657200   -2.1038260168   -2.2670273883
 C    1.3695553317   -2.4810316228   -2.6117222209
 O    1.6084316650   -3.8846183770   -2.4791888099
 H    1.1725760890    1.9098344930    0.0909994995
 H   -0.3351124551    2.1029853354   -0.8112003705
 H   -0.3665754153    2.0178202198    0.9550341310
 H    0.4123086732   -0.3699235269    0.8712398035
 H   -1.0962314430   -0.1638689867   -0.0118563557
 H    0.1160963808   -0.1255504534   -2.1636847590
 H    1.6695098683   -0.1386814957   -1.3225479003
 H    1.7466082104   -3.3629241047   -0.4524057292
 H   -0.6279619940   -3.7436921824   -1.3483036337
 H   -1.1426159934   -2.4519831570   -0.2403013247
 H   -2.3820714101   -2.5737422256   -2.2728182077
 H    0.7283057794   -2.2680929474   -3.4760803099
 H    2.3171913093   -1.9364266353   -2.7215026430
 H    2.2142300657   -4.1606900045   -3.1715892484