17

 O   -0.7330148196    0.8991973281    0.6368086629
 C   -0.0137234206    1.0496671049   -0.3157240540
 C    1.3199956845    1.7669851313   -0.2875594589
 C    1.3315984292    2.9880332770   -1.2178450500
 C    0.3800265710    4.1196900440   -0.7784519032
 O    0.9278718789    5.3265565816   -1.3262406697
 C    2.2510455572    5.1736677945   -1.6187819704
 O    2.9196580423    6.0657437706   -2.0478166915
 C    2.6650505520    3.7390971669   -1.3016071214
 H   -0.3043075176    0.6633094894   -1.3213643146
 H    1.5439988350    2.0534419299    0.7447683474
 H    2.0876753779    1.0569534314   -0.6245953353
 H    1.0456608837    2.6713486436   -2.2287906250
 H   -0.6394388968    4.0117545392   -1.1548237336
 H    0.3406717298    4.2081219552    0.3147517953
 H    3.1867461113    3.7432467245   -0.3363516769
 H    3.3615204218    3.3665950481   -2.0536181009