21

 C   -0.0493434628    1.5467431874    0.0797174026
 C   -0.0365015882    0.0452395617   -0.0143727688
 C   -0.0493297709   -0.6110892352   -1.1793436240
 C   -0.0155430632   -2.1113590785   -1.3342131582
 O    0.7529899925   -2.4976876828   -2.4721973087
 C    0.4598579117   -2.7944682625   -0.0490080135
 C   -0.2600367103   -2.1959357264    1.1630540629
 C    0.0340298459   -0.6962708783    1.3087931655
 O    1.2976979231   -0.4514591549    1.9436257022
 H    0.7859281676    1.8964021439    0.6960099593
 H    0.0158742157    2.0171421866   -0.9047102312
 H   -0.9669545300    1.9009467173    0.5673079687
 H   -0.0935340132   -0.0577387539   -2.1162959941
 H   -1.0280301286   -2.4690400057   -1.5714428603
 H    1.6402950852   -2.1402243930   -2.3543728081
 H    0.3025021417   -3.8745684847   -0.1190654886
 H    1.5454693104   -2.6437820764    0.0476337638
 H   -1.3427519473   -2.3351671302    1.0459880778
 H    0.0327984924   -2.6983184198    2.0897271497
 H   -0.6912578613   -0.2572787543    2.0046791216
 H    1.9861997796   -0.6851345902    1.3117064514