18

 C    0.0164491469    1.4408005133    0.0811977472
 N    0.0467413590    0.0023985405   -0.1591453076
 C   -1.2336790786   -0.7082671093   -0.1225144962
 C   -1.4872273505   -1.5996323906   -1.3362912468
 O   -0.6811397063   -2.7634713702   -1.3403215431
 C    0.6817583093   -2.4956567759   -1.3766345789
 O    1.2073232568   -1.9982060248   -0.1493091309
 C    1.2388175442   -0.6433542732    0.0699810175
 O    2.2492604852   -0.1075816153    0.4509098047
 H    1.0261222257    1.8324019723   -0.0290440645
 H   -0.6470192301    1.9230332682   -0.6432174170
 H   -0.3370820428    1.6773680797    1.0937116460
 H   -1.3172133383   -1.3147502338    0.7881422434
 H   -2.0195104158    0.0510094054   -0.0869227414
 H   -2.5220298816   -1.9533004310   -1.3200880395
 H   -1.3280270869   -1.0190629448   -2.2587551522
 H    1.1805860127   -3.4524586908   -1.5351680031
 H    0.9272144910   -1.7891366997   -2.1841476475