18

 C   -0.5064535943    1.4544119640    0.1554111821
 C    0.6303865289    0.4834071732   -0.2119409063
 C    1.0667976219   -0.3432035226    0.9072704774
 C    1.4087409924   -1.0212613619    1.8427371756
 C    1.8347245847   -1.8249364542    2.9655198552
 C    1.4023396919   -1.3848912230    4.3915370398
 C    0.6700931000   -2.7079830659    4.4104032884
 N   -0.0312639383   -3.3153257904    5.2521161773
 O    1.0468123785   -3.0659385143    3.1318185457
 H   -0.1923266986    2.1396799864    0.9472446672
 H   -0.7965910764    2.0461098886   -0.7175624620
 H   -1.3844844856    0.9080205320    0.5095958810
 H    0.3076407466   -0.1705374334   -1.0320837755
 H    1.4892241873    1.0471121904   -0.5980913891
 H    2.8932136583   -2.0901877266    2.8866923273
 H    2.2061941516   -1.2863392982    5.1218813877
 H    0.7577651589   -0.5064508587    4.4240970688
 H   -0.3568872576   -4.2120300455    4.8870200495