21

 C   -0.0021231165    1.5665780675    0.2680418536
 C    0.0004976852    0.0763645383   -0.1168700778
 C   -1.3744071359   -0.5186856415   -0.1312970150
 C   -2.1067873468   -0.9483684781   -1.1695773125
 C   -3.4507308084   -1.5106286031   -0.7814758434
 C   -3.5275933043   -1.3004715557    0.7465259155
 C   -3.8932753172   -2.5340737601    1.5753827279
 C   -2.1416003747   -0.7472397431    1.1216832601
 O   -1.7469152385   -0.5477727277    2.2504666703
 H    1.0182360807    1.9609664920    0.2885732301
 H   -0.5802838147    2.1573359393   -0.4497330605
 H   -0.4413988733    1.7039576789    1.2592361616
 H    0.4737713917   -0.0596176337   -1.0955356419
 H    0.6059684192   -0.4713707006    0.6154593307
 H   -1.7792986186   -0.9213139160   -2.2050185256
 H   -4.2658555126   -1.0155287614   -1.3229568694
 H   -3.5155936548   -2.5742391043   -1.0478102605
 H   -4.2454158420   -0.5017802377    0.9734630955
 H   -3.2283074793   -3.3731944530    1.3428361550
 H   -3.7901570382   -2.3095896309    2.6403318033
 H   -4.9214391811   -2.8540827790    1.3814454732