17

 O    0.0058399223    1.4256532761    0.0118255451
 C   -0.0136363352    0.0478535905    0.0114952931
 C    0.3412991939   -0.8068696588    1.2803130048
 C   -0.3738786871   -1.9251955742    0.4354209996
 C   -1.3453910981   -0.7829069102   -0.0414104692
 C    0.5625187318   -2.0049288589   -0.7609360380
 C    0.8068385968   -0.7117844454   -1.0494267391
 C    1.6207955052   -0.1086729591   -2.0777802206
 O    1.7431906097    1.1002869829   -2.2125507715
 H    0.5809115672    1.7085677469   -0.7178002808
 H    1.3969579601   -0.9490296154    1.5229216566
 H   -0.2321986107   -0.5130206487    2.1633431509
 H   -0.7371141573   -2.8467761661    0.8822527823
 H   -2.0605021116   -0.4870380170    0.7306446831
 H   -1.8356731937   -0.9031132533   -1.0102539332
 H    0.9326626268   -2.8971316736   -1.2495468977
 H    2.1457248000   -0.8087792459   -2.7599839152