17

 C   -0.0824930958    1.5344209816    0.0191668815
 C    0.0205879048    0.0089525093    0.0347742972
 C    0.7648531922   -0.5169997059    1.2695633452
 N   -1.3252674062   -0.5568754286   -0.0675297205
 C   -1.5586995027   -1.8128252240   -0.5382831135
 N   -0.6351015587   -2.5731576146   -1.0002833321
 C   -2.9615386933   -2.2055572887   -0.4917040922
 N   -4.0632132613   -2.5559767081   -0.4641637357
 H    0.9144790723    1.9814774636    0.0551339237
 H   -0.5872433219    1.8882694294   -0.8841669287
 H   -0.6385125034    1.9010841460    0.8910409267
 H    0.5537230268   -0.3306229193   -0.8587265786
 H    0.8192653092   -1.6075055309    1.2441430942
 H    1.7855418675   -0.1224467148    1.2950439629
 H    0.2580050073   -0.2103235290    2.1913367582
 H   -2.0776332702   -0.0872139641    0.4096542503
 H   -1.0199714567   -3.4481117218   -1.3453243388