22

 C   -0.0486488268    1.4465897743   -0.2520116639
 C   -0.0416372813   -0.0662707592   -0.1184895440
 O   -1.3780949485   -0.5181694015   -0.0033771110
 C   -1.4952909642   -1.9228582701    0.1157588854
 C   -2.9811336436   -2.2686106251    0.1928545387
 C   -3.6389491330   -1.7496201129    1.4783237694
 N   -3.6388138344   -1.7459786882   -0.9995215780
 C   -4.6112693051   -2.4138871500   -1.6672077753
 O   -5.0355026780   -3.5131300757   -1.3722199659
 H    0.9741027260    1.8250285332   -0.3379381334
 H   -0.6062116979    1.7529211678   -1.1419203671
 H   -0.5171258370    1.9075496382    0.6221007287
 H    0.4399182607   -0.5323286060   -0.9942539891
 H    0.5357824628   -0.3750209396    0.7684794412
 H   -1.0378267679   -2.4186104337   -0.7553866221
 H   -0.9769777748   -2.2812218276    1.0196665390
 H   -3.0883024408   -3.3561662901    0.1489162406
 H   -4.7004842531   -2.0082536498    1.4859287814
 H   -3.1693170976   -2.2000245037    2.3591586499
 H   -3.5370560482   -0.6636770947    1.5534796662
 H   -3.3637591238   -0.8242915950   -1.3020699350
 H   -4.9832626736   -1.8375264307   -2.5382842359