19

 C    0.1239680242    1.4765360035   -0.0212459670
 C   -0.0529472742   -0.0511360213   -0.0005087859
 C   -1.5380872911   -0.4215028635    0.0191868359
 C    0.7189077821   -0.7062922446   -1.1794081073
 C    2.1106422948   -1.0434621291   -0.5866480366
 O    2.0817170777   -0.6573138084    0.7864661755
 C    0.7240013138   -0.6469899119    1.1902181462
 H    1.1829951043    1.7468602255    0.0263848730
 H   -0.2987470585    1.9086982732   -0.9347040918
 H   -0.3808124109    1.9418335087    0.8327780826
 H   -2.0519666318   -0.0398632246   -0.8697151763
 H   -1.6791764663   -1.5074984969    0.0464345274
 H   -2.0405596185    0.0045364068    0.8952187725
 H    0.2106450598   -1.6169912530   -1.5100848381
 H    0.7852655404   -0.0390406111   -2.0428804610
 H    2.3254679280   -2.1188628889   -0.6739399592
 H    2.9301458086   -0.4987712323   -1.0653491557
 H    0.6507017518   -0.0520567354    2.1056983949
 H    0.3669960157   -1.6686215066    1.4103524509