15

 N   -0.1919554038   -1.2027611278   -0.0929709723
 C   -0.1099300299   -0.0508701532   -0.0357233242
 C    0.0376101512    1.3956317692    0.0459067882
 N   -0.2840426339    2.0299651768    1.3865262164
 C    0.7086224680    1.5061932364    2.3457456245
 C    1.1391107752    2.5813212931    1.4281666922
 C    1.4614518765    1.9968135705    0.0763434538
 C    2.7145441916    1.6029312501   -0.5627791656
 O    1.9519185326    2.7464928637   -1.0020081582
 H   -0.5636086211    1.8801747326   -0.7273100486
 H    0.4754343789    1.7831721190    3.3685856212
 H    1.0869182223    0.4944273281    2.2221401883
 H    1.3518904431    3.5991446511    1.7339634440
 H    3.6617865601    1.8342907305   -0.0795764756
 H    2.7257941592    0.7614119700   -1.2526628441