17

 C    0.0096595118    1.4875978908    0.0553339952
 C   -0.0054961767   -0.0044721582   -0.0209801295
 C    0.0133157428   -0.7760554313   -1.1098975363
 C    0.0529416713   -2.2200388225   -0.7245162539
 C    1.2580043489   -2.6419231583    0.0654963923
 N    0.0312214794   -2.2805324463    0.7662332065
 C   -0.0368137671   -0.8745359647    1.2228601787
 C   -0.7192998690   -3.1835384927   -1.4714946410
 N   -1.3186218388   -3.9424873080   -2.1049680907
 H    0.9084323299    1.8491890054    0.5701547138
 H   -0.0183419999    1.9421234291   -0.9378033045
 H   -0.8491677309    1.8592583693    0.6279574032
 H    0.0115384334   -0.4462174988   -2.1404649990
 H    1.5176598801   -3.6945014410    0.1324268593
 H    2.0950351088   -1.9467040696    0.0597908635
 H    0.7943946069   -0.6647720622    1.9080539296
 H   -0.9638729510   -0.7271274611    1.7923126928