20

 C    0.2957188789    1.4938431470   -0.1823230669
 O   -0.1517804011    0.1632617303   -0.3979070226
 C    0.6859143603   -0.5797825468   -1.2480363272
 C    1.9321646036   -1.2554161893   -0.5660177080
 O    1.8199290904   -1.2584969405    0.8377108037
 C    1.5386904218   -2.5971941459   -1.2578680238
 C    0.1732634428   -1.9810235523   -1.5799846220
 C   -1.1779098669   -2.4817034879   -1.2462696873
 N   -0.7295480751   -2.3805127669   -2.6504679136
 H    1.2743290345    1.5137977064    0.3137126757
 H    0.3649786454    2.0457938290   -1.1306081329
 H   -0.4420050334    1.9797167274    0.4600618982
 H    0.9551005208    0.0034351062   -2.1417598939
 H    2.9145136821   -0.8549300640   -0.8305074572
 H    0.9146034485   -0.9870329405    1.0417052222
 H    2.1290615972   -2.8095684027   -2.1540675259
 H    1.5465822857   -3.4682834123   -0.5999018578
 H   -1.2995556284   -3.4971196805   -0.8784440934
 H   -1.9014688884   -1.7623697830   -0.8740321588
 H   -1.1427900088   -1.5585114138   -3.0863196881