17

 O    0.2881093160    0.1196685478   -0.2311689068
 C    0.4448132161    1.2914888788   -0.3929432754
 O    0.9224511167    2.0998289844    0.5805227233
 C    0.9990132744    3.4778278023    0.2947835619
 C    2.2502787308    4.2000345592    0.6759431731
 C    3.5050866728    3.3572068994    0.9211627973
 C    3.8021417550    2.7398138220   -0.4269608076
 C    2.9340259349    3.1313212233   -1.3620170493
 C    1.8902463976    4.0389821252   -0.8044600477
 H    0.2221477797    1.8385897353   -1.3270496038
 H    0.0574251492    3.9914189576    0.4697432096
 H    2.1459938109    5.1490583316    1.1876376702
 H    4.3358722835    3.9783186744    1.2772192924
 H    3.3333896857    2.5885551755    1.6850213342
 H    4.6120600052    2.0356342854   -0.5773890257
 H    2.9404602992    2.8213408918   -2.4002988496
 H    1.4881281924    4.8478343160   -1.4051489362