13

 N   -0.0062352484    1.0476876234    1.0337990140
 C    0.0028536767    0.1347621351    0.1427064114
 N    1.1623364023   -0.3413607847   -0.5030853499
 N    1.4088434157   -1.6332060018   -0.9873128571
 N    0.5756315110   -2.2126509521   -1.6977049651
 C   -0.6183819552   -1.5324928455   -2.1599576614
 N   -0.8171199853   -1.3782812488   -3.3986984357
 N   -1.5894795811   -1.1887775850   -1.2195392995
 C   -1.3026124368   -0.4721089528   -0.2108938908
 H    0.9229049923    1.4249365501    1.2307986761
 H    2.0165916906   -0.0145720279   -0.0689984601
 H   -0.0232628450   -1.7470396933   -3.9267603674
 H   -2.0910726269   -0.2206530868    0.4967205655