17

 C    0.9131581089    0.3416695971    0.8693139211
 C    0.1307083583   -0.3376712150   -0.2322587066
 O    0.5808013609   -0.5211822240   -1.3419252915
 C   -1.2702964223   -0.7983014628    0.1013131058
 C   -1.4155167949   -1.8364547643    1.1525130408
 O   -1.7332987610   -0.4871971899    1.4280373217
 C   -2.3976687304   -0.7412048577   -0.9450427880
 C   -2.1912755334    0.0769741967   -2.1945395306
 O   -3.4283062257   -1.3255936237   -0.7118948769
 H    1.9330429218    0.5184755431    0.5270013513
 H    0.4331156189    1.2931081660    1.1238030295
 H    0.9158720079   -0.2512725797    1.7882401186
 H   -2.2661406045   -2.5069818108    1.0631389952
 H   -0.5225179040   -2.2249715577    1.6401234211
 H   -1.3618908433   -0.3329619056   -2.7758568214
 H   -3.1135253923    0.0770719896   -2.7757551371
 H   -1.9100755650    1.1046189089   -1.9364840530