18

 O   -0.1472544497    0.4780089861    0.9284932335
 C    0.1025492875    1.1957084968   -0.0016702202
 C    1.3539871276    2.0527134459   -0.0910678864
 O    1.3042739874    2.7818326396   -1.2910979528
 C    2.4282519377    3.6209400633   -1.4994833544
 C    2.2007376124    4.3844369080   -2.7947155826
 N    1.0030023758    5.1999392994   -2.7287611017
 C    1.0102372917    6.5455344983   -2.9235140728
 O    1.9870720619    7.2071696600   -3.2050370643
 H   -0.5674354955    1.2925607303   -0.8847780447
 H    1.3996530642    2.7110288824    0.7924749741
 H    2.2370603113    1.3932943826   -0.0465677440
 H    2.5414652388    4.3215176416   -0.6575146734
 H    3.3491723017    3.0206712385   -1.5699642435
 H    3.0362881059    5.0596132867   -2.9905524865
 H    2.1312135813    3.6708349323   -3.6251158985
 H    0.1448862854    4.7466233115   -2.4584497795
 H   -0.0001352154    6.9822419367   -2.7978899123