18

 N    0.1248337216    0.9675384195    0.8350989538
 C    0.0828493057   -0.0436047161    0.0749480555
 O    1.1869358433   -0.4854867057   -0.5926667950
 C    1.1188271134   -1.7184209539   -1.3263528241
 C    0.3626444610   -2.7860510728   -0.5423106923
 C   -1.0797916070   -2.3126435693   -0.3997583458
 O   -1.7045595748   -2.6243223761    0.8596540950
 C   -1.9628176047   -1.2259227441    1.1360557031
 C   -1.2096763142   -0.7933227474   -0.1388874966
 H    1.0697586813    1.3561644550    0.8578379815
 H    0.6454977863   -1.5397242423   -2.3026029700
 H    2.1588014735   -1.9994097592   -1.5055707239
 H    0.4317068753   -3.7538953583   -1.0478953755
 H    0.8099638635   -2.8904364263    0.4517072452
 H   -1.6895856543   -2.6667548033   -1.2417142280
 H   -3.0358163165   -1.0031547353    1.1375506925
 H   -1.5170457199   -0.8932094064    2.0771858843
 H   -1.8163526137   -0.2516688381   -0.8678213697