13

 O    0.0159640741    1.4017972840    0.0078252580
 C    0.0342144274    0.0276498114   -0.0241629529
 C    1.0328067571   -0.4894527900   -1.0363702983
 O    1.6963402008    0.2775334166   -1.6917960566
 C   -0.0359101179   -0.7065745452    1.3679664811
 O   -1.4533539740   -0.2770912176    1.4779933538
 C   -1.3639168210   -0.6918079666    0.0546093924
 C   -0.6553112398   -1.9345609401    0.6525669702
 O   -0.7166875674   -3.1174463496    0.7012883863
 H    0.6767247808    1.6835878803   -0.6463309550
 H    1.1270742791   -1.5866056554   -1.1464619056
 H    0.6035420788   -0.5911030358    2.2394816151
 H   -2.2413718780   -0.5598163120   -0.5734214085