14

 O    0.1351990968    1.3328801692   -0.0843748509
 C    0.1549243239   -0.0408961952    0.0551830426
 C   -0.2903160454   -0.7124833910    1.3267184873
 O   -0.7389184301    0.0143293731    2.4118773398
 C   -1.2166301993   -0.7428124643    0.0952227005
 O   -2.2816771265    0.1566135130    0.1970181026
 C   -1.5397022848   -1.9560598698   -0.6586403567
 O   -2.6451231204   -2.1228203308   -1.1337194852
 H   -0.7917680748    1.6054439207   -0.1322476766
 H    0.9466386689   -0.5207801479   -0.5155892647
 H    0.2043728633   -1.6404286637    1.6043363347
 H   -1.5992109121    0.3875429144    2.1742708750
 H   -3.0100695831   -0.2728379732   -0.2847856218
 H   -0.7297517364   -2.7026361746   -0.7694570967