17

 O   -0.1437273013    0.0227872187   -0.3403338313
 C   -0.0720203890    1.2125305958   -0.3158923951
 O    1.0927475646    1.8655613817   -0.0932010241
 C    1.0093444687    3.2809459379   -0.0080929116
 O    0.4944527578    3.5795458794    1.2625536468
 C    0.6747130223    4.9435007993    1.6297574717
 C    2.1601232187    5.2841444685    1.7582791279
 C    2.9138382201    4.7478174245    0.5708289516
 C    2.3835946216    3.8405481836   -0.2437936007
 H   -0.9233158915    1.8988765648   -0.4822322160
 H    0.3058804950    3.6363540996   -0.7862435906
 H    0.2023366572    5.6019575157    0.8834222752
 H    0.1437117522    5.0697029445    2.5758857516
 H    2.2860908201    6.3710488207    1.8353585335
 H    2.5703508067    4.8583264106    2.6836869710
 H    3.9179850820    5.1221847537    0.3918726716
 H    2.9086603748    3.4570261010   -1.1121242914