19

 C   -0.0190010218    1.5736472376    0.0050431176
 C   -0.0825828707    0.0458715170   -0.0549873115
 C    0.7789558811   -0.5223631650   -1.1896532293
 N    0.7458061768   -1.9723383888   -1.2689943882
 C    1.7236783104   -2.8274492326   -0.8834528446
 N    1.3743129468   -4.0922756556   -1.0374295975
 C    0.1090878302   -4.0441623055   -1.5433261349
 O   -0.5771345620   -5.1715401727   -1.8356113049
 C   -0.3207756634   -2.7507064063   -1.7012921785
 H    1.0050892393    1.9241026660    0.1752098802
 H   -0.3725184179    2.0248865207   -0.9286567291
 H   -0.6410631450    1.9604081151    0.8169395513
 H    0.2554977265   -0.3874287788    0.8933915060
 H   -1.1186748195   -0.2828954662   -0.1939484947
 H    0.4545917317   -0.1099906457   -2.1525618373
 H    1.8245069994   -0.2276256159   -1.0521341327
 H    2.6720312272   -2.4773950571   -0.5034896954
 H    0.0104268854   -5.9040933674   -1.6138706514
 H   -1.2365289945   -2.3256709388   -2.0720100752