17

 O    0.0601889773    1.4507023432    0.0691623270
 C    0.1036149567    0.0414847331    0.1916672135
 C   -1.2704611783   -0.5573940237    0.0527535505
 C   -2.3845622711   -0.3329780860    1.0983734160
 C   -2.7817668572   -1.8374118939    0.9805827397
 C   -1.6407077910   -2.0610131350   -0.0666036377
 C   -2.0712729036   -1.6787802748   -1.4756545413
 O   -2.5118816802   -2.2081251797   -2.4436466514
 O   -1.7911394303   -0.3359664242   -1.3122038832
 H   -0.3069368346    1.6458433629   -0.8010182746
 H    0.7773254167   -0.4155026725   -0.5500168361
 H    0.5037601218   -0.1751312456    1.1876333074
 H   -1.9989141358   -0.0591720085    2.0826723841
 H   -3.1361292371    0.3976368080    0.7972380484
 H   -2.6094370995   -2.4002352518    1.8990491656
 H   -3.7892370933   -2.0565432221    0.6233451037
 H   -0.9625608704   -2.9039308994    0.0502256783