20

 C   -0.0420406229    1.5242180840    0.0798920005
 C    0.0313715830    0.0048914558   -0.0473818833
 C    0.7461681923   -0.4666761309   -1.3045906094
 O    1.1958687906    0.3005688433   -2.1277329466
 C    0.8784162746   -1.9573149683   -1.4953953418
 C   -0.2160151185   -3.0573531058   -1.5785823375
 N    1.0725480968   -3.8734683778   -1.7750001575
 C    1.5123535014   -2.7045559645   -2.6842707077
 C    1.6249023528   -3.0098600081   -0.6288445172
 H    0.9592798043    1.9615946157    0.1049256476
 H   -0.5640447247    1.9610274260   -0.7751187238
 H   -0.5694473758    1.8121305447    0.9933988419
 H    0.5398527073   -0.4458751219    0.8166001458
 H   -0.9717416808   -0.4449864856   -0.0473302075
 H   -0.7628133491   -3.3174860965   -0.6682248292
 H   -0.8707389867   -3.0533858734   -2.4539800221
 H    0.9903968181   -2.6773958903   -3.6433203707
 H    2.5945280737   -2.6363320681   -2.8144298732
 H    2.7165360260   -2.9600322494   -0.6027740444
 H    1.2099262277   -3.2657093390    0.3498118560