19

 C    0.1652769931    1.5462293198   -0.3228131282
 C    0.0631755589    0.0894388246    0.0595196116
 N    1.2949296617   -0.7251258080    0.0552311337
 C    0.5638254615   -0.5380097312    1.3148867212
 C    1.2950828829    0.1194864514    2.4759348427
 C    2.3392962666   -0.8492923032    3.1134058099
 O    3.5894446407   -0.1241600031    3.0414330127
 C    3.2834778362    1.0523394035    2.4513489433
 N    2.0903654157    1.3069248321    2.1150251689
 H    1.0685521717    1.9956272529    0.0860137823
 H    0.1723195979    1.6443892689   -1.4142348550
 H   -0.7009065809    2.1000921033    0.0565511169
 H   -0.8249591082   -0.4017726937   -0.3418067032
 H    1.1209373613   -1.6472712138   -0.3338439364
 H   -0.0321350475   -1.3822860130    1.6683054207
 H    0.5409285503    0.4212622770    3.2134945076
 H    2.1425305908   -1.0842536965    4.1624308134
 H    2.4537182526   -1.7772659648    2.5464637742
 H    4.1289550447    1.7183417239    2.3187574236