18

 O   -0.3287278930    0.2234255261    0.5162358864
 C   -0.0319788127    1.3331003870    0.1213129502
 N    1.2197840741    1.8050939831   -0.1116478185
 C    2.4676499498    1.0895436700   -0.0535230250
 C    2.6237511360   -0.2075717865    0.7007768737
 C    2.6588113011   -0.2093584956   -0.8093975027
 C    3.6250818938    2.0451561002    0.0015116484
 O    3.4418452139    3.3108292917   -0.6450976683
 C    3.5999767014    3.2854475526    0.7843952973
 H   -0.7912533470    2.1121931123   -0.0924861800
 H    1.3017335352    2.7058107662   -0.5650654355
 H    3.5550802203   -0.3492683421    1.2402888953
 H    1.7397469858   -0.6101997407    1.1727469005
 H    1.7900682783   -0.6110502609   -1.3168569679
 H    3.6037892202   -0.3692295699   -1.3180927688
 H    4.5919142530    1.5795425938   -0.1894007829
 H    2.7078650270    3.5403390318    1.3521778806
 H    4.5312435528    3.7116395408    1.1519401371