17

 C   -1.5140762762    0.5410833172   -0.4800561518
 N   -0.2663758862   -0.0748288947    0.0022073418
 C   -0.2493185542   -0.3963995149    1.3886377970
 C    0.9342220481   -1.1366910968    1.9626391798
 N   -1.2853816798   -0.0539506269    2.0475023735
 C    0.8218933604   -0.2339212798   -0.8194505590
 O    1.9505075002   -0.5340324758   -0.4683340258
 C    0.6822811244   -0.1384006828   -2.3531580681
 O   -0.2795102572   -0.4206511130   -3.0146906290
 H   -1.4203321861    0.7947755580   -1.5291848390
 H   -2.3462058134   -0.1520843894   -0.3454456261
 H   -1.7240993535    1.4309101400    0.1147444625
 H    1.8334183491   -0.5191937226    1.9591143616
 H    0.6921169477   -1.4252868767    2.9882150926
 H    1.1743754160   -2.0308239443    1.3837973747
 H   -1.1952371531   -0.3470305007    3.0182597439
 H    1.6743678039    0.0925804032   -2.7900253285