17

 C   -0.0212079482    1.5209769193    0.0058325064
 C    0.0964694008    0.0312410271    0.0011419537
 N   -0.8560934344   -0.8786558299    0.6869890520
 C    0.6048890830   -0.9349799235    0.9938644090
 C    1.3272347676   -1.7576773276   -0.1102134171
 C    0.3714011545   -2.2278134239   -1.1948159172
 C    0.8032045696   -0.7898629700   -1.1444760490
 O    1.5241020721   -0.1558062230   -2.1410768407
 H    0.9035954822    1.9782764581   -0.3589024241
 H   -0.8384866000    1.8613132375   -0.6420706482
 H   -0.2158985359    1.8958885573    1.0165329706
 H   -1.2940048535   -0.3402631062    1.4356935897
 H    0.9670078146   -0.7763314099    2.0020096893
 H    2.3237727042   -2.1638127616   -0.0013848432
 H    0.8686804561   -2.7931378261   -1.9778237522
 H   -0.6398871397   -2.5319790598   -0.9571661065
 H    0.9580873968   -0.0758190280   -2.9172001025