21

 C    0.0713819600    1.4162174111   -0.3437811643
 N    0.0001325375   -0.0081499299   -0.0801591061
 C   -1.2203290271   -0.6386548139    0.0310178533
 O   -2.2854537818   -0.1108217389   -0.2512010439
 N   -1.1467783009   -1.9392248194    0.4865966507
 C   -0.0695125426   -2.9212689492    0.2770121017
 C   -1.1412202083   -4.0420903475    0.3074731720
 C   -2.2249588344   -2.9241141967    0.2648571317
 C   -3.3277495613   -2.9336685935    1.3082830077
 H    0.1911197722    2.0094510577    0.5726052756
 H    0.9055142040    1.6395275564   -1.0163387620
 H   -0.8647068821    1.7076959076   -0.8208228692
 H    0.7850545512   -0.4337486852    0.3858400128
 H    0.4364233054   -2.8104141787   -0.6909310480
 H    0.6876787895   -2.9480192053    1.0692998984
 H   -1.1309361741   -4.7368450345   -0.5324896664
 H   -1.1480431353   -4.6068692132    1.2419042049
 H   -2.6626672400   -2.8034149867   -0.7342612930
 H   -2.9114168136   -3.0455799809    2.3147566803
 H   -3.8872871517   -1.9958190891    1.2646666555
 H   -4.0211770567   -3.7616149300    1.1238556485