16

 O    0.5392562058    0.9803794250   -0.5375365814
 C    0.1598359106   -0.1523227484    0.1589864185
 C   -0.0697362688   -0.1051850036    1.6924263503
 C   -1.2659125011   -1.0713421764    1.5261975444
 C   -1.3213721704   -0.7156423345   -0.0165859857
 C   -2.3511642859    0.3770290258   -0.2499180066
 O   -2.1478681130    1.5428886695   -0.0095508984
 C   -1.5279452382   -1.8237740410   -0.9301325870
 N   -1.6863403431   -2.7090674449   -1.6574536759
 H   -0.1090154773    1.6696698403   -0.3360017934
 H    0.8610324015   -0.9460712431   -0.1107453955
 H    0.7547939692   -0.4311647902    2.3278537368
 H   -0.3945191753    0.8895114126    2.0058422808
 H   -0.9989398370   -2.1210127679    1.6561841637
 H   -2.1741789113   -0.8619422105    2.0932673139
 H   -3.3331020856    0.0314191773   -0.6311683745