19

 O    0.0237331659    1.3571206068   -0.0770712301
 C   -0.0412556790   -0.0319096634    0.1074554923
 C   -1.4750308927   -0.5146706749   -0.0911895399
 O   -2.3950469809    0.2411927160   -0.2882676736
 C   -1.6689529837   -2.0035910703   -0.0307088305
 C   -1.1073094376   -3.0302443000    1.0100703366
 C   -1.9475687254   -3.8640405176    0.0011611797
 C   -3.0290424643   -2.7455192379    0.0691756076
 C   -1.2690179231   -3.0473153988   -1.1342056994
 H    0.9304483077    1.6361267859    0.0793976710
 H    0.6032181929   -0.5885888897   -0.5953905529
 H    0.2684466086   -0.3430816972    1.1209786934
 H   -0.0268492681   -3.1997606613    1.0063936075
 H   -1.4979702406   -2.9450069549    2.0277007278
 H   -2.1130035586   -4.9412063336    0.0223798915
 H   -3.5694027943   -2.6367313946    1.0126186621
 H   -3.6968096581   -2.6495603257   -0.7893368601
 H   -1.8080619204   -2.9702898310   -2.0816296965
 H   -0.1989519986   -3.2116432078   -1.2889920367