20

 C   -0.8521836645    1.4971853892    0.0882672158
 C   -0.1337257106    0.1547158668    0.0596551193
 C   -1.0880295205   -0.9717914914   -0.3499641256
 N    1.1283039612    0.1850488815   -0.7425149783
 C    1.8644239777   -0.5866458623    0.2742398075
 C    3.2012793171   -0.0887616141    0.5868455252
 N    4.2429957016    0.3136363766    0.8869268356
 C    0.7200649196   -0.2370039642    1.3176107235
 N    0.9374271674    0.8122549023    2.2781214701
 H   -0.1695749406    2.3106373177    0.3394501704
 H   -1.2786960260    1.7119184669   -0.8979781100
 H   -1.6660179369    1.4907653611    0.8193224185
 H   -1.4936452690   -0.7879592934   -1.3513508936
 H   -0.5834016293   -1.9440013291   -0.3616747820
 H   -1.9330040210   -1.0399913822    0.3433590392
 H    1.0845593255   -0.2447065008   -1.6611393490
 H    1.9301609138   -1.6671920017    0.0889108898
 H    0.3506408794   -1.1180296588    1.8461413299
 H    1.5193414162    0.4831813048    3.0420019961
 H    1.4244884988    1.6002259411    1.8618709777