17

 C   -0.0770436982    1.4985024244    0.0079702177
 C    0.0951574831    0.0103364729    0.0102307292
 C    1.0007682113   -0.7997342072   -0.9525304242
 C    0.6815686551   -1.9370577537    0.0733838629
 C    0.7195235164   -0.8027927818    1.1775894731
 O    1.9875913187   -0.3178271261    1.5228736459
 C   -0.8252011506   -2.0091536487   -0.0919109668
 O   -1.5932326597   -2.9202592139   -0.1594645145
 O   -1.1905914136   -0.6821526842   -0.1297181868
 H    0.8864191952    1.9781096601    0.1991597132
 H   -0.4579946546    1.8440406254   -0.9573784773
 H   -0.7812400448    1.8055417613    0.7867794028
 H    0.6525834013   -0.9217837797   -1.9800107562
 H    2.0427358633   -0.4864877099   -0.9122983212
 H    1.2207834949   -2.8779900390    0.1436742977
 H    0.0751704396   -0.9493861560    2.0536719211
 H    2.3870752529   -0.9238077038    2.1548245934