11

 N    0.0055074650    1.4425797832    0.0001053940
 C   -0.0833335455    0.0700229225   -0.0027907830
 C   -1.1145991492   -0.7741398365    0.0436616196
 O   -2.4301759458   -0.5713023486    0.1097407374
 O   -0.6775268879   -2.0755499539    0.0151782801
 C    0.7092907965   -2.0393712273   -0.0532749241
 O    1.4006790094   -3.0055465663   -0.0922729021
 O    1.0915967489   -0.7511666985   -0.0651353435
 H    0.4896097005    1.8215598174    0.8068164284
 H    0.4079555361    1.8303320657   -0.8463270746
 H   -2.8699287579   -1.4300880776    0.1268790477