16

 O   -0.4401478197    0.4466145760   -0.5864831951
 C    0.2859423226    0.8385098386    0.2916729061
 C    1.3419502868    1.8978089415    0.1249388765
 C    1.4068096922    2.8128762163   -1.1165193866
 C    0.1003271313    3.3201113221   -1.7927676965
 C    0.2386859745    4.6257300953   -0.9527810432
 N    1.4057654755    4.0259191129   -0.2154414218
 C    1.0952051152    3.2324933821    0.9095003796
 O    0.6863862538    3.5115500863    1.9968038412
 H    0.2160185001    0.4387022430    1.3259972443
 H    2.3105876129    1.4580546840    0.3932124298
 H    2.2752381416    2.6936861034   -1.7656164776
 H    0.1677071716    3.4474248172   -2.8740452060
 H   -0.7782811830    2.7188361154   -1.5620400539
 H    0.5455941594    5.5056536036   -1.5219569480
 H   -0.5898727048    4.8939486521   -0.2935227987