19

 C    0.0449084641    1.5005872936   -0.0629649931
 C    0.0222241716    0.0044068775   -0.0586689730
 C    0.1552672206   -0.8032889280   -1.1166977363
 C    0.0747230512   -2.2637452929   -0.7623243184
 C   -0.2959430893   -2.2371080875    0.7670852885
 C   -1.7461763263   -2.7046969854    0.4285787271
 C   -1.3151986791   -2.8823714129   -1.0387786509
 O   -1.8319238466   -3.3658730897   -2.0024646637
 C   -0.1375851575   -0.7777396941    1.2304366685
 H    0.8417006399    1.8852459890    0.5865688760
 H    0.2010207647    1.9011053734   -1.0679556411
 H   -0.8959258816    1.9110964066    0.3254342484
 H    0.2878295577   -0.4672164416   -2.1393778453
 H    0.9229835872   -2.8588659320   -1.1164295212
 H    0.2428641133   -2.9521038532    1.3888305642
 H   -2.0870507589   -3.6292250737    0.9029588728
 H   -2.5198670506   -1.9423407854    0.5688105253
 H    0.7369727060   -0.6360144628    1.8804920038
 H   -1.0046349264   -0.4392686010    1.8143481683