16

 O    0.1142185927    1.1530970043   -0.5839857287
 C    0.0853755096   -0.1401283007   -0.0203926999
 C   -1.3651133583   -0.5687993571    0.2312445533
 N   -2.1774499415   -0.5164819102   -1.0217300137
 C   -2.6112575719   -1.9470222959   -0.9106013205
 C   -2.3761681488   -2.7875373236   -2.0658481585
 C   -2.1625616256   -3.5061714548   -3.0050378220
 C   -1.6396013426   -2.0748117808    0.3091432011
 O   -1.2622037311   -2.9768041821    0.9863408662
 H   -0.3936826713    1.0886960524   -1.4031775472
 H    0.5752535867   -0.8772343367   -0.6741910329
 H    0.6385561243   -0.1024869706    0.9223871899
 H   -1.7860614841   -0.0063447084    1.0741868759
 H   -2.9579832133    0.1275495972   -0.9735213385
 H   -3.6472537569   -2.0648729854   -0.5598854713
 H   -1.9754038380   -4.1367814476   -3.8389788334