18

 C   -0.0810176232    1.5472247891   -0.0075230441
 C    0.0457184378    0.0290075797    0.0185305813
 C    1.0965072529   -0.5970059557   -0.9277279430
 O    2.3488611495   -0.0580942701   -0.3592697565
 C    2.1740030528   -0.0746959012    0.9998077532
 N    3.0179154941    0.2858804484    1.8662802740
 C    0.7674725317   -0.6120070391    1.2519757124
 C    0.8369904358   -2.0680903724    0.7949835000
 C    1.0262789204   -2.0616744968   -0.5280534937
 H    0.8860896376    2.0434274944    0.1032673132
 H   -0.5262665012    1.8781243783   -0.9517126266
 H   -0.7317029340    1.8907508618    0.8030853805
 H   -0.9291440487   -0.4419550099   -0.1269933616
 H    1.0824804674   -0.3388054063   -1.9844468382
 H    3.8831223349    0.5913683018    1.4154965358
 H    0.3904696069   -0.4123029273    2.2515448971
 H    0.8202317316   -2.9158118421    1.4665850511
 H    1.1971307137   -2.8999673227   -1.1892104249