18

 C   -0.3498103767    1.4113744320    0.0592870805
 N   -0.0986063977   -0.0066422160    0.0392617968
 C   -0.9942062986   -1.1683325337    0.0952060733
 C    0.2665479798   -2.0742491971    0.0386140731
 C    0.5839643468   -2.9547172906    1.2457668645
 C    0.4432333986   -2.8197009214   -1.2650093802
 O   -0.3212140722   -2.7786500287   -2.1955200077
 C    1.0658570809   -0.7157225671    0.0164476310
 O    2.2269082456   -0.4029373455    0.0046473268
 H    0.6146837480    1.9217350813    0.0085999595
 H   -0.9601443788    1.7188561286   -0.7978832504
 H   -0.8632405851    1.7151400161    0.9797216696
 H   -1.5649448752   -1.2395836956    1.0277550931
 H   -1.6562995662   -1.2650259891   -0.7688611908
 H   -0.1104603696   -3.7981022918    1.3187682774
 H    1.6004524743   -3.3531796210    1.1688997984
 H    0.5226401204   -2.3788657749    2.1734613267
 H    1.3783282858   -3.4201207255   -1.3137772318