23

 C   -0.5279555485    1.3898290726    0.2245991367
 C    0.3897229068    0.2239442998   -0.1682642647
 C    1.0054453338   -0.4748715345    1.0336338802
 C    2.0549173082    0.3190492892    1.7877281829
 O    0.0657353004   -1.1626054863    1.8854307157
 C    1.0227378025   -1.9475486942    1.1603353836
 C    0.5087096955   -2.9273223241    0.1614116006
 C    1.4739320017   -3.9079006939   -0.4650413354
 C    0.4559303916   -4.3921267052    0.5314743050
 H    0.0187249055    2.1892587472    0.7340323491
 H   -0.9995680464    1.8261965354   -0.6608809831
 H   -1.3174934832    1.0396861817    0.8958303376
 H   -0.1845363924   -0.4941301142   -0.7589470720
 H    1.1993167573    0.5836916040   -0.8160685056
 H    1.6448559452    1.2644543218    2.1568166454
 H    2.4191063672   -0.2464426140    2.6489610700
 H    2.9058604983    0.5531137706    1.1385536637
 H    1.8138488450   -2.3620829272    1.7934869210
 H   -0.2987184358   -2.5695137753   -0.4667526667
 H    1.3392817621   -4.1566754210   -1.5115134625
 H    2.5117459654   -3.8656614017   -0.1504875376
 H    0.8050840981   -4.6745056131    1.5192582468
 H   -0.3841826781   -4.9761167875    0.1732315594