14

 O    0.0508946473    1.4010574961   -0.1059317621
 C   -0.0037279825   -0.0025749842   -0.0371134142
 C    0.6079490406   -0.5259145080    1.2725997736
 N    1.7527645631   -0.1605574897    1.6736655007
 N   -0.3480458916   -1.3571425646    1.8518795419
 C   -1.5361714138   -1.3015312822    1.1376055776
 C   -1.4253935440   -0.5333778167    0.0353862084
 C   -2.4240925112   -0.3077228123   -0.9329191323
 N   -3.2360932982   -0.1160000361   -1.7382818870
 H    0.9273033311    1.6496650450    0.2195363028
 H    0.5273445442   -0.4609574305   -0.8875646172
 H    2.0043945586   -0.5447826653    2.5848198420
 H   -0.2752528436   -1.7275135125    2.7855907447
 H   -2.3960539599   -1.8607532888    1.4779761710