20

 C   -0.1177229045    1.6977954526    0.0277405047
 C    0.0970008115    0.1753626416    0.0563767047
 C    0.8889788897   -0.2404440484    1.3047659120
 C   -1.2757397274   -0.5664170760    0.0363643915
 C   -2.1321152888   -0.2439966796    1.1744723132
 N   -2.7981696745    0.0253180431    2.0801219642
 C    0.7964066099   -0.2399286804   -1.2353291169
 C    2.2280966042   -0.5369455929   -1.3622737871
 O    1.2573145083   -1.5884743947   -1.3332057817
 H    0.8432907240    2.2208954396    0.0102370789
 H   -0.6855560378    2.0065106575   -0.8571290379
 H   -0.6690215765    2.0297271343    0.9121020259
 H    0.2894897118   -0.0864185991    2.2061607287
 H    1.1695994273   -1.2962488383    1.2521563072
 H    1.7990855895    0.3568917080    1.4093081638
 H   -1.8205368387   -0.3184611809   -0.8823678786
 H   -1.0998025233   -1.6474276338    0.0207652274
 H    0.2852332815    0.1081261689   -2.1369834027
 H    2.7206110165   -0.3860400745   -2.3216590662
 H    2.8798235774   -0.4832421471   -0.4939815411