21

 C   -1.0351756220    1.0063753658    0.0181803039
 C   -0.1162867446   -0.2088379805    0.0326758257
 C    1.2017108064   -0.2242288011   -0.8081995329
 C    1.9461181251   -0.8639403673    0.3928607144
 O    2.7006916746    0.0968423983    1.1520777289
 C    1.6057966601    0.3019663898    2.0867849226
 C    1.3147517923    1.7681954063    2.3369176858
 C    0.6913291972   -0.6747087678    1.2832583830
 O    0.1520264821   -1.7347487111    2.0242603362
 H   -0.4959501957    1.9422664748    0.1781439476
 H   -1.5441051767    1.0834306487   -0.9489021506
 H   -1.8123507049    0.9324966514    0.7884170403
 H   -0.7031193884   -1.0920095674   -0.2465052559
 H    1.1576152704   -0.8187560577   -1.7235032537
 H    1.6061692035    0.7635211818   -1.0413516697
 H    2.4658815795   -1.8144173909    0.2551104269
 H    1.8379006422   -0.1952668517    3.0398053087
 H    0.4196653355    1.8876731840    2.9571618391
 H    2.1558194950    2.2220773736    2.8713573568
 H    1.1774392251    2.3201139372    1.4053336773
 H   -0.7185872666   -1.4708917461    2.3419064956