18

 C   -0.0198290687    1.5179804642   -0.2086771095
 O    1.3600363741    1.6244065496    0.2148157603
 C    1.4513062107    0.1964339613    0.4359474960
 C    1.4735185687   -0.2714065018    1.9001492836
 C    0.5690259262   -1.5430246809    1.7846550306
 C   -0.5389454599   -0.4796764916    1.4819299784
 C    0.2215904744    0.4282735131    2.4927825310
 C   -0.0551534828    0.0096760817    0.1033239768
 H   -0.6855628260    2.1648915832    0.3760741607
 H   -0.1288968749    1.7628707916   -1.2726810985
 H    2.2185030338   -0.2643402129   -0.1940951846
 H    2.4321081923   -0.2833145290    2.4184488520
 H    0.8014090686   -2.2775518403    1.0063582044
 H    0.4301341330   -2.0442856086    2.7447670212
 H   -1.6000035435   -0.7019763923    1.5981942700
 H    0.0346667064    0.1245799715    3.5248304180
 H    0.1519726248    1.5130120898    2.4016087647
 H   -0.3426165372   -0.6505214685   -0.7157805750