19

 C   -1.4315811318    0.5315613079    0.7546628195
 C   -0.0576117908    0.2119027603    0.1630042779
 O    0.7352431101   -0.2810633608    1.2378510570
 C    2.1087355396   -0.5364359238    0.9280983644
 C    2.9433573900    0.7536025216    0.9366127943
 C    2.6091646940   -1.4948385013    1.9126773692
 C    3.0571023981   -2.2674931417    2.7157329401
 C   -0.1522092362   -0.7494792668   -0.9450377468
 C   -0.2354579830   -1.5337534399   -1.8525541734
 H   -1.3187848469    1.2593609209    1.5617948103
 H   -2.0898171612    0.9436529832   -0.0139527284
 H   -1.8831727083   -0.3772876262    1.1587279290
 H    0.3795907258    1.1425815467   -0.2322278518
 H    2.1694111375   -1.0017551196   -0.0669766125
 H    2.8760242229    1.2347419908    1.9153056908
 H    3.9918728004    0.5240737942    0.7283956171
 H    2.5899027316    1.4513147567    0.1720823905
 H    3.4410177937   -2.9592611078    3.4240844354
 H   -0.3094676253   -2.2282411544   -2.6529284025