17

 C    0.2340573673    1.4138676989    0.0177921446
 N    0.0432533210   -0.0183068964    0.0841899293
 C    0.4171049541   -0.7026410006   -0.9088044746
 N    0.2717789118   -2.0807196223   -0.9869206973
 C    0.9051592474   -2.9934881569   -1.9432047856
 C    2.1444343689   -3.5878445329   -1.3549013739
 C    0.7716891406   -4.1222890153   -0.9400965805
 C    0.1068031762   -3.1109781000   -0.0149448976
 O   -0.3832055186   -3.1221223588    1.0712246529
 H    0.8618106502    1.7397921124    0.8552161392
 H    0.6982961650    1.7604675264   -0.9209651928
 H   -0.7322802993    1.9185616642    0.1326265139
 H    0.8692016780   -0.2835500429   -1.8219297401
 H    0.6276484607   -2.9874557264   -2.9884584239
 H    2.7125540809   -4.2604994585   -1.9912833153
 H    2.7378152942   -3.0096502652   -0.6533409423
 H    0.4713630915   -5.1479145258   -1.0943630659