17

 C    0.1520122918    1.4750749243   -0.0860882401
 N   -0.0419774275   -0.0062473957    0.0732965533
 H   -1.0345771543   -0.2492215208    0.0474536496
 H    0.4084117259   -0.4884604171   -0.7105896178
 C    0.6423226422   -0.5356412858    1.3235688502
 C    0.7266105820   -2.0779297435    1.3893738045
 C    2.2212499368   -1.9112820635    1.1305948324
 C    3.2274463007   -2.8749906025    0.9943505308
 N    4.0420001811   -3.6979967441    0.8753219113
 C    2.1918456328   -0.5093893715    1.0749864595
 O    2.9031175937    0.4677542812    0.8413787942
 H    1.2228956853    1.6576527327    0.0396426978
 H   -0.2078498249    1.7810847594   -1.0693204783
 H   -0.4170782771    1.9751643678    0.6980003773
 H    0.2088855853    0.0080098040    2.1665994343
 H    0.4176946766   -2.4846005669    2.3609473091
 H    0.1395660797   -2.6036595979    0.6183797918