14

 C    0.1045592368    1.0270439402    0.3570017811
 O   -0.1144614527   -0.1045370198   -0.4746039006
 C   -1.3876585496   -0.6569126154   -0.2902630072
 C   -1.5574236971   -2.0685589686   -0.7851482778
 C   -1.4634298153   -1.7920415648    0.7013873658
 O   -0.3055269749   -2.1278060187    1.4025621866
 H    1.1190549842    1.3788618393    0.1565643458
 H   -0.6054435198    1.8329622533    0.1223444166
 H    0.0086731166    0.7718457868    1.4204244577
 H   -2.2079634197    0.0538942315   -0.3907087190
 H   -2.5101557715   -2.3516482025   -1.2192156243
 H   -0.6878762087   -2.5220073817   -1.2498556967
 H   -2.3474320179   -1.9157905934    1.3179620791
 H    0.4237193696   -1.6972645562    0.9364327630