20

 N   -0.1131196219   -1.1856172030    0.0476154334
 C   -0.0851285011   -0.0302707207    0.0279181260
 C   -0.0228967714    1.4295133125    0.0009066500
 C    1.4265862055    1.9793423520    0.0284323626
 C    1.4131349125    3.5050899776   -0.1605400730
 C    2.7911316722    4.1094407390    0.1315340264
 C    3.2123522743    3.8376262447    1.5831238879
 C    2.9170106439    2.4198914746    1.9968655203
 C    2.1408314134    1.5894480618    1.3015705591
 H   -0.5347519006    1.7792045152   -0.9031993939
 H   -0.5846173452    1.8185824682    0.8582634177
 H    1.9520322711    1.5229867422   -0.8235506108
 H    1.0883778486    3.7527483053   -1.1776323621
 H    0.6734003419    3.9442698654    0.5233258724
 H    3.5288207476    3.6652853037   -0.5487526201
 H    2.7857367198    5.1857255234   -0.0692016077
 H    4.2817146932    4.0452531343    1.7135752135
 H    2.6970442896    4.5310884275    2.2647176814
 H    3.3803073928    2.0695628378    2.9164417966
 H    1.9943098238    0.5682053884    1.6455249702