17

 C   -0.0205723194    1.6215569545   -0.0007868900
 C   -0.0025134581    0.0851161817    0.0154713425
 C    0.7383166780   -0.5109906767   -1.1570018315
 C    1.7872672529   -1.2304564352   -0.7714289250
 C    1.9149151723   -1.2649713960    0.7255383398
 N    0.7550858646   -0.4759290887    1.1476978347
 C    0.3493740514   -0.4530257426    2.4391880843
 O    0.9419748865   -0.9824557674    3.3589370057
 H    0.9987939899    2.0168498161   -0.0291856230
 H   -0.5599716510    1.9846323763   -0.8818893537
 H   -0.5223625732    2.0172232946    0.8871499866
 H   -1.0425364534   -0.2739804979    0.0440060963
 H    0.4257197989   -0.3246214518   -2.1769261632
 H    2.4857382490   -1.7422786167   -1.4212539952
 H    1.8655462129   -2.2775936387    1.1464022789
 H    2.8558235503   -0.8257080206    1.0853368002
 H   -0.5976494115    0.1078236391    2.5741760025