18

 C   -0.0801844109    1.4941505146    0.1151092042
 C   -0.0044682794    0.0144271211   -0.0736255392
 C   -0.0558413122   -0.7740771036   -1.2068030176
 C    0.0680104664   -2.1061764366   -0.7461549297
 N    0.1819440191   -2.1465772704    0.5806252200
 N    0.1407167014   -0.8522033860    0.9614733959
 C    0.0797442518   -3.3534561805   -1.5413469984
 C    1.0970045145   -4.4076346111   -1.2572452515
 N   -0.3100858025   -4.6239871642   -0.9043704809
 H    0.8346740747    1.8953862412    0.5662043341
 H   -0.2187417027    1.9867299912   -0.8492602238
 H   -0.9191374978    1.7806078373    0.7596592112
 H   -0.1662605172   -0.4337443215   -2.2242012337
 H    0.1948345742   -0.6326249789    1.9418574876
 H   -0.2743682965   -3.2402860234   -2.5626967799
 H    1.4714509335   -5.0306696290   -2.0655250782
 H    1.8066863468   -4.1974718924   -0.4621350583
 H   -0.4329165731   -4.4402579881    0.0903307583