27

 C    0.2011516223    1.4874512070    0.2540597006
 C    0.0021779742   -0.0302468457    0.2651996284
 C   -1.3800517281   -0.4612211223   -0.2460259249
 C   -1.5590466001   -1.9662383979   -0.2456365407
 C   -2.0189924877   -2.7090533695    0.9907141996
 C   -2.8988135599   -2.6767862986   -0.2418594054
 C   -4.1843773764   -1.8700565160   -0.1935529395
 C   -2.9843962271   -3.9586307615   -1.0643512188
 C   -3.9667082430   -5.0032731158   -0.5189766744
 H    1.1957595524    1.7636918113    0.6182238972
 H    0.0926446265    1.8941878895   -0.7577722798
 H   -0.5367385036    1.9893243512    0.8903311382
 H    0.7782649315   -0.5062468539   -0.3488855977
 H    0.1436947547   -0.4162563240    1.2826075808
 H   -2.1496465570    0.0168102321    0.3717951730
 H   -1.5233592633   -0.0712117757   -1.2639506000
 H   -0.7915231414   -2.4784996520   -0.8244177407
 H   -1.5271991193   -3.6392442788    1.2583057862
 H   -2.3260960170   -2.1130877361    1.8455701708
 H   -4.0788732723   -0.9625986449    0.4054045148
 H   -4.5013074511   -1.5696509362   -1.1999390118
 H   -4.9998992410   -2.4528319929    0.2477921720
 H   -3.2597016417   -3.7044774433   -2.0976351453
 H   -1.9853580616   -4.4082644554   -1.1190079463
 H   -3.9302876411   -5.9201097542   -1.1158610068
 H   -3.7250741565   -5.2667304283    0.5163403692
 H   -4.9995328924   -4.6422136085   -0.5375795985