19

 C    0.1409642765    1.5183143241    0.1483567945
 N    0.1290589285    0.0598476735    0.0316336626
 C    0.7307058694   -0.4638106309   -1.1789977677
 C    2.2944359284   -0.4398581086   -1.2762810010
 O    2.3644880321   -1.8281122579   -0.9115446451
 C    0.9530699987   -2.0175649312   -1.1560680506
 C    0.2631773948   -2.8803028487   -0.1249840191
 C    0.0224821321    0.0405789384   -2.3566114983
 N   -0.5105749190    0.4244815240   -3.3074198610
 H    1.1426150666    1.9724769105    0.0699026313
 H   -0.4889391751    1.9524600265   -0.6331274684
 H   -0.2846180184    1.7941734858    1.1162061490
 H    0.6060553241   -0.3509249450    0.8266937629
 H    2.6863310060   -0.2516568014   -2.2834418049
 H    2.8012412347    0.2081489894   -0.5531963362
 H    0.7939189272   -2.4345844546   -2.1599981813
 H    0.3970819936   -2.5029373047    0.8912841571
 H   -0.8079708991   -2.9405124946   -0.3373981364
 H    0.6820388286   -3.8903606544   -0.1677121473