23

 C   -0.2050934373    1.5097637031   -0.0199568003
 C    0.0377534105    0.0026463348    0.0324751927
 C    0.9955153829   -0.5538592456   -1.0829162007
 C    2.0208597847   -1.2926842788   -0.1974971593
 C    1.1003696288   -1.9910664504    0.8503883845
 C    0.8057696356   -0.5195442690    1.2747038877
 C    2.2800896055   -0.2569176833    0.9110401429
 C    3.4491735459   -0.2284339245    1.8396885327
 C    3.1407627208    0.9634298322    0.9445040233
 H    0.7332175301    2.0709369083    0.0083398989
 H   -0.7283914471    1.7868058874   -0.9418584920
 H   -0.8224964243    1.8418163117    0.8225024666
 H   -0.9336896146   -0.5033278837   -0.0221305630
 H    0.4868293043   -1.2216030652   -1.7846616472
 H    1.4592619047    0.2527327494   -1.6601164212
 H    2.8382761417   -1.8183653296   -0.6935771879
 H    0.2624687859   -2.5880651429    0.4770286945
 H    1.6638466312   -2.5453707762    1.6027372175
 H    0.4001288605   -0.2693923105    2.2568059634
 H    3.2685997767   -0.1180556911    2.9047915849
 H    4.3205886015   -0.8301593138    1.5994166671
 H    3.8038026957    1.1532077900    0.1054805569
 H    2.7621129363    1.8628702677    1.4194165581