19

 C    0.0376652308    1.4956423951   -0.0510609449
 C    0.0124220179   -0.0201425320   -0.0351323820
 C    1.3341700915   -0.7553742691   -0.1729349832
 C    0.6332594587   -0.7298576299    1.1555232585
 C   -1.1860587122   -0.6440702451   -0.6553778991
 N   -1.3290294650   -1.9708279875   -0.7049902923
 N   -2.5091500817   -2.1668099451   -1.3240894337
 C   -3.1247867408   -1.0139417329   -1.6713285061
 C   -2.2956948546    0.0050058421   -1.2536049678
 H    0.9498300482    1.8689090132    0.4233066677
 H    0.0111352936    1.8868061220   -1.0746090636
 H   -0.8160281522    1.9168770993    0.4921884168
 H    1.3200265275   -1.6841832851   -0.7307895744
 H    2.2296172420   -0.1549107865   -0.2974833685
 H    1.0454181395   -0.1119161109    1.9468095997
 H    0.1502258737   -1.6417255317    1.4860973549
 H   -2.8287679199   -3.1081754396   -1.4739840137
 H   -4.0786550550   -1.0076411299   -2.1747436247
 H   -2.4665338821    1.0626443136   -1.3643715738