19

 C   -0.2549608857    1.5686478759    0.1369176883
 C    0.1389704792    0.1185482070   -0.1719863211
 C    0.8030809650   -0.5415697362    1.0375819329
 C    0.7998697597   -1.9339258099    1.5531250504
 C    0.9686897916   -3.0989751117    0.5622620344
 C    1.0586632009   -2.6683468054   -0.8747267472
 C    2.2027916913   -2.3863651433    0.0658686404
 N    2.0911129101   -1.2809796150    1.0999504548
 H    0.6219484514    2.1642534514    0.4115489483
 H   -0.7248256801    2.0413670090   -0.7307988013
 H   -0.9651807815    1.6170747210    0.9694394915
 H   -0.7547083587   -0.4371123090   -0.4752565931
 H    0.8263056718    0.1094672411   -1.0232404971
 H    0.8249166247    0.1518910551    1.8807176341
 H    0.6412537825   -2.1362331239    2.6094844412
 H    0.8474500595   -4.1303262640    0.8648484624
 H    1.2852286378   -3.4920025807   -1.5473979873
 H    0.4185864820   -1.9207924886   -1.3153253427
 H    3.2035426787   -2.7558477127   -0.1167956091