13

 O   -0.0066783240   -0.0689154128    0.0039047125
 C   -0.0157022937    1.1484515832    0.0099430429
 C   -1.2399200459    1.9545544912    0.0298596638
 C   -1.2008575223    3.2946634013    0.0357922361
 O   -0.0486431134    4.0075421046    0.0241014718
 C    1.1172641213    3.3318375711    0.0055432614
 C    1.2189088352    1.9807657522   -0.0022926269
 C    2.4942177311    1.3599908632   -0.0220447153
 C    3.5721748604    0.8254911305   -0.0387564996
 H   -2.1918375695    1.4384776211    0.0398593034
 H   -2.0624627358    3.9497903996    0.0502424228
 H    1.9659781826    4.0033226942   -0.0023773792
 H    4.5176053940    0.3421671506   -0.0534147338