21

 C   -0.1516408639    1.4902432696    0.0254494692
 C    0.1121132267   -0.0045132883    0.0687823268
 O    0.5902748521   -0.4025525485   -1.2136662987
 C    0.8314780817   -1.7751623731   -1.3559396807
 C    0.9297238297   -2.1860639746   -2.8278419073
 C    1.7255423026   -3.5071694691   -2.7931681477
 C    2.7948070479   -3.2755199113   -1.7092721083
 C    2.1747963578   -2.2539140965   -0.7533104354
 O    2.6582262476   -1.8577555747    0.2765806592
 H    0.7711470722    2.0356060376   -0.1917143352
 H   -0.8841000476    1.7323442746   -0.7501729103
 H   -0.5379040896    1.8344247647    0.9895657092
 H    0.8492594120   -0.2524938261    0.8400956332
 H   -0.8156154345   -0.5558628619    0.2992795168
 H    0.0367515153   -2.3668009661   -0.8610766937
 H   -0.0467811500   -2.2797239209   -3.3072461963
 H    1.4914506067   -1.4101069183   -3.3611964645
 H    1.0658149450   -4.3325886048   -2.5018313235
 H    2.1517271172   -3.7647753295   -3.7652154784
 H    3.1191539993   -4.1722484575   -1.1752035315
 H    3.6976310117   -2.8148885652   -2.1304018830