25

 C   -0.0882517388    1.7131658225   -0.3193454962
 C   -0.2461730731    0.1878061977   -0.3049449126
 C    0.8310252117   -0.5368003692   -1.1170409547
 C    2.2566619851   -0.4174285241   -0.5340803203
 O    2.9388286347   -1.6376403320   -0.8252624275
 C    2.1157600904   -2.4311500674   -1.6677476238
 C    0.6636159924   -2.0748241554   -1.3041299904
 C    0.2672141426   -2.7890468199   -0.0000168625
 C   -0.3197199042   -2.4260459624   -2.4236062145
 H    0.8644394195    2.0238142073    0.1227263111
 H   -0.1209618815    2.1044256902   -1.3423822900
 H   -0.8883062750    2.1980866122    0.2484477970
 H   -0.2272434131   -0.1675733096    0.7323223104
 H   -1.2354222875   -0.0727190565   -0.7026265967
 H    0.8383473887   -0.0987674699   -2.1251556124
 H    2.8083209847    0.4291982200   -0.9634007231
 H    2.2384494902   -0.2825902515    0.5565072296
 H    2.3115535979   -2.2086174058   -2.7307079041
 H    2.3642517756   -3.4825531233   -1.4889579437
 H    0.9833267987   -2.5862901276    0.8017070550
 H   -0.7260819791   -2.4846135238    0.3431717893
 H    0.2427417363   -3.8731047657   -0.1555048609
 H   -0.3560474790   -3.5081661827   -2.5926173611
 H   -1.3363510956   -2.1022811044   -2.1753140267
 H   -0.0367177317   -1.9483459987   -3.3678480311