16

 C    0.7453872194    1.3368279504    0.5848092203
 C    0.1525521772    0.0569310199    0.0999094939
 N    0.5584682729   -0.5395285207   -1.0139446909
 N   -0.2322789143   -1.6413540968   -1.0667631948
 C   -0.0775530910   -2.5704121100   -2.1789619849
 C   -0.9931529353   -3.6997245130   -2.1001462924
 C   -1.7374727811   -4.6406073848   -2.0583720941
 C   -1.0611655476   -1.6575050048   -0.0039640280
 N   -0.8489195221   -0.6010602917    0.7570059527
 H    1.1762735334    1.2089885352    1.5827187528
 H    1.5261116627    1.6743338911   -0.0987747916
 H   -0.0220578115    2.1134495554    0.6605480262
 H   -0.2353554033   -2.0174645852   -3.1121957218
 H    0.9604308105   -2.9226702900   -2.1900079015
 H   -2.3951644151   -5.4743800945   -2.0238992959
 H   -1.7814227248   -2.4425459106    0.1624291601