18

 O    0.0922318443    1.3664744701    0.2501335823
 C    0.0104855914   -0.0195891351    0.0528485941
 C   -1.4223500602   -0.5618815418   -0.0356561503
 C   -1.2741713786   -1.7729444648   -0.9595729015
 C   -1.5247121508   -3.1886282669   -0.5038051958
 C   -2.4316333082   -2.5313013195   -1.5293919634
 N   -0.1236903087   -1.4572320742   -1.7757499163
 C    0.6095646104   -0.4150789052   -1.3048732508
 O    1.5475599170    0.1480546101   -1.8334794669
 H    0.8463498205    1.6557518995   -0.2855965905
 H    0.5736298893   -0.5637609910    0.8311542175
 H   -1.8579013810   -0.8225564441    0.9303375523
 H   -2.0464919763    0.2046727566   -0.5077158816
 H   -0.8475140295   -3.9606036854   -0.8535287613
 H   -1.9089813834   -3.3468121972    0.4983480236
 H   -3.4309750790   -2.2360948804   -1.2268761668
 H   -2.3647574031   -2.8743980172   -2.5571541985
 H    0.0726810561   -1.8909198234   -2.6643486761