16

 C   -0.0863606633    1.5646307266   -0.1200081489
 C    0.0241340824    0.0639296694    0.0208297596
 C    0.9027783970   -0.7008924210   -0.8734882890
 O    1.2829646849   -0.4322895661    0.4827367788
 C   -1.1902257333   -0.6543112038    0.6587906641
 N   -1.0269117519   -2.0768234794    0.9275659863
 C   -1.5501982483    0.0260128789    1.9211267015
 N   -1.8206326310    0.5782152877    2.8989623044
 H    0.8156890352    1.9685700048   -0.5846167334
 H   -0.9477012827    1.8318746047   -0.7420917838
 H   -0.2157333998    2.0376919809    0.8571714877
 H    0.6974945908   -1.7455816090   -1.0964528958
 H    1.4746493355   -0.1689355411   -1.6317463313
 H   -2.0452288446   -0.5276916654   -0.0173749091
 H   -1.0938697767   -2.6088028985    0.0677099181
 H   -0.1034024243   -2.2332567987    1.3228348508