11

 N   -0.0217394842    1.3345650659   -0.1013748324
 C   -0.0151782891   -0.0208794499   -0.0377638250
 N   -1.2067802019   -0.6487281976   -0.0188542460
 C   -1.1254991662   -1.9686393781   -0.0057143842
 C    0.1069213242   -2.6213473122   -0.0079058781
 N    1.2466966967   -1.9305016024   -0.0081217637
 N    1.1999202366   -0.6122601632   -0.0205483323
 H    0.8471445311    1.8112987117    0.0699692684
 H   -0.8860188720    1.8100994559    0.0918645110
 H   -2.0609456423   -2.5242427683    0.0117205662
 H    0.1946188872   -3.7014865817    0.0008673560