17

 C   -0.0466460560    1.5331620456   -0.0080133372
 C   -0.0605329891    0.0225451422    0.0722022961
 O    1.2237249596   -0.6228808557   -0.1593591131
 C    0.6776611022   -0.6879503015    1.1325774891
 C    1.3365320168   -0.1879595973    2.4153629750
 O    0.8917869526   -1.3748423630    3.1069801660
 C    0.3515533366   -1.9626478230    1.8994736504
 C   -1.1926244216   -0.6374249496   -0.5334855345
 C   -2.1556889027   -1.1663424899   -1.0211734897
 H    0.8408477916    1.9314976286    0.4889909358
 H   -0.0358434727    1.8563154972   -1.0527951067
 H   -0.9397598002    1.9490519211    0.4677649606
 H    2.4305323686   -0.1195297709    2.3570782342
 H    0.9337982930    0.7298912631    2.8602009924
 H   -0.7091524957   -2.2201777973    1.9944295239
 H    0.9192716970   -2.8418276744    1.5705137515
 H   -2.9996135600   -1.6394870952   -1.4599900238