18

 N   -0.1286935902    1.2295180979    0.4515403695
 C   -0.1312987634   -0.1208250215    0.1322547173
 C   -1.1268480885   -0.9858965471   -0.2325739109
 C   -0.4460488568   -2.2215052649   -0.5376566854
 C    0.8726824297   -2.0148041450   -0.3215389410
 O    1.0816397141   -0.7174998847    0.0899874958
 C   -2.5760604231   -0.6878818741   -0.3184086424
 C   -3.5763088811   -1.5341355619    0.4333117264
 C   -3.3162421151   -0.1189347053    0.8793245074
 H    0.5475439570    1.4649191211    1.1678224121
 H   -1.0522975033    1.5552957996    0.7041178240
 H   -0.9069921678   -3.1416342895   -0.8632512373
 H    1.7569383161   -2.6237132180   -0.3940285136
 H   -2.9270609576   -0.3212416628   -1.2817473630
 H   -4.5233628705   -1.7547840061   -0.0463212388
 H   -3.1872020167   -2.3340748509    1.0530651920
 H   -2.7581382785    0.0173296541    1.7995719511
 H   -4.0852845043    0.6254334992    0.7037174368