13

 O   -0.0573537956    1.2686809876    0.0105377647
 C    0.0377519157   -0.0612419014    0.0023915841
 N    1.1493916553   -0.7471929936   -0.0081315952
 N    0.6828374544   -2.0511815939   -0.0125967666
 C    1.1639235411   -3.3452703398   -0.0229107225
 C    0.0197041800   -4.1148470154   -0.0203230115
 N   -1.1437529466   -3.3557419335   -0.0089203004
 C   -0.6721508126   -2.1359336205   -0.0048620018
 N   -1.1037177779   -0.8171754727    0.0048401014
 H    0.8425199022    1.6212674319    0.0067816933
 H    2.2132052456   -3.5789100155   -0.0305980334
 H   -0.0333900242   -5.1927145403   -0.0260843911
 H   -2.0486193675   -0.4773656229    0.0138946590