19

 C    0.1673533074    1.4981504159    0.1097361224
 C   -0.0063897325    0.0110948172   -0.0263516574
 C   -0.0887310028   -0.6261266413   -1.1979104758
 C   -0.2301505119   -2.1220147940   -1.3077432808
 C   -0.9910520171   -2.7609394946   -0.1300310854
 O   -0.8599848095   -4.1771021014   -0.1305558603
 C   -0.5794870207   -2.1656235346    1.1978424563
 O    0.8168437449   -1.9072539842    1.3743814288
 C   -0.0843122129   -0.7820417977    1.2365389309
 H    1.0979239283    1.7416215768    0.6380701642
 H    0.1921321300    1.9883506956   -0.8666746323
 H   -0.6484065623    1.9451259394    0.6924552519
 H   -0.0083263060   -0.0613279278   -2.1234634926
 H   -0.7266302712   -2.4017044612   -2.2417077340
 H    0.7701943094   -2.5762888956   -1.3448007907
 H   -2.0664075358   -2.5780895015   -0.2502583989
 H    0.0663628529   -4.3755025542    0.0496715231
 H   -1.0805284624   -2.5827461935    2.0717829120
 H   -0.2023059976   -0.2155379934    2.1593650984