18

 C    0.0499781544    1.3032227714    0.1156350694
 N   -0.0697700047   -0.1391494080    0.2844971983
 C   -1.1496814966   -0.7045852915    0.0085101286
 O   -2.3452978869   -0.1926484807   -0.4735819117
 C   -2.9251316951   -1.5284828760   -0.5598975886
 C   -1.6326651489   -2.1441979801    0.0267920197
 C   -0.8553251417   -3.1535415670   -0.8233059747
 C    0.5059328029   -3.4793351048   -0.2297992143
 O    0.9072198470   -4.6019537861   -0.0576260147
 H    0.9100307099    1.5162760964   -0.5278846381
 H   -0.8399201286    1.7776254924   -0.3133628140
 H    0.2577425264    1.7610896216    1.0888718630
 H   -3.8263952441   -1.6071430053    0.0521295828
 H   -3.1450690970   -1.7923467239   -1.5980911245
 H   -1.7688405112   -2.5229046983    1.0439268426
 H   -1.4132124896   -4.0873839632   -0.9404713839
 H   -0.6872031705   -2.7268374734   -1.8223922327
 H    1.1155492541   -2.5913077635    0.0371318228