14

 O    0.0992689787   -0.1254031015    0.0542529170
 C    0.0466161275    1.0682536363    0.1802645732
 C    1.2492984388    1.9924205029    0.0053371381
 C    1.4910890678    2.8992335271    1.2411078432
 N    2.4619410567    2.1097736559    1.9725213043
 C    3.1480348633    1.2356292565    1.1381207452
 O    4.1121771779    0.5698005301    1.4249292607
 N    2.5034352115    1.2804766838   -0.1062235215
 H   -0.9101657599    1.5941818965    0.4045586809
 H    1.0373240728    2.6109140006   -0.8785409645
 H    1.8819916599    3.8763918234    0.9273609081
 H    0.5726873980    3.0666587372    1.8144735759
 H    2.9642875226    2.4904065363    2.7581589175
 H    2.4947933042    0.4031104650   -0.6080205482