20

 C   -0.8041086426    1.2338179704   -0.0237323248
 C    0.0004157646   -0.0562247629    0.0232756697
 C    1.1900590577   -0.2458084188   -0.9740459229
 C    2.1495095129   -0.5883487966    0.2195127305
 C    2.9863276698   -1.8436415436    0.1660032089
 C    0.9794084534   -0.2659572184    1.1998602136
 O    1.6629457525    0.9656631165    1.6007102083
 C    2.7519438710    0.6736003567    0.7962184570
 N    3.8407448045    1.2776030851    0.6484805715
 H   -0.1517614702    2.1034294304    0.0926161747
 H   -1.3316551203    1.3267074365   -0.9787453985
 H   -1.5512124168    1.2655165908    0.7767057629
 H   -0.6703871531   -0.9209811223   -0.0305090415
 H    1.0589618034   -1.0774183912   -1.6700847294
 H    1.4771139132    0.6416477957   -1.5427791637
 H    3.7876958873   -1.7279852984   -0.5711036496
 H    3.4536872220   -2.0549505509    1.1327631906
 H    2.3824137011   -2.7100865635   -0.1227577899
 H    0.6904813374   -0.8514838491    2.0735587658
 H    3.8836358121    2.1193004137    1.2257451669