19

 C   -0.3316509503    1.1676541218    0.0566570112
 O    0.0739260004   -0.1843013956   -0.0129079193
 C    0.8018857398   -0.6304878662    1.1310119919
 C   -0.1017789199   -0.8437114483    2.3835444875
 O    0.1966899428   -2.1233683276    2.9292352301
 C    0.9322383715   -2.8723049132    2.0035717719
 C    0.3577191124   -3.0971795949    0.6278976585
 O   -0.9762575424   -2.7900970828    0.3686868987
 C    1.3851042235   -1.9996215765    0.8561850136
 H    0.5324859971    1.8338828982    0.1991509097
 H   -0.8133538124    1.4102635242   -0.8931654472
 H   -1.0477362412    1.3478861226    0.8712236050
 H    1.6012975141    0.0948167278    1.3398500583
 H    0.0723490317   -0.0980914629    3.1668645257
 H   -1.1512934137   -0.7985938567    2.0714919789
 H    1.5553175707   -3.6207279500    2.4799156341
 H    0.7292946619   -3.9737789870    0.0968554284
 H   -0.9829167674   -1.9793184547   -0.1574560818
 H    2.3637645816   -2.0647200483    0.3970833148