14

 O   -0.0482147022   -0.0418221020   -0.0004127995
 C   -0.0333676198    1.1473161042    0.0025531142
 O   -1.1682026941    1.9220345819    0.0783090271
 C   -0.7257537409    3.2687180818    0.2496117477
 C    0.0499555405    3.5118252217    1.5510260026
 C    1.2608508317    4.0395214098    0.7893820115
 C    1.2984628830    2.6470398846    1.3215797441
 N    1.1334830614    2.0112348457   -0.0305833493
 C    0.6383322738    3.3663922553   -0.4677708561
 H   -1.5204400031    3.9637268803   -0.0096151820
 H   -0.3190827888    3.7725941779    2.5325460309
 H    1.9051323528    4.8914044109    0.9335290861
 H    1.8845842257    2.1942750586    2.1082097702
 H    0.7515853399    3.6248315894   -1.5174798375