18

 C    0.0258576581    1.4426490983    0.0214221416
 N    0.0616653483   -0.0121815653    0.0398150903
 C    0.5625665868   -0.6322084925   -0.9287968499
 O    1.1131249249   -0.0994703477   -2.0795800091
 C    1.5587589232   -1.2597724063   -2.8226573184
 C    2.8462586617   -1.7771559790   -2.1535361397
 C    2.2385960540   -2.4472452058   -0.8832939162
 C    0.7348229179   -2.1306248500   -1.0935637755
 O    0.5994411158   -2.2443820393   -2.5263114898
 H    0.6218169581    1.8258198300    0.8577758599
 H    0.3948111409    1.8918191041   -0.9074395557
 H   -1.0047335619    1.7729618308    0.1904567590
 H    1.5782998870   -1.0193661915   -3.8836175683
 H    3.3512416164   -2.4986520447   -2.7993358100
 H    3.5355461799   -0.9609077415   -1.9319573003
 H    2.3965515523   -3.5273050000   -0.8819992103
 H    2.6201506451   -2.0360858137    0.0526948391
 H    0.0095928014   -2.7479999759   -0.5725032368