16

 O   -0.4175174326    0.3183668198    0.4975830428
 C    0.0303474604    1.0054705731   -0.3824232240
 C    1.3803568120    1.6837255569   -0.3534438570
 C    1.2800683433    3.1733641667   -0.7141957734
 C    2.6201657792    3.7865742566   -0.9473257072
 N    3.7521661687    3.1997695265   -1.1756818944
 C    4.6588620446    4.2401866794   -1.3473844975
 C    4.0100790796    5.4173221013   -1.2088005452
 O    2.6948483130    5.1426235341   -0.9487353043
 H   -0.5487417395    1.1819563735   -1.3211345566
 H    1.8376712007    1.5348075277    0.6272443890
 H    2.0212709904    1.1896717151   -1.0957780033
 H    0.6685621672    3.2996292050   -1.6192709718
 H    0.7661141909    3.7321413808    0.0757948394
 H    5.7015075035    4.0581501312   -1.5526958988
 H    4.2867804086    6.4563669722   -1.2500545177