19

 C    0.1816595382    1.5579420545    0.0614928463
 C    0.0252833656    0.0359967673    0.1111366609
 C    0.6987379796   -0.5333407886    1.3580841563
 O    0.6362761936   -1.6880916655    1.7011419524
 C   -1.4568007227   -0.3713922786    0.1763371699
 O   -2.3694469638    0.3866750415   -0.0139017944
 C    0.5700103951   -0.6095519334   -1.1769449961
 C    2.0027918610   -1.0656727641   -1.3242012786
 C    0.8864903641   -2.0771963378   -1.3206512696
 H    1.2348934537    1.8299018514   -0.0559899330
 H   -0.3817665123    1.9729136946   -0.7761017115
 H   -0.2000020756    2.0254179847    0.9743887903
 H    1.2500439449    0.2140953452    1.9707754026
 H   -1.6141326708   -1.4479925027    0.3887036086
 H    0.1385534682   -0.1355273350   -2.0547779821
 H    2.5091082457   -0.8446867596   -2.2570180622
 H    2.6476587959   -1.0310337265   -0.4524986387
 H    0.7895799828   -2.7020105889   -0.4412876837
 H    0.6198742067   -2.5578009387   -2.2552856572