14

 O   -0.2033281771    0.1931672036    0.5408762547
 C    0.0531970275    1.1094588763   -0.1919597535
 C    1.3653791796    1.8680446518   -0.1384183859
 O    1.3114647842    2.8761600161   -1.1472167340
 C    2.3909925329    3.6577170408   -1.2559272576
 N    3.4499985690    3.5236027088   -0.4900355589
 O    4.3302517068    4.5167703988   -0.9233951321
 C    3.7583263883    5.1982684423   -1.9269731162
 C    2.5232159511    4.7159340764   -2.2015154307
 H   -0.6518147415    1.4746987529   -0.9705163819
 H    1.5061363987    2.3141316105    0.8538090531
 H    2.2062908407    1.1852828643   -0.3117240686
 H    4.3499039225    5.9976997937   -2.3460433995
 H    1.8129965672    5.0399953238   -2.9419234587