18

 C   -0.6455469602    1.3864536684   -0.0768584245
 C    0.4594148355    0.3613222955    0.1586004396
 N    1.1005469681    0.0037048312   -1.1055694916
 C    2.1148511709   -0.7356676647   -1.0866158679
 C    2.8985427482   -1.1984882028   -2.2902154437
 C    4.0257327613   -2.0350808657   -1.7074178192
 O    4.9105996264   -2.5987757824   -2.2907067362
 C    3.8272551078   -2.0325383067   -0.1896850710
 O    2.6715119431   -1.2446045633    0.0706758735
 H   -0.2375999145    2.2990206570   -0.5218947497
 H   -1.4002282792    0.9894945070   -0.7622492442
 H   -1.1369676422    1.6514943767    0.8647396878
 H    1.2006263366    0.7546827728    0.8683483823
 H    0.0427684056   -0.5404666935    0.6294267420
 H    2.2850575766   -1.7968312977   -2.9707513979
 H    3.2928898366   -0.3600307651   -2.8714483421
 H    3.6812974038   -3.0530382541    0.1829364777
 H    4.7012391559   -1.6027904525    0.3134985252