23

 C    0.0045661800    1.5259037727    0.0583336119
 C    0.0108142621    0.0070280825    0.0149274974
 O    0.6893830124   -0.4729298509    1.1566555509
 C    0.7556136049   -1.8791103899    1.2205888759
 C    1.5058409084   -2.2722773159    2.4861549704
 C    1.6263404096   -3.8007825591    2.6381547559
 C    2.3423744614   -4.1998743795    3.8451049847
 C    2.9363794971   -4.5041065613    4.8472920007
 C    3.6536325426   -4.8825981134    6.0569194954
 H    1.0274242809    1.9129988810    0.0652594096
 H   -0.5152064516    1.9312749147   -0.8149828989
 H   -0.5015135553    1.8811216770    0.9604586424
 H   -1.0212642489   -0.3836092053   -0.0075237619
 H    0.5078995377   -0.3517446543   -0.9029372735
 H   -0.2604976299   -2.3132646014    1.2253947208
 H    1.2686098067   -2.2820199364    0.3286864935
 H    2.5039411403   -1.8231074126    2.4658317036
 H    0.9876084739   -1.8542019578    3.3550746267
 H    0.6222951303   -4.2472949022    2.6428147437
 H    2.1337172233   -4.2162613174    1.7564209163
 H    3.6988715153   -5.9717174512    6.1692354074
 H    4.6838988113   -4.5095978866    6.0440831233
 H    3.1680031374   -4.4788877726    6.9524108938