20

 C   -0.0619123599    1.3959291394   -0.0383927775
 O   -0.0662994353   -0.0268921803   -0.0395542261
 C    0.6559133860   -0.6099411737   -1.0150767994
 N    0.7116478609   -1.8629702985   -1.1119032761
 C    1.5158938620   -2.4146814156   -2.1859223903
 C    2.5554741436   -3.3983869225   -1.6306150191
 C    1.9219187760   -4.5996115472   -0.9048998738
 C    3.4941222034   -3.8896456640   -2.7114919097
 O    3.4423784358   -3.5779284022   -3.8747998038
 H    0.9517276901    1.7950950646    0.0888650336
 H   -0.4963234688    1.7997242559   -0.9608842859
 H   -0.6752224998    1.7037927106    0.8090947253
 H    1.1673937865    0.0948360760   -1.6903624784
 H    0.8575904537   -2.9597492296   -2.8742914196
 H    2.0266729228   -1.6435466880   -2.7836528732
 H    3.1881581831   -2.8685563853   -0.9002321324
 H    1.3004822364   -5.1847029900   -1.5914826891
 H    2.6868470156   -5.2633042878   -0.4890656829
 H    1.2863487238   -4.2422737505   -0.0931063317
 H    4.2725201439   -4.6009374013   -2.3465730998