16

 C   -0.0546475810    1.5636652873    0.0090290907
 C    0.0326579698    0.0640811039    0.0181750967
 C   -0.8338090928   -0.8209963244    0.8738987214
 O   -1.6437040542   -1.7860087985    0.2651845173
 C    0.6373268729   -0.9883651654    1.0359320387
 C    1.1865050238   -1.8462922955   -0.1130824122
 C    0.6517673435   -0.7625611351   -1.0773868375
 O    0.8602923973   -0.5251851867   -2.2334291328
 H    0.8946301093    2.0124731289   -0.2994410625
 H   -0.8232462874    1.8978625175   -0.6959399559
 H   -0.3138475833    1.9546123283    0.9976540967
 H   -1.3245283938   -0.2671896907    1.6764978908
 H   -1.8069397536   -2.4872658300    0.9057195977
 H    1.1587966354   -0.7729309149    1.9603213405
 H    2.2779840308   -1.8896809221   -0.1578807508
 H    0.7725379035   -2.8515080726   -0.2160234887