21

 C   -0.2507778267    1.5313891890   -0.0930585257
 C   -0.1458222168    0.0325446285    0.0837333685
 C   -1.3210501850   -0.7651940393   -0.4397669441
 O    1.1400621058   -0.5340651246   -0.2276186770
 C    0.7102376750   -0.5530050600    1.1361588071
 C    1.5236562391    0.2410040553    2.1380385538
 C    2.9325786163    0.6018874809    1.7271810728
 C    0.8188411905    1.0120200415    3.1776238425
 O    1.3853137104   -0.2640625830    3.4751828089
 H    0.6220133657    2.0489180405    0.3085233200
 H   -0.3370788478    1.7796862409   -1.1563842265
 H   -1.1433435118    1.9168624420    0.4115562529
 H   -1.4646957426   -0.5769200258   -1.5094670071
 H   -1.1559738043   -1.8361804751   -0.3007091084
 H   -2.2449845606   -0.4833968100    0.0766158463
 H    0.4454690220   -1.5427031753    1.5130915627
 H    2.9320880510    1.2233459113    0.8283441562
 H    3.4359536309    1.1357568050    2.5368368698
 H    3.5038618142   -0.3029671318    1.4973554803
 H    1.3102537890    1.8652591512    3.6451775070
 H   -0.2700816044    1.0508078288    3.1769267400