18

 C   -0.0204713987    1.6177741329    0.0601617851
 C    0.0152359107    0.0871399744    0.0487922902
 C   -1.3851817816   -0.5206922069   -0.0637456735
 C   -1.3966471063   -2.0736634826   -0.0032923520
 O   -0.7577712165   -2.5480257708    1.1821721743
 C   -2.7761732690   -2.5712644154   -0.0902223595
 C   -3.9178616222   -2.9437221951   -0.0984617705
 C   -0.6139460694   -2.6212477505   -1.1389089159
 N   -0.0098215861   -3.0110933635   -2.0421322878
 H    0.9892155965    2.0313338731    0.1380471924
 H   -0.4726625895    2.0135070474   -0.8558259224
 H   -0.6020296223    1.9976624191    0.9075912686
 H    0.6302171803   -0.2616987770   -0.7888900793
 H    0.4908261002   -0.2867375308    0.9609520395
 H   -2.0217300665   -0.1756223018    0.7598642551
 H   -1.8729802046   -0.2096998715   -0.9944663572
 H   -1.4309307005   -2.5873200677    1.8707396755
 H   -4.9228615545   -3.2886362133   -0.1227024225