21

 C    0.0128730786    1.7796600305   -0.0224787718
 C   -0.0162702109    0.2477728792    0.0784209343
 C    0.6115223842   -0.2896081507    1.3815321079
 C    2.0847516763    0.0124959875    1.5141599102
 C    3.0470689695   -0.9874547768    1.9936673524
 O    2.9554425088   -0.6701151896    0.6041006095
 C   -1.4408573583   -0.2516173660   -0.0417749045
 C   -2.0066111645   -0.7306368023   -1.3084782218
 O   -1.6177910796   -1.6489118505   -0.2837588170
 H    1.0362071890    2.1639478318   -0.0062960471
 H   -0.4528759895    2.1191855464   -0.9530554343
 H   -0.5313618948    2.2415002405    0.8100968411
 H    0.5553982075   -0.1781116815   -0.7551087892
 H    0.0838527441    0.1308488215    2.2495265302
 H    0.4668446287   -1.3746832864    1.4078216063
 H    2.3481988318    1.0614492202    1.6595304602
 H    3.9643749970   -0.6688603702    2.4874054564
 H    2.6919662259   -1.9795118598    2.2702138977
 H   -2.1354749787    0.1551931986    0.6984444288
 H   -3.0780737210   -0.6596586612   -1.4911278470
 H   -1.3832441640   -0.7393383411   -2.2019480923