27

 C    0.0057713068    1.5618386078    0.2631877825
 C    0.1267024460    0.0773157116   -0.0489047090
 O    0.6389762190   -0.5588263945    1.1047834994
 C    0.7294170054   -1.9961333279    1.1324373471
 C   -0.6847123344   -2.5897520350    1.2490209983
 C    1.4300021625   -2.5393973215   -0.1229512749
 C    1.5455962593   -2.2578287641    2.4333561503
 C    1.6162280512   -3.7339882768    2.8501037249
 C    2.9560959821   -1.6519997760    2.3731543034
 H    0.9813552562    1.9762518778    0.5334580250
 H   -0.3746445374    2.1062558442   -0.6066350749
 H   -0.6767690014    1.7229989017    1.1024380430
 H   -0.8589611854   -0.3254135599   -0.3279552331
 H    0.7923262597   -0.0708792331   -0.9125247346
 H   -1.3110160861   -2.2789884979    0.4079276639
 H   -0.6615081737   -3.6826288532    1.2431293286
 H   -1.1660303314   -2.2564248312    2.1734652339
 H    2.3752830952   -2.0225167318   -0.3058390149
 H    1.6388514902   -3.6072405939   -0.0133803158
 H    0.8010610902   -2.4235339845   -1.0103206376
 H    0.9919157079   -1.7159872654    3.2113694497
 H    2.1256771249   -4.3466737480    2.0978534324
 H    2.1870178555   -3.8284775497    3.7796167797
 H    0.6295754597   -4.1689873206    3.0283896644
 H    3.6108037600   -2.2173643317    1.7003964609
 H    2.9198604503   -0.6162700466    2.0310046225
 H    3.4185735278   -1.6716786598    3.3654171749