17

 C    0.0252632651    1.5097472217   -0.0111308621
 N    1.2694285846    0.7204129552    0.0556972373
 C   -0.0272619663    0.0308359793    0.0077630314
 C   -0.3957153278   -0.7448764351    1.2573820896
 O    0.0546951311   -2.0919308333    1.1511707919
 C   -0.4266152275   -2.7006642596   -0.0142391199
 O    0.0196034518   -2.0659864550   -1.1870280401
 C   -0.4438284400   -0.7234358174   -1.2398370072
 H   -0.2064566052    2.0780387279    0.8861934933
 H   -0.2301940815    2.0158530062   -0.9398951936
 H    1.7203053186    0.6933191072   -0.8563123217
 H    0.0896831038   -0.3147522582    2.1352502278
 H   -1.4896805831   -0.7259493892    1.4032497865
 H   -0.0321360683   -3.7180612733   -0.0329353889
 H   -1.5350191734   -2.7176249367   -0.0022060606
 H   -1.5441207928   -0.7114826634   -1.3325185561
 H   -0.0205058492   -0.2722773062   -2.1429633276