18

 C    0.3315226539    1.4854113295   -0.1213359028
 C   -0.0214433206   -0.0018522369   -0.0164693989
 O   -1.4317724398   -0.1596059569    0.1719117273
 C    0.4967305801   -0.7985143090   -1.1992172047
 C    1.5385802113   -1.5638625958   -0.8821757351
 C    1.9137515554   -1.4223275580    0.5721394148
 C    0.6737248450   -0.7151333886    1.1749048324
 O    0.9620266906    0.2029715439    2.2134996272
 H    1.4120430509    1.6348263902   -0.1939372593
 H   -0.1265031333    1.9185209722   -1.0191664849
 H   -0.0325969908    2.0175725759    0.7599855538
 H   -1.8807951569    0.4407498242   -0.4321987483
 H    0.0511398254   -0.7042185155   -2.1842204377
 H    2.0818407816   -2.2029343044   -1.5701510304
 H    2.1365327584   -2.3795667596    1.0583749670
 H    2.7985742226   -0.7844898661    0.7028655805
 H   -0.0418717773   -1.4745658691    1.5174512980
 H    1.2133614735   -0.2982504359    2.9943990810