18

 N    0.1575814604   -1.0500634233    1.1458880895
 C    0.0309656979   -0.0422837851    0.5944755154
 C   -0.1061420726    1.2376401681   -0.1005769310
 C    1.2456792284    1.9769670820   -0.1862600667
 C    1.8566682324    2.7434151939   -1.3293404063
 C    0.9639435588    3.7833198608   -2.0609184391
 C   -0.4511372164    3.9076238832   -1.5651200784
 C    0.6716540259    4.4716705420   -0.7375854224
 C    1.5621087207    3.4368351632    0.0038500711
 H   -0.5117852276    1.0344484311   -1.0964495881
 H   -0.8505313120    1.8317147826    0.4384721791
 H    2.0270721271    1.3898170848    0.2918622957
 H    2.8205077898    2.4579693107   -1.7325080211
 H    1.2804371075    4.2354489245   -2.9915886842
 H   -1.0167948781    4.6739735469   -2.0887266573
 H   -1.0656356176    3.0713860720   -1.2657838250
 H    0.7319634858    5.5273098558   -0.5079663458
 H    2.2698711093    3.7541085867    0.7597734747