19

 C    0.0647286756    1.5411244723    0.1321837145
 C   -0.0135386003    0.0461118639    0.0354668617
 C    0.7434527458   -0.7058073309   -1.0872127385
 C    0.5055838185   -2.1670160872   -0.5840228891
 C   -0.3182209271   -1.8161306058    0.6714725084
 O    0.4260151420   -0.6904108806    1.2333143552
 C   -1.3055855585   -0.7796360188    0.1395367790
 C   -2.6675195559   -0.4311166210    0.4982729996
 O   -2.3229723628   -0.9382789158   -0.8162365695
 H    1.1064609146    1.8687584115    0.2081188392
 H   -0.3700541975    1.9980247560   -0.7626943324
 H   -0.4762348203    1.9051477141    1.0098652517
 H    0.3110337879   -0.5152794438   -2.0729236587
 H    1.7996069535   -0.4273038556   -1.1020884807
 H   -0.0570403686   -2.7810662266   -1.2917489301
 H    1.4317339109   -2.6819911975   -0.3218043424
 H   -0.5714628747   -2.5935637041    1.3908694077
 H   -3.2610461244   -1.1067969710    1.1117430746
 H   -2.9790591187    0.6117824011    0.5204789797