20

 C    0.7901685583   -0.4008640075   -1.3332560363
 C    0.0347370898   -0.0625873424   -0.0423834691
 C    0.6870316203   -0.6275019820    1.2145354096
 C   -0.1868739935   -0.7677227575    2.4959061453
 O    0.2997434712   -2.1121173253    2.7199723498
 C    0.7851332686   -2.1712122227    1.3557646704
 C    2.0067008737    0.0886183703    1.5508248233
 N    2.7164205822   -0.4613957795    2.5794666751
 O    2.3859819872    1.0779436081    0.9517325349
 H    0.8841190802   -1.4843175969   -1.4720276778
 H    0.2595247339   -0.0049454339   -2.2042259244
 H    1.7912245387    0.0344976108   -1.3172422812
 H   -0.0382872801    1.0245340574    0.0599414156
 H   -0.9886663635   -0.4536391234   -0.1012356189
 H    0.0245315237   -0.1047571460    3.3402057067
 H   -1.2638445272   -0.7601842033    2.2813043774
 H    0.0794112252   -2.7044998452    0.7049648094
 H    1.7722680732   -2.6366243824    1.2874287519
 H    2.3196027797   -1.1903608775    3.1524839983
 H    3.5305085785    0.0357065590    2.9016625603