15

 N    0.0404916455    1.4000548566    0.2063552179
 C   -0.0260446847    0.0176314069    0.0779969409
 C   -1.1322116279   -0.7874777043    0.0204690204
 N   -2.5182176212   -0.5606007485    0.0365410168
 N   -0.6098083181   -2.1029491754   -0.0242546791
 C   -1.3301747121   -3.2950142150   -0.0768860820
 O   -0.8148004091   -4.3832470594   -0.1184142263
 C    0.7576555270   -1.9795686546    0.0050874019
 N    1.1384997649   -0.7326729388    0.0678909989
 H    0.9492725240    1.7540891050   -0.0610250855
 H   -0.7007855415    1.8961151949   -0.2691730071
 H   -2.8759521995   -0.1349724041   -0.8116683425
 H   -2.8197534438   -0.0104979742    0.8325438158
 H   -2.4150321565   -3.1090442697   -0.0731808045
 H    1.3962134731   -2.8479371894   -0.0276870356