16

 C   -0.0996732617    1.5542789982    0.0916306585
 C    0.0112908132    0.0320039673    0.0002144472
 C    0.7477660711   -0.4884664702   -1.2786295151
 C    2.2224555302   -0.0105567982   -1.3482807236
 C    0.7268108209   -1.9632608288   -1.2502580787
 N    0.7320721963   -3.1161313103   -1.1840759338
 C    0.0294558907   -0.0311779465   -2.4837072204
 N   -0.5271041103    0.3691954357   -3.4130982458
 H    0.8780763629    2.0359260679    0.1791647968
 H   -0.6108213995    1.9703832452   -0.7814748832
 H   -0.6788247121    1.8246052620    0.9786934287
 H    0.5551725736   -0.3695796576    0.8614184803
 H   -0.9859524010   -0.4172956683    0.0162021961
 H    2.7491609413   -0.3288608248   -0.4455120469
 H    2.7236572806   -0.4382572425   -2.2182809537
 H    2.2604723438    1.0770767010   -1.4235136465