17

 O   -0.1734055528    0.0553814273    0.2311956426
 C    0.0281624877    1.1758659088   -0.1544887045
 C    1.4137846559    1.7766278870   -0.2977803159
 O    1.2800267165    3.0147618713   -0.9675341745
 C    2.4801098471    3.7238385526   -1.1182875677
 C    3.3614386424    3.3473741012   -2.2992232157
 C    2.5253119897    4.6003908320   -2.3422833056
 C    3.0931204832    4.1698403627    0.1076348933
 C    3.5914589752    4.5202357376    1.1448053653
 H   -0.7930757141    1.8733887184   -0.4303182851
 H    1.8455280260    1.9086803903    0.7065491583
 H    2.0619807655    1.0771605770   -0.8460782788
 H    4.4348421443    3.4366524869   -2.1833179779
 H    3.0248210208    2.5019815538   -2.8885866101
 H    1.6303992744    4.5874764910   -2.9533062484
 H    3.0169794296    5.5612609106   -2.2539005844
 H    4.0317607788    4.8413075016    2.0564891591