14

 N   -0.0784819144    1.3465408693   -0.1028185882
 C    0.0153712921   -0.0112470437   -0.0430514636
 N   -1.1362696263   -0.6976906534   -0.0281403434
 C   -1.0430182658   -2.0296739923   -0.0094224845
 C   -2.3751033948   -2.7340421297    0.0037245204
 O   -2.5209516062   -3.9267241520    0.0241172221
 N    0.0654557004   -2.7677721495    0.0019334891
 C    1.2063775096   -2.0664733551   -0.0093953338
 C    1.2509942796   -0.6855116322   -0.0328526012
 H    0.7206675217    1.9110195788    0.1281225314
 H   -0.9883070974    1.7417116283    0.0719578898
 H   -3.2270558256   -2.0219816312   -0.0076955791
 H    2.1279800991   -2.6441687640    0.0012884949
 H    2.1923434880   -0.1482658933   -0.0453690140