19

 C    0.2309079279    1.5932781280    0.1772159838
 C   -0.1105792612    0.1133645729   -0.0416675359
 C    0.6247764250   -0.4784903584   -1.2296895720
 O    0.3769164950    0.1540605578   -2.4576213835
 C    1.9719345381   -1.0949353979   -1.0707269303
 O    2.5199619636   -1.1212686015    0.2104044125
 C    0.7640388579   -1.9934378823   -1.4153972543
 C    0.2362032097   -2.9636270319   -0.4321471062
 O   -0.2554621834   -4.0249467093   -0.7384947432
 H    1.3017205357    1.7269165280    0.3625953365
 H   -0.0521353469    2.2034185548   -0.6871591991
 H   -0.3099728595    1.9890241740    1.0412307016
 H    0.1435839323   -0.4484025970    0.8599254036
 H   -1.1875216719   -0.0010183963   -0.2093514310
 H    0.8019757890    1.0189385728   -2.4371041569
 H    2.6770065520   -0.9453091096   -1.8878286556
 H    3.0729306062   -1.9060535124    0.2919454305
 H    0.7003873365   -2.3252404469   -2.4457458746
 H    0.3327127839   -2.6703431847    0.6341269341