19

 O   -0.0172751839    1.4945283568    0.2175418266
 C    0.0147095386    0.0980728696    0.0251892681
 C    0.3094345154   -0.3628549841   -1.4439299841
 C   -1.0535466717   -1.0693505385   -1.4451936803
 O   -1.6087058720   -1.7989377293   -2.2160477833
 C   -1.4145509080   -0.5450905594   -0.0456991075
 C   -1.4827613060   -1.6248464752    1.0463672658
 C   -0.0054604978   -2.0102525937    1.2750761247
 C    0.7550666899   -0.6768327661    1.1316918940
 H    0.8893610148    1.8199909594    0.2148704717
 H    0.3350646115    0.4829950261   -2.1387031604
 H    1.1785523672   -1.0033352860   -1.6234977344
 H   -2.2492166576    0.1598909266   -0.0434159461
 H   -1.9090342514   -1.1957281172    1.9598926526
 H   -2.1086014436   -2.4720564874    0.7528279811
 H    0.1650844734   -2.4907278268    2.2419174434
 H    0.3198100330   -2.7193658305    0.5041019179
 H    1.8223219661   -0.8092282024    0.9245279903
 H    0.6618358620   -0.0932129117    2.0549138599