16

 O   -0.0300213057    1.4675787887   -0.0881822018
 C    0.0387294475    0.0590100130   -0.1724319655
 C   -1.3102523717   -0.5756694300    0.1367211522
 O   -2.2667669191   -0.0795224696   -0.8468440062
 C   -2.7682768036   -1.1735659699   -1.4640067871
 N   -2.4045136586   -2.3335489527   -1.1120193795
 C   -1.4259809912   -2.1338918843   -0.0105074898
 C   -0.1665144760   -2.8241784373   -0.2764067049
 C    0.8694956923   -3.3995636814   -0.4731588121
 H   -0.7097270337    1.7515774057   -0.7097447699
 H    0.3825348447   -0.2809310669   -1.1603339002
 H    0.7753959659   -0.2721285596    0.5649077574
 H   -1.6600856165   -0.2336082222    1.1140490805
 H   -3.4851099213   -0.9568804891   -2.2485030331
 H   -1.8593810771   -2.5602916358    0.9019376750
 H    1.7824849042   -3.9111944486   -0.6548889753