23

 C    0.2425068411    1.5264773701    0.3117061578
 C   -0.0129045031    0.0326761044    0.0317717000
 C    0.5775088478   -0.7756583081    1.2081427172
 C   -1.5410973983   -0.1793082819   -0.0420971543
 C    0.6323265664   -0.4438428183   -1.2889114847
 C    0.7219695689    0.4566664174   -2.5214677982
 C    1.9689310834    0.1072321589   -1.7865247591
 C    0.4396548894   -1.8833405884   -1.6470798546
 O    0.8837403626   -2.4036464641   -2.6450647161
 H    1.3074724777    1.7536623749    0.4126424322
 H   -0.1768710993    2.1720133553   -0.4650595810
 H   -0.2373037569    1.8044723441    1.2556544503
 H    0.1378290134   -0.4489342044    2.1565053406
 H    0.3861812939   -1.8486896760    1.1134691635
 H    1.6613636740   -0.6341249001    1.2724239221
 H   -1.9733027149    0.3898299904   -0.8716647614
 H   -1.8091544305   -1.2305876834   -0.1833061459
 H   -2.0198971380    0.1573525514    0.8835758422
 H    0.5470305328   -0.0329447377   -3.4724538710
 H    0.3337081098    1.4639071640   -2.4365447184
 H    2.4510114320    0.8706768515   -1.1888454279
 H    2.6329815848   -0.6175698812   -2.2430315841
 H   -0.1546029670   -2.4851408989   -0.9286933893