20

 C    0.0366536421    1.5302000483   -0.0705946276
 O    1.2925137927    1.5678532222    0.6341397263
 C    1.4714948622    0.1434284140    0.4724089670
 C    0.0313723901   -0.0102089208   -0.0742401215
 C   -0.9438655608   -0.6354362584    0.9243434805
 O   -0.7616321703   -2.0384825481    1.0067282028
 C   -0.9532168520   -2.6659584360   -0.2521891610
 C    0.0124653234   -2.0987939618   -1.2939936495
 N   -0.0586594436   -0.6339120465   -1.3945409958
 H   -0.7669749320    2.0268933075    0.4881928501
 H    0.1099987475    1.9653553787   -1.0759894491
 H    2.2439016059   -0.0917274895   -0.2697862919
 H    1.6980176387   -0.3557820860    1.4204384223
 H   -0.7900732031   -0.2398331514    1.9331727138
 H   -1.9796010667   -0.4005373414    0.6159565733
 H   -0.7900900769   -3.7366736335   -0.0943452993
 H   -1.9952336310   -2.5216264736   -0.5902906526
 H    1.0383364291   -2.3684580124   -1.0131174922
 H   -0.1826904278   -2.5335749632   -2.2799785619
 H   -0.9486416275   -0.3751073181   -1.8169172038