18

 O   -0.2707278043    1.4073363346    0.5046949059
 C    0.0136751552    0.0929154271    0.0261452961
 C    0.9798792775   -0.6717520262    0.9458053635
 C    0.2698310296   -1.5936192567    1.9074092414
 C   -1.1545580498   -1.4993493721    2.3015555550
 C   -2.0869277744   -0.9733998245    1.1985094277
 C   -1.3117183941   -0.6206649933   -0.0438636754
 C   -1.5353440769   -2.0680522701    0.3216700024
 N   -0.6730244379   -2.6376297456    1.4335241385
 H    0.5454224661    1.9167910904    0.4648229008
 H    0.4460821367    0.1534646211   -0.9832993910
 H    1.6740820894   -1.2746614110    0.3472287541
 H    1.5864596988    0.0475204260    1.5079918407
 H    0.9170284517   -2.0156722674    2.6742389269
 H   -1.4966288315   -1.6873298311    3.3144081597
 H   -3.1074123141   -0.6610376837    1.3694024286
 H   -1.9591697571   -0.2928201026   -0.8527520675
 H   -2.0219513348   -2.7765139748   -0.3362814274