21

 C    0.0652949764    1.6117754850    0.1126399388
 C   -0.1868710076    0.1117454495   -0.0806961668
 C    0.5860083514   -0.4782574735   -1.2537117152
 C    2.0932358314   -0.8087934029   -1.1079182012
 C    1.8453440806   -2.1494781384   -0.3355832848
 C    2.7309516275   -2.9593665640   -1.3042167591
 C    2.0311866639   -1.9252208192   -2.2083936481
 C    0.6955081119   -2.0124040614   -1.4139210238
 O   -0.2916086095   -2.9330693935   -1.7148011554
 H    1.1234268592    1.8129396691    0.3109879892
 H   -0.2154642660    2.1766663498   -0.7830913791
 H   -0.5130151350    2.0095938380    0.9524111872
 H    0.0724176772   -0.4242508461    0.8415689240
 H   -1.2611856995   -0.0546200226   -0.2412278489
 H    0.3367928105    0.0449007015   -2.1874739571
 H    2.9310692939   -0.1335409551   -0.9452868962
 H    1.7271139313   -2.2640872455    0.7428211428
 H    3.8137463639   -2.8552370450   -1.1834315862
 H    2.4572850424   -4.0065921669   -1.4592313685
 H    2.1177172723   -1.7619205406   -3.2836916739
 H   -0.9253044463   -2.9499358882   -0.9894509977