20

 C   -0.1051408782    1.5600701439   -0.0106467766
 C    0.0512511803    0.0577400733    0.0505997371
 C    1.3486859300   -0.6972000749   -0.2260380332
 C    2.6287750330    0.0610557888   -0.1019981825
 C    2.8265735578    0.4937084645    1.1474180899
 C    1.7194910348    0.0615883643    2.0496686522
 C    1.9622052267   -0.2689429792    3.4810152433
 N    1.2047132494    0.9400474857    3.1282454077
 C    0.7403816869   -0.6862881964    1.1710186486
 H    0.8130583255    2.0813756594    0.2670778077
 H   -0.3778671991    1.8775520421   -1.0233528132
 H   -0.8946454469    1.8912661602    0.6714214451
 H   -0.8203726224   -0.4766886580   -0.3220692149
 H    1.3075363179   -1.5704815527   -0.8682026165
 H    3.2869299993    0.2490842349   -0.9424203264
 H    3.6514880828    1.1089158396    1.4921339549
 H    1.3737844246   -1.0525507534    3.9530592277
 H    2.9738812558   -0.1680116468    3.8670982437
 H    1.8009275236    1.7605250005    3.2153024847
 H    0.2521608085   -1.5616954758    1.5836565306