17

 C    0.2062177804    1.4696021390    0.0494151264
 C   -0.0350055241   -0.0381937717   -0.0410257086
 C    0.7050603701   -0.6854586198   -1.2634927288
 N    1.8724602571   -1.2162347075   -0.5995644323
 N    3.0304835336   -1.8205284399   -0.9913717686
 C    3.5369435510   -2.1604220228    0.1852934499
 N    2.7867757609   -1.8504494268    1.2963421864
 C    1.7459598360   -1.2719739575    0.7342764645
 N    0.5195465775   -0.7716010128    1.1333183357
 H    1.2779882240    1.6920269574    0.0765564741
 H   -0.2311587965    1.9824082854   -0.8132472397
 H   -0.2550789952    1.8843849206    0.9517125385
 H   -1.1079676911   -0.2360935438   -0.1088050437
 H    0.1143392085   -1.4836720237   -1.7271599609
 H    0.9613372779    0.0528699572   -2.0275094889
 H    4.4943778850   -2.6550985465    0.2586644053
 H    0.5071169449   -0.2695456966    2.0107918706