17

 C   -0.0622016930    1.3288457369   -0.5596048870
 N    0.0130422748    0.0382282860    0.1034604233
 C   -1.2445913819   -0.6312963820    0.3334597742
 C   -1.1435077260   -1.9490836487    1.0194845587
 C    0.0175722873   -2.5485940295    1.2960969676
 C    1.2870764787   -1.9390526014    0.8906747215
 O    2.3612054724   -2.4759956308    1.0755144518
 C    1.2386350096   -0.5865370414    0.1854149239
 N    2.3010692174   -0.0412587705   -0.2710784026
 H    0.8609636785    1.8761166250   -0.3712012019
 H   -0.1793032206    1.2273113324   -1.6479141773
 H   -0.9165836845    1.8882628260   -0.1656671179
 H   -1.8986628650    0.0248488559    0.9303932092
 H   -1.7907584725   -0.7814321472   -0.6175475659
 H   -2.0902664080   -2.4125958921    1.2832822441
 H    0.0756506253   -3.5099146891    1.7952892271
 H    3.0853509075   -0.6520243297   -0.0352036389