18

 N    0.1766544780    1.2080330783   -0.6536895975
 C    0.2297263846    0.0066491901   -0.0297894132
 O    1.2314229760   -0.4371144598    0.5017164987
 C   -1.1090651798   -0.7680827317   -0.0111537961
 C   -1.9115114524   -0.6844508962   -1.3125805430
 O   -2.4743684670    0.6137747343   -1.4602615193
 C   -1.0228853952   -2.1482232462    0.6645156325
 C   -1.9663121494   -1.5474842753    1.7233397180
 O   -1.9577765535   -0.2524913492    1.0649194999
 H    1.0030422803    1.7831490485   -0.6549176025
 H   -0.6806196437    1.5242855779   -1.0848480753
 H   -1.2786842301   -0.8682256959   -2.1862403261
 H   -2.7038881581   -1.4465569491   -1.2954912258
 H   -2.9246805782    0.7835349177   -0.6199386232
 H   -1.4216624232   -2.9802383251    0.0818881352
 H   -0.0186275875   -2.3740398849    1.0178269967
 H   -2.9768294407   -1.9694648465    1.7623132787
 H   -1.5651515201   -1.4784513471    2.7392175724