16

 C   -0.0730516468    1.4043651914   -0.0371529096
 N   -0.2086532320   -0.0317493227   -0.2415952332
 C    0.5727992796   -0.6223539655   -1.0123349881
 O    1.6277946204   -0.1750450009   -1.7854712318
 C    1.9491227365   -1.5302810521   -2.2196356160
 C    0.7644481988   -2.0970730017   -1.3947163195
 O    1.2249780553   -2.9153886820   -0.3419303804
 C   -0.3299521900   -2.6968254714   -2.1464618785
 C   -1.2398972265   -3.1970343309   -2.7509872808
 H    0.7859159237    1.8498000842   -0.5516632597
 H   -0.9864935987    1.9007366696   -0.3824179309
 H    0.0138287505    1.6030650235    1.0361255819
 H    1.8754769291   -1.6293190449   -3.3030446068
 H    2.9225009914   -1.8513269218   -1.8447206862
 H    0.5034794026   -2.9967612279    0.2935637470
 H   -2.0467137138   -3.6369200469   -3.2841297276