13

 O    0.0081452562   -0.0343586813   -0.3012850479
 C   -0.0029700385    1.0999925518    0.1065921714
 C    1.2129608149    1.9610276293    0.0963644467
 C    1.1782562359    3.4663916006   -0.1671201163
 O   -0.0606279602    4.1192319842   -0.0227297067
 C   -0.4497654839    4.0800752574    1.2892928869
 O   -1.4503806866    4.5460065955    1.7177254142
 O    0.4748286892    3.3872984962    2.0238276180
 C    1.5329565589    2.9815177496    1.1886187243
 H   -0.9289015213    1.5540027093    0.5109448451
 H    2.0884910868    1.4646058660   -0.3101890898
 H    1.8343247515    3.9325917656   -0.8894601441
 H    2.5028171071    3.0187342457    1.6656159180