17

 C   -0.3969441002    1.5160371195    0.0147179618
 C    0.1275407827    0.0850197480    0.0508264621
 C    0.9636588765   -0.3533610173   -1.1716056596
 O    0.7366479878   -0.0305951655   -2.3062454835
 C    2.1336189125   -1.2300272416   -0.7053472234
 C    1.8951519943   -1.4855268480    0.7941733554
 O    3.0588196597   -1.5795101186    1.5637006904
 C    1.0328261776   -0.2879400597    1.2072548671
 O    1.1842824541    0.2942534561    2.2535236579
 H    0.4281249707    2.2315896031    0.0658951119
 H   -0.9420554725    1.6863780741   -0.9161265679
 H   -1.0599757327    1.7071570882    0.8612125418
 H   -0.7165288790   -0.6250796085    0.0750669182
 H    2.2292462874   -2.1295751859   -1.3167087574
 H    3.0578442538   -0.6507427248   -0.8256284291
 H    1.2734521027   -2.3915458347    0.9119971495
 H    2.9115421147   -1.0085674244    2.3335601548