15

 O   -0.0692762865   -0.0333839415    0.0847925285
 C   -0.0100586040    1.1745768366    0.0506979761
 N    1.1600702700    1.8852076858   -0.0192478179
 C    2.4447350780    1.3189109560   -0.0590158246
 C    3.4025409029    2.2424462767   -0.0429357725
 C    2.8076346530    3.6301968362    0.0268954616
 C    1.2622282070    3.3566132489   -0.0308896695
 C    0.6354615334    3.9352221762   -1.2275862956
 N    0.1412524828    4.4053447734   -2.1600045379
 H   -0.8966620913    1.8354741324    0.0712282147
 H    2.5070747915    0.2420976453   -0.0934819430
 H    4.4641770185    2.0480059937   -0.0679485795
 H    3.0705880345    4.1521579181    0.9532247819
 H    3.1213886270    4.2709497506   -0.8020374624
 H    0.7569688531    3.7764688016    0.8444007401