16

 O    0.0494290202    1.3745037663   -0.0286659355
 C    0.0196955177    0.0008833770   -0.0085248553
 C    1.0088652137   -0.5302969887   -1.0308279267
 O    1.6629088767    0.2399372173   -1.6981306644
 C   -0.0198042785   -0.6565321800    1.4587650876
 N   -1.4369601005   -0.1751217551    1.4902443667
 C   -1.4507433208   -0.6457042679    0.0691733666
 C   -1.1039285611   -2.1325299807    0.1690957297
 C   -0.1414273230   -2.1398039628    1.1038069409
 H    0.7091654618    1.6090208645   -0.7053139167
 H    1.1095105873   -1.6200394164   -1.1434106588
 H    0.6602370990   -0.3228028343    2.2415148847
 H   -2.0156123065   -0.7756705657    2.0814433746
 H   -2.2504742812   -0.3007949233   -0.5850429411
 H   -1.4930681540   -2.9368794301   -0.4389637004
 H    0.4714816291   -2.9517334600    1.4688548581