18

 N    0.0474647767   -1.1902385662   -0.0271229201
 C   -0.0284327333   -0.0328971819   -0.0175415927
 C   -0.0759740770    1.3943458725   -0.0124573188
 C   -1.2869106024    1.9899338223    0.0741703164
 C   -1.6216384673    3.4035022330    0.0591537754
 C   -0.8313519937    4.4891300720    0.1223640037
 C    0.6554831224    4.5864809625    0.2880709851
 C    1.3905321650    3.3401973084    0.7878094814
 C    1.2601604817    2.1011221435   -0.1128028072
 H   -2.1449892841    1.3254989284    0.1289462240
 H   -2.6890160332    3.5915328550   -0.0294235800
 H   -1.3341749095    5.4523605304    0.0544226023
 H    1.0894118247    4.9170419240   -0.6682618500
 H    0.8608864941    5.4132941907    0.9820261160
 H    2.4532572044    3.5894754280    0.8784454544
 H    1.0429087177    3.0878269532    1.7956734128
 H    2.0464994398    1.3854946772    0.1438695397
 H    1.4409365840    2.3816173369   -1.1595708425