20

 C   -0.7169214537    1.2322848127   -0.1678187171
 C   -0.0370511178   -0.1254455874   -0.1633240928
 C    1.4168255080   -0.2812563377   -0.7287988805
 O    2.2224095000    0.8681601272   -0.6216288313
 C    1.6671449538   -1.3494516603    0.3789186216
 C    0.4740246149   -0.7466293969    1.1633796153
 O    0.9116049423    0.3138042113    2.0256342853
 C    1.2160748323   -0.0115123207    3.2988183999
 N    1.8043035579    0.8236904228    4.0385476656
 H   -0.0821570917    1.9994827481    0.2789842639
 H   -0.9443212830    1.5390835097   -1.1935919305
 H   -1.6572679804    1.2037938988    0.3925449118
 H   -0.6740539030   -0.8739848287   -0.6484072368
 H    1.5020771719   -0.6127819702   -1.7661516847
 H    2.2030744784    1.1612398646    0.2982623621
 H    1.4563240897   -2.3663629532    0.0366184070
 H    2.6431814175   -1.3233456340    0.8690848417
 H   -0.1921105489   -1.4183980498    1.7158935861
 H    0.8847222633   -1.0205462653    3.5802259049
 H    1.9244867484    0.4381854691    4.9729006788