16

 O    0.0392297379    1.4196961215   -0.1067235556
 C    0.0168103092    0.0266707987    0.1715995993
 C   -1.3970074860   -0.5332951500    0.1137639030
 C   -2.0145885075   -0.8448144041   -1.2914131618
 O   -1.0671967605   -1.9917006177   -1.4136269746
 C   -1.5795266968   -2.0801954018   -0.0110051492
 C   -2.9529713450   -1.8186500584   -0.5915099039
 N   -4.1174170090   -2.2837486463   -0.5113525376
 O   -4.9990960452   -1.6167056798   -1.3876144436
 H   -0.1068079461    1.5348590915   -1.0507314922
 H    0.6712335806   -0.5396361071   -0.5003518320
 H    0.4033548158   -0.0793292189    1.1909297081
 H   -2.0652562011   -0.0280775145    0.8174163563
 H   -2.1678049787   -0.2110499574   -2.1618894518
 H   -1.2144935503   -2.8898572472    0.6171145194
 H   -5.8278828673   -2.0806092386   -1.2264443837