12

 O    0.2879388001    1.0102105545   -0.7245493898
 C   -0.1278961906    0.2464852051    0.3758382933
 C   -1.4427807973   -0.4438131097    0.1491729175
 C   -2.1739758440   -0.6853784039   -0.9884712641
 N   -3.3034091597   -1.3800137651   -0.5931370501
 N   -3.3136522928   -1.5688314946    0.6340484048
 O   -2.0821949266   -0.9587069111    1.1773576706
 C   -1.8892645270   -0.3624489403   -2.3360795550
 N   -1.6284332587   -0.1158729087   -3.4364045845
 H    0.5725327774    0.4288470353   -1.4381078244
 H    0.6120389371   -0.5086662538    0.6836748501
 H   -0.2441303278    0.9339217822    1.2203940216