21

 C   -0.2227095194    1.4567575318   -0.2156433401
 C    1.2178921875    1.3058611998    0.1961755367
 C    0.3588256007    0.0774960843   -0.0020635512
 C   -0.0650185348   -0.7297493710    1.1906345843
 C   -1.1805634836   -1.8109851750    1.1449974632
 C   -0.7486226906   -2.7731141021    0.0184126197
 C    0.7466049887   -2.9221854196    0.4477871108
 C    0.6885242366   -1.9969750026    1.6816238400
 O   -0.5571959867   -2.4251102132    2.3160206572
 H   -0.9255754190    1.8272094259    0.5234069396
 H   -0.4394883762    1.7710217969   -1.2304715661
 H    1.9894016231    1.5169215989   -0.5358476422
 H    1.4854968984    1.5740321458    1.2129998653
 H    0.5586810448   -0.4878636689   -0.9069618704
 H   -0.2482002947   -0.0821397976    2.0528906899
 H   -2.2395401090   -1.5836801965    1.2694380869
 H   -1.2985088896   -3.7144584682    0.0747880571
 H   -0.8818556031   -2.3527768260   -0.9820139835
 H    1.0017829743   -3.9437395213    0.7359293995
 H    1.4601086507   -2.5868213949   -0.3097180612
 H    1.5443867619   -1.9604580166    2.3559864243