19

 C   -0.1140735776    1.6446286246   -0.0292676370
 C    0.0218709736    0.1153328411   -0.0393380303
 O    0.7436005119   -0.3239138979    1.1093335484
 C   -1.3596145758   -0.5613203812   -0.0182226044
 O   -1.9369469768   -0.2784182893    1.2558492713
 C    0.7878606774   -0.3514977862   -1.2692605317
 C    2.2671196194   -0.4025706498   -1.2661898421
 N    1.4742348713   -1.6498266257   -1.2579579479
 H    0.8733894155    2.1010140464    0.0717507758
 H   -0.5717264496    2.0062929107   -0.9564762786
 H   -0.7395465874    1.9655326810    0.8081221678
 H    0.0942855316   -0.3565263013    1.8240382700
 H   -1.9874462395   -0.1752748773   -0.8339289625
 H   -1.2310058003   -1.6425635870   -0.1596349058
 H   -2.6738449380   -0.8775238659    1.4013211601
 H    0.2796250671   -0.1275759463   -2.2058778976
 H    2.8179137789   -0.2122087284   -2.1829243651
 H    2.7755436744   -0.1208337621   -0.3497251017
 H    1.4572499439   -1.9868311955   -0.2959681588