20

 C   -0.0150102796    1.5056871055    0.0861394006
 N   -0.0130958779    0.0583741934    0.1394464320
 C   -1.2863170309   -0.6220062928    0.4559112031
 C   -0.4795444320   -1.7006870751    1.2156561229
 O   -0.1854887870   -2.8603601781    0.4765109559
 C    0.6552343643   -0.6277298736    1.2697177857
 C    2.1014364233   -1.0970612880    1.0740136781
 C    3.0607880085    0.0579170079    0.9023477532
 O    3.8050519547    0.4611412349    1.7601861835
 H    0.9959637693    1.8833020904   -0.0970161798
 H   -0.6504737606    1.8415709523   -0.7400013113
 H   -0.3896970778    1.9692130045    1.0177586479
 H   -1.9373787081   -0.0394084184    1.1282731451
 H   -1.8706538566   -0.9534852649   -0.4099373130
 H   -0.8694916322   -2.0375392703    2.1762881791
 H    0.0362299932   -2.5874069434   -0.4211585662
 H    0.5828076527   -0.0465602115    2.2052695437
 H    2.4071862250   -1.6745684136    1.9518280604
 H    2.1497412529   -1.7402678712    0.1887817872
 H    3.0316570288    0.5439152417   -0.0995960782