15

 N    0.1378292560    1.4242443461    0.0201671000
 C   -0.0082464016    0.0256796241    0.0163315096
 C   -1.0682855284   -0.8490287167    0.0018756315
 O   -2.3709113443   -0.4435514291   -0.0136810303
 C   -3.3535258166   -1.3834568053   -0.0267402675
 N   -4.5530844288   -0.9928322029   -0.0411189555
 N   -0.6636181198   -2.1482577391    0.0048425743
 C    0.6564282938   -2.0907503601    0.0213263393
 N    1.0986219310   -0.8122098004    0.0285944410
 H   -0.2870351859    1.8462277901   -0.7995771285
 H   -0.3049409224    1.8437309317    0.8316870484
 H   -2.9704576494   -2.4048916432   -0.0229748107
 H   -5.1710907366   -1.8022508454   -0.0494563102
 H    1.3191273641   -2.9422019152    0.0282786669
 H    2.0509936390   -0.4859289147    0.0406586519