17

 C   -0.0297426533    1.5223047704    0.0036590407
 C    0.0779836784    0.0145057663    0.0646422096
 O    1.1236064024   -0.5807517104    0.1453245378
 N   -1.1418079562   -0.6927126485    0.0217638693
 C   -2.4341448435   -0.2056637063   -0.0676331556
 N   -3.3180317568   -1.1591330340   -0.0820973188
 C   -2.5947420047   -2.3495193753    0.0013884019
 C   -3.2881990654   -3.6706750623    0.0108948747
 C   -1.2613399283   -2.0804746525    0.0656939883
 H    0.9777197040    1.9343849410    0.0415220034
 H   -0.5207765631    1.8441265874   -0.9196447186
 H   -0.6128956264    1.9081506261    0.8453025469
 H   -2.6464991081    0.8509255345   -0.1177443014
 H   -3.8807761298   -3.8070769576   -0.9000185119
 H   -2.5703019389   -4.4915884286    0.0814285496
 H   -3.9796858787   -3.7425266509    0.8571871263
 H   -0.3846129214   -2.6994444493    0.1370451875