16

 C   -0.1500691662    1.5696661781   -0.0249839842
 C    0.0225994867    0.0803869001    0.0314174125
 C   -1.1847084233   -0.8687969465    0.1539685716
 O   -0.5104774295   -1.6613225362    1.1724680219
 C    0.6297367780   -0.7928656607    1.1803883641
 C    1.6922335215   -1.1807224996    0.1350954184
 O    1.0071120358   -0.4279014237   -0.8922426198
 C    1.0320069224   -0.3461518974    2.4971336978
 N    1.3676999485    0.0407356176    3.5335169568
 H    0.8091791182    2.0764609589    0.1076248144
 H   -0.5530522115    1.8556430060   -1.0028505042
 H   -0.8428451911    1.9133427505    0.7482215971
 H   -2.0988732444   -0.4158198024    0.5543511601
 H   -1.4058183682   -1.4477003336   -0.7471292951
 H    2.6936872091   -0.7794798393    0.3271022751
 H    1.7402971740   -2.2533305918   -0.0751450666