17

 C    0.0006603263    1.5237923896   -0.0166436305
 C    1.4473305332    2.0566291323    0.0108247896
 N    2.2151621523    1.6507005267    1.2065271974
 C    1.9000310434    0.3524882432    1.5937353466
 C    0.9305571677   -0.4739437295    1.0720265944
 C   -0.0380972015   -0.0202715856    0.0278604402
 N    1.0185509885   -1.6851657909    1.6903139415
 N    1.9778536453   -1.6570721717    2.5683462245
 N    2.5350384651   -0.4148228959    2.5097821407
 H   -0.5443939322    1.9287522122    0.8450115744
 H   -0.5004868671    1.8936706833   -0.9167935815
 H    1.9863243265    1.6878630451   -0.8708484477
 H    1.4610983646    3.1484029498   -0.0376559381
 H    2.1392587159    2.3238857774    1.9602392159
 H   -1.0494928522   -0.3736887891    0.2522363685
 H    0.2224994662   -0.4317693647   -0.9563177695
 H    3.3207310681   -0.1927360721    3.0988176734