19

 C   -0.2349591280    0.8288360338    0.5644187850
 C    0.6779971325   -0.0210133461   -0.2824875690
 O    1.7477415046   -0.4286653232    0.1234926904
 C    0.1314771483   -0.4223502389   -1.6659469006
 C    1.1966779940   -0.8682155053   -2.6744234647
 C    1.3121028733   -2.3872469235   -2.4273136230
 O    2.2698006313   -2.7298549343   -1.4539358246
 C   -0.1291077738   -2.7348507198   -2.0186884397
 O   -0.6947276896   -1.5671506822   -1.4014540402
 H   -0.3831705248    1.8050372066    0.0874628307
 H   -1.2190179415    0.3509282240    0.6217620206
 H    0.1804752737    0.9632230793    1.5633175271
 H   -0.5086816228    0.3784969628   -2.0565556065
 H    0.8399879714   -0.6737654715   -3.6898514124
 H    2.1563951689   -0.3666557685   -2.5397971380
 H    1.5921418256   -2.9226127066   -3.3399864618
 H    2.2744636029   -2.0302025900   -0.7807408382
 H   -0.7385944413   -3.0034841744   -2.8936223661
 H   -0.1469606347   -3.5598215822   -1.3017737091