18

 C   -0.0759204401    1.4968023109   -0.0267206099
 C    0.0236976725   -0.0099489491    0.0067093623
 O   -1.2427865258   -0.5936032734   -0.4222942248
 C   -1.5717247485   -1.4788273461    0.5559654204
 N   -0.8208313164   -1.6453717017    1.5686091397
 C    0.3146314921   -0.7464824993    1.3474138892
 C    1.6002848792   -1.3355629215    0.7288794029
 C    1.2950583647   -2.1224489828   -0.5075503488
 C    1.2867337179   -0.6254226362   -0.6087308295
 H    0.8540382808    1.9430110967    0.3390499878
 H   -0.2458138677    1.8527339994   -1.0480712360
 H   -0.9006457975    1.8440680305    0.6022762565
 H   -2.5095671837   -1.9973319412    0.3829088294
 H    0.4991043457   -0.1145380930    2.2194157936
 H    2.5491245298   -1.4154388300    1.2443277351
 H    2.1565568501   -2.5953229714   -0.9680982728
 H    0.3797356699   -2.6986244029   -0.5959839197
 H    1.9578662869   -0.0901827488   -1.2702907255