17

 O    0.0340888948    1.3350808508   -0.4680316483
 C    0.0368492785    0.0512155402    0.1356580178
 C   -1.3576408731   -0.5110037627    0.2220053702
 C   -2.3843457924    0.1373018509    1.1363698241
 O   -3.3974295088   -0.8591958673    1.3637568780
 C   -2.9280796240   -2.1079592756    1.0269253812
 N   -3.4527436812   -3.1998597334    1.3787122638
 C   -1.7197960032   -1.9554024965    0.1704389394
 N   -1.8953734394   -1.0847620569   -1.0135141905
 H   -0.2780264633    1.2147763550   -1.3722124564
 H    0.6767927086   -0.6553786225   -0.4104076694
 H    0.4571285803    0.1859560757    1.1378773428
 H   -1.9332397499    0.4216263183    2.0949111460
 H   -2.8629724537    1.0188060065    0.7001489338
 H   -4.2522158652   -3.0334813480    1.9926693296
 H   -1.0281934219   -2.7824521732    0.0761840719
 H   -2.8794891760   -0.8517900913   -1.1376512839