18

 O    0.4110818885    0.1834816787    0.5435647510
 C   -0.0276083003    1.2683572161    0.2491462604
 C   -1.4938704603    1.4815417506   -0.0972450532
 C   -1.7440092584    2.1659792661   -1.4542343550
 N   -1.1182612665    3.4875536327   -1.5362073646
 C    0.2212924712    3.4921595371   -2.1015064038
 C    1.2912261735    2.8775901400   -1.1944758457
 O    2.4124615174    2.7085109959   -1.6051268071
 C    0.8847815197    2.5049323763    0.2305435969
 H   -1.9856966531    0.5058753142   -0.0660584548
 H   -1.9290739972    2.1160207142    0.6859233247
 H   -1.4096840078    1.5026606557   -2.2703723725
 H   -2.8252373858    2.2861481983   -1.5703968552
 H   -1.7070168422    4.1172405169   -2.0647851260
 H    0.3031732199    2.9749174943   -3.0741188347
 H    0.5294067319    4.5303246536   -2.2738571766
 H    0.3450364123    3.3517759282    0.6664878614
 H    1.7898352872    2.2734135811    0.7910614846