15

 O    0.1141614586    1.4025127502    0.1983105198
 C   -0.0010904020    0.0128245266    0.0495254816
 C   -1.4337411744   -0.5200850907   -0.1831160810
 C   -2.0535665594    0.1769614033   -1.3999504866
 O   -1.3109700312   -0.4138794253   -2.4895172176
 C   -0.4441600738   -1.3656660653   -1.8713529489
 O   -1.1357080940   -1.8237195444   -0.7321197553
 C    0.6580415472   -0.4956674721   -1.2503914108
 O    1.7218505804   -0.1404580920   -1.6812652175
 H    0.9485958447    1.6582311301   -0.2184099848
 H    0.4294403802   -0.5294164623    0.9053781390
 H   -2.0636086683   -0.6167365682    0.6980977359
 H   -3.1152810341   -0.0582583836   -1.5172637199
 H   -1.9006972673    1.2582545572   -1.3814627793
 H   -0.1797573866   -2.1657406835   -2.5587726147