16

 O   -0.8724735849    1.1868497803    0.7125123359
 C   -0.4244806844   -0.0850597044    0.4090082528
 C   -0.8991062590   -1.3268776372    1.0913761655
 C   -1.3003423313   -1.0838563395   -0.3692229747
 C   -2.7503432481   -0.7208680938   -0.7378885755
 C   -3.5293057948   -0.1162290498    0.3371668851
 C   -4.1745625012    0.3710971054    1.2285154244
 C   -0.6441145167   -1.8709185333   -1.3767733745
 N   -0.1134003476   -2.4960488831   -2.1940938107
 H   -1.7628697145    1.1347923906    1.0836769520
 H    0.6166228662   -0.0505613473    0.1072903813
 H   -0.1887928312   -2.1193510631    1.2961940645
 H   -1.7030334442   -1.2327465513    1.8137108365
 H   -2.7331717047   -0.0434366808   -1.6000800778
 H   -3.2633874308   -1.6312722825   -1.0696402054
 H   -4.7691742927    0.7954860098    2.0004780208