20

 C    0.1047381261    1.5505987067   -0.0389024369
 C   -0.0305465813    0.0215165918    0.0198703158
 C    0.7335215108   -0.5418144854    1.2251086234
 C   -1.4944369631   -0.4343685911    0.0827305867
 N   -2.2241939148   -0.0914535927   -1.1281543554
 C   -3.4596067367   -0.6039760216   -1.3826065509
 N   -4.0213156906   -1.4750459363   -0.6282785148
 C   -4.0713807819   -0.0875218525   -2.6002184472
 N   -4.5925787079    0.3054663662   -3.5547876526
 H    1.1583994808    1.8438576435   -0.0745035716
 H   -0.3756477672    1.9906155960   -0.9201785620
 H   -0.3422841654    2.0149619782    0.8477037509
 H    0.4073612570   -0.4021196723   -0.8942843365
 H    0.3192185696   -0.1608435224    2.1657911140
 H    0.6829554039   -1.6346484801    1.2551117308
 H    1.7883217526   -0.2535961756    1.1870300578
 H   -1.5531894629   -1.5202297105    0.2034794730
 H   -1.9883144230    0.0012830136    0.9649623346
 H   -1.9317121843    0.7111110587   -1.6592810927
 H   -4.9171977513   -1.7660367642   -1.0103959462