19

 C    0.0712063334    1.6121541135    0.0795060202
 C    0.0135377530    0.0795585602   -0.0509183958
 C   -1.3837981460   -0.4566493279   -0.0825653119
 C   -2.1260296222   -0.8978751110   -1.1194473720
 N   -1.8380714356   -0.9114922388   -2.4661417021
 C   -3.4930522006   -1.3422793908   -0.6434837736
 N   -3.4550466369   -1.0085767791    0.7622799999
 C   -2.1868545972   -0.5875532774    1.1530168823
 O   -1.8374658308   -0.3800436094    2.2991749171
 H    1.1074364189    1.9623958929    0.1258125383
 H   -0.4179920686    2.1010355046   -0.7691567980
 H   -0.4375076271    1.9287083373    0.9939544043
 H    0.5666042144   -0.2380339176   -0.9452264446
 H    0.5284085278   -0.3640605018    0.8093284337
 H   -0.8637605592   -0.8027433209   -2.7072887400
 H   -2.2936848393   -1.6269406980   -3.0137530529
 H   -4.2895213653   -0.8094371709   -1.1812250442
 H   -3.6411551670   -2.4194238326   -0.8189363965
 H   -4.0579314916   -1.4504572921    1.4364814854