19

 C    0.0662597285    1.4623334009    0.0312897743
 C    0.0517704407   -0.0387173686   -0.0582625209
 O    1.0616981974   -0.7015425352   -0.1876537681
 C   -1.2909095396   -0.7903351617   -0.0071438772
 O   -1.0703804416   -2.1406381609   -0.3161484380
 C   -1.9632912189   -0.6737095484    1.3775848938
 O   -2.3860396153    0.6651914092    1.5689017423
 C   -3.1667941675   -1.6087833155    1.4808688053
 O   -3.7823837871   -1.2965498228    2.7307321657
 H    1.0947572871    1.8247592591    0.0197246831
 H   -0.4841773960    1.8834541286   -0.8179903354
 H   -0.4627918111    1.7880503622    0.9304291862
 H   -1.9741149813   -0.3325283916   -0.7402452355
 H   -0.1015190114   -2.2257863237   -0.3595721562
 H   -1.2358489996   -0.9676554427    2.1528107438
 H   -3.0368156272    0.6259880753    2.2826594407
 H   -3.8528374103   -1.4118135526    0.6437328325
 H   -2.8398616086   -2.6522847735    1.4328139607
 H   -4.6458605582   -1.7168097280    2.7625051329