23

 C   -0.4762070356    2.1638595821    0.8622576291
 C   -0.1959152772    0.6707333068    0.6527614466
 C   -1.4698126286   -0.1283411080    0.4149181400
 C   -1.4566744921   -1.6811834013    0.1767988409
 C   -0.7497545347   -2.1568740557    1.4499915038
 O   -1.4145553643   -1.3259149428    2.4347471381
 C   -2.3425017066   -0.5875452547    1.6153017559
 C   -2.9387894683   -1.6924869457    0.6993622595
 C   -4.0608802391   -1.3527729093   -0.2723970935
 H    0.4492533320    2.7216209850    1.0353694539
 H   -0.9717535387    2.6033925286   -0.0108587539
 H   -1.1271443440    2.3252765634    1.7282727834
 H    0.4773597346    0.5416527239   -0.2053444092
 H    0.3293300604    0.2781319703    1.5288112492
 H   -2.0774463028    0.3613976287   -0.3486596046
 H   -1.1580579239   -2.1297047790   -0.7713385131
 H   -0.9252764575   -3.2161903616    1.6714697920
 H    0.3293154451   -1.9674070152    1.4630556768
 H   -2.9341220908    0.0763436573    2.2454916211
 H   -3.2062561190   -2.5945119834    1.2606125587
 H   -3.8627347278   -0.4654586045   -0.8789385532
 H   -4.2325901722   -2.1878236699   -0.9605694511
 H   -4.9973767290   -1.1789639749    0.2691223396