14

 O   -0.6120023060    1.5117673359   -1.9306280638
 C   -0.0249614179    1.6690848477   -0.8915350067
 C    1.3811396961    2.2371545363   -0.7847089981
 N    2.0830344778    1.6907354063    0.3578308142
 C    2.9239067179    0.5185990892    0.1155149092
 C    3.5328855762    1.8526812139    0.3735001217
 C   -0.6841266731    1.3339305384    0.3899765720
 N   -1.2601718322    1.0709903155    1.3574026675
 H    1.8730833909    2.0785328841   -1.7579663353
 H    1.2718665419    3.3225288367   -0.6442163173
 H    2.9030433262   -0.2383814358    0.8928897997
 H    2.9803923118    0.1332408225   -0.9011304200
 H    3.9988868068    2.3582824779   -0.4702930371
 H    3.9655982235    2.0846857713    1.3417672239