18

 C   -0.2847083081    1.5749246122    0.1553769604
 C   -0.1460342233    0.0897897134   -0.0138051893
 C   -0.8568757857   -0.9461528569    0.8097425076
 C   -1.9246130750   -1.8949074428    0.3622445897
 O   -2.5162778370   -2.6257357985    1.1189325682
 C    0.6902294515   -0.9254251263    0.7185076980
 N    1.4036244022   -1.3989795212   -0.5129684944
 C    0.4481554060   -1.9982616001   -1.4506181460
 C    0.4678711210   -0.5207603516   -1.3043470580
 H    0.6201118553    2.0966431122   -0.1760303112
 H   -1.1281739538    1.9643482747   -0.4269402083
 H   -0.4575500506    1.8330235592    1.2045447651
 H   -1.0956145882   -0.5890019933    1.8116460379
 H   -2.2056238110   -1.8360898397   -0.7110480368
 H    1.2636421340   -0.8590145606    1.6346929135
 H    0.9355292446   -2.3869425591   -2.3416706338
 H   -0.3440040501   -2.6341885688   -1.0776011943
 H    0.8605405382    0.1195419371   -2.0882717883