14

 C   -0.0229770108    1.4397066712   -0.0019170462
 N    0.0213862660   -0.0114376405    0.0071135812
 C    0.1084689308   -0.7809618372   -1.1512356457
 C    0.0812254027   -2.0871198681   -0.7249103459
 O    0.1259754928   -3.3387040284   -1.1698745506
 N    0.0384793981   -4.1704297302    0.1101652375
 N   -0.0391345108   -3.4053580427    1.0818281594
 C   -0.0229866460   -2.0898538799    0.6848248159
 C   -0.0604999087   -0.7797561701    1.1328925947
 H    0.8104598822    1.8393002148   -0.5861998419
 H   -0.9624398936    1.7999589150   -0.4331311624
 H    0.0596390518    1.8070135681    1.0217579878
 H    0.1788689306   -0.3192274712   -2.1199737039
 H   -0.1364843851   -0.3391153508    2.1118450500