16

 N   -0.0007929110    1.4703031345    0.1340036014
 C    0.0337351186    0.0558550424   -0.0197954963
 C    1.1994971940   -0.6537344537    0.7311845330
 C    1.0806003124   -2.1481157713    0.7445667246
 C    1.5404976549   -1.4785367709   -0.5188616320
 C    0.3606124248   -0.8250228270   -1.2627522021
 O   -0.9333885069   -1.4987982136   -1.1267610317
 C   -1.3119332073   -0.7024782891   -0.0567939493
 O   -2.3591850740   -0.7027542923    0.5024256054
 H    0.9169168510    1.8828202793    0.0044252733
 H   -0.6471049054    1.9123950452   -0.5109096510
 H    1.8466213705   -0.1139569271    1.4119739893
 H    1.8656866986   -2.6554534303    1.2957826076
 H    0.1165599768   -2.6438603405    0.7903947980
 H    2.5044372825   -1.6829047355   -0.9666277643
 H    0.5145818206   -0.4418819003   -2.2697752561