14

 O    1.4306831756    0.4031860496   -0.5583873546
 C    0.4874663553   -0.4915696403   -0.2643611131
 C   -0.3843642803   -1.2702092790   -0.9950667172
 N   -0.5643758259   -1.3711406762   -2.3874678635
 C    0.1029251244   -0.7035018537   -3.3428744225
 O    0.9965437047    0.1203113439   -3.1544783206
 N   -1.1662752343   -2.0399110518   -0.1698086232
 C   -0.7870369664   -1.7445985186    1.0488858715
 N    0.2148939439   -0.8091730347    1.0443631401
 H    1.4386608826    0.4573243259   -1.5487996998
 H   -1.2814010415   -2.0263942606   -2.6638471833
 H   -0.2323932982   -0.9675018409   -4.3580252685
 H   -1.1868483479   -2.1616224096    1.9592214973
 H    0.6882668381   -0.4054218939    1.8354861873