20

 C   -0.0583022958    1.5022464229    0.0666202167
 N   -0.0368076501    0.0542739086    0.0469438960
 C   -1.3501048882   -0.5366209912   -0.1828442488
 C   -1.2298214861   -2.0606146273   -0.1256752896
 C   -0.0535035964   -2.5931051939   -0.9729043758
 O    1.0503967377   -2.5724361296   -0.0627162378
 C    0.5491510039   -2.0503720144    1.1551976632
 C    0.6535689507   -0.5204618629    1.1968373180
 O   -0.8139480011   -2.4223136862    1.1971309854
 H    0.9643575981    1.8871671031    0.1377016090
 H   -0.4992443359    1.8793391936   -0.8623468466
 H   -0.6381827308    1.9205091272    0.9121184701
 H   -2.1015547724   -0.2235933647    0.5674596525
 H   -1.7124663326   -0.2154944937   -1.1677180322
 H   -2.1832011618   -2.5490892076   -0.3331925339
 H   -0.2246416913   -3.6233699596   -1.3048503051
 H    0.1588517179   -1.9571230082   -1.8375196275
 H    1.0739600421   -2.5187720012    1.9919133363
 H    1.7068656907   -0.2199526028    1.1632605743
 H    0.2353468314   -0.1817752420    2.1649070260