20

 C    0.0472706283    1.6271270534   -0.0347222065
 C   -0.0370953172    0.0982651866   -0.0114537223
 C    0.6983814277   -0.5433918795   -1.1773017943
 O    2.0806813087   -0.2472819727   -1.1005110562
 C    2.7240441760   -1.0797513183   -2.0484057683
 C    2.0098145900   -2.4497473511   -1.9645176560
 C    0.6449155087   -2.1043854387   -1.2873495600
 C    0.5000128099   -2.7663051827    0.0071785001
 N    0.3841279039   -3.2977400784    1.0275080451
 H    1.0886985691    1.9564001481    0.0012231919
 H   -0.4042246049    2.0369903782   -0.9451918258
 H   -0.4789391034    2.0578670691    0.8217799862
 H    0.3819881836   -0.2916096351    0.9219733048
 H   -1.0845701648   -0.2246565362   -0.0458442500
 H    0.2931159408   -0.1527044373   -2.1285984085
 H    2.6267112881   -0.6558325400   -3.0603561422
 H    3.7849155101   -1.1265188125   -1.7938537109
 H    1.8645906010   -2.8993310530   -2.9485548825
 H    2.5728829488   -3.1559381071   -1.3531610792
 H   -0.2012824542   -2.4078624626   -1.9099475353