15

 O   -0.6307040062    1.2852170695    1.2635796498
 C   -0.3695167874    0.0407376518    0.6405636197
 C   -1.5500358465   -0.5700305752    0.0347761995
 C   -2.5414708516   -1.0198815568   -0.4879434869
 C   -3.7169536368   -1.5910746742   -1.1088967988
 O   -3.7250474243   -2.6924055511   -1.6172545967
 C   -4.9576947151   -0.7416551903   -1.0883974972
 C   -5.3525520233   -0.0128487905    0.1351268712
 O   -4.7904725642    0.6708481687   -0.9740815371
 H   -1.0520336596    1.8575140642    0.6131384647
 H    0.4162028784    0.1198943803   -0.1282363034
 H    0.0248857909   -0.6163923627    1.4237999626
 H   -5.7275004883   -1.0822842881   -1.7779069189
 H   -6.4123541223    0.1602401055    0.3138805396
 H   -4.7193588739   -0.0695730611    1.0183002918