23

 C   -0.0042704213    1.5685811215    0.0885866425
 C   -0.0040255266    0.0418656275   -0.0346912546
 C    0.7175024722   -0.4836976765   -1.2961943421
 C    0.8621747527   -2.0177872824   -1.2631176936
 C    1.7006554495   -2.5840124748   -2.4139518885
 C    1.8316797190   -4.1003373968   -2.3555023547
 O    2.6308832927   -4.5114313779   -3.4530046321
 C   -0.0756153310   -0.0707996394   -2.5206220997
 O    0.2750538296    0.7178421463   -3.3592357867
 H    1.0176042595    1.9584528395    0.1428104426
 H   -0.4898225173    2.0448965420   -0.7689385111
 H   -0.5327402296    1.8864107466    0.9923231675
 H    0.4802690848   -0.4006195077    0.8439721235
 H   -1.0365847353   -0.3339830450   -0.0312274618
 H    1.7061709492   -0.0162090635   -1.3738519282
 H    1.3115845716   -2.3013846312   -0.3030929404
 H   -0.1397076867   -2.4712798568   -1.2730393755
 H    1.2637765424   -2.3114968412   -3.3822241201
 H    2.7059411781   -2.1463518092   -2.3968745140
 H    2.2872049974   -4.3973111391   -1.3958401071
 H    0.8308701411   -4.5620091830   -2.3944489133
 H    2.7115538966   -5.4691648809   -3.4262800519
 H   -1.0761741584   -0.5678766180   -2.5850037909