22

 C    0.0639904256    1.4808357662   -0.1924793419
 N    0.0492581097    0.0289250406   -0.1545558981
 C   -1.0287522533   -0.5855693045    0.1015479278
 C   -1.0293383026   -2.0997873265    0.1082350293
 C   -1.5845387144   -2.7585639019    1.3854859341
 C   -3.1163526282   -2.9015225084    1.4009192549
 C   -3.8662186108   -1.6881721023    0.8200189555
 C   -3.2412021779   -0.3341511188    1.1582250403
 O   -2.2064357625    0.0958383427    0.2646792738
 H    1.0382350911    1.8321757129    0.1618209550
 H   -0.0428344595    1.8255702115   -1.2292810761
 H   -0.7295852752    1.9520169044    0.3985864065
 H   -1.5907405755   -2.4600962131   -0.7646154211
 H    0.0127322054   -2.3836166456   -0.0436400730
 H   -1.1348865274   -3.7508845565    1.4949922116
 H   -1.2475248662   -2.1846615808    2.2569448062
 H   -3.4071224006   -3.7947593992    0.8355922219
 H   -3.4449945187   -3.0763871765    2.4322295516
 H   -3.9320778304   -1.7548411656   -0.2718977703
 H   -4.8992846666   -1.6913371738    1.1862749830
 H   -3.9923221589    0.4551088823    1.0695491370
 H   -2.8682159531   -0.3171256071    2.1916577120