17

 C   -0.1134891620    1.4329983679    0.0267732240
 C    1.3231881216    0.9664632398    0.1263744654
 C    2.0327085597    0.8420051969    1.4572040040
 C    2.7287675375   -0.5206651819    1.5739911076
 N    1.8652789277   -1.6743225392    1.7626536670
 C    0.6566664488   -1.7716778996    1.4294954044
 O   -0.2161416393   -0.9296805121    0.7883280026
 C    0.2313546984   -0.0121549636   -0.1844024210
 H   -0.6180406128    1.6744958004    0.9561710788
 H   -0.4275262110    2.0198171900   -0.8290251609
 H    1.9731882920    1.2080531308   -0.7110533908
 H    2.7698880462    1.6458955794    1.5696331673
 H    1.3241488247    0.9513414995    2.2858485383
 H    3.3552870215   -0.6954412818    0.6870951083
 H    3.4203465107   -0.5083827275    2.4252452660
 H    0.1017355454   -2.6670816177    1.7123436753
 H    0.1578467410   -0.4239336313   -1.1877293664