16

 C    0.1367518731    1.5615260749   -0.0495703606
 C    0.0275982360    0.0710264167   -0.1348406237
 C   -0.9415615154   -0.7381286825    0.6104714746
 N    0.4987382771   -0.8399215510    1.0312564521
 C    1.1134512867   -1.7018986886    0.0548774775
 O    1.7604406931   -2.6878203117    0.2000152206
 C    0.7531004260   -0.7941379015   -1.1649398769
 C    0.0102649463   -1.3892155688   -2.3318174819
 O   -1.1442890495   -1.1588434524   -2.5899058681
 H    1.1739535646    1.8909543304   -0.1686734221
 H   -0.4620632863    2.0286519109   -0.8388802951
 H   -0.2285189129    1.9226509136    0.9153452200
 H   -1.5389476534   -0.2416411917    1.3679060559
 H   -1.4156515489   -1.6026025963    0.1569641331
 H    1.6900635628   -0.3498227987   -1.5233864135
 H    0.6154960607   -2.0906527431   -2.9457801019