19

 C    0.7935569880    1.3007012002   -0.2038887987
 C   -0.1179453623    0.1151075000    0.1017441822
 O   -0.1476952090   -0.8465555143   -0.9618140222
 C    0.8990275348   -1.7995683432   -0.7817579631
 C    1.3469693392   -1.6602368702    0.6616703692
 C    2.2139454429   -2.5691359683    1.4041723696
 O    2.7197970831   -1.3106343606    0.9192376262
 C    0.3381983767   -0.7209019048    1.3244495853
 O    0.8801619317   -0.0165713939    2.4087015970
 H    1.8334320338    0.9860079423   -0.3401689917
 H    0.4630831803    1.7968325707   -1.1200791321
 H    0.7612557705    2.0205634063    0.6187260622
 H   -1.1486120220    0.4622409949    0.2206372127
 H    0.4940141475   -2.7934332571   -1.0031115489
 H    1.7457637037   -1.6104968494   -1.4556395284
 H    2.1131296658   -2.6377377876    2.4861477904
 H    2.6308932335   -3.4477391008    0.9146355003
 H   -0.5178464126   -1.2991797422    1.6917803102
 H    1.8311407142    0.0452360679    2.2345259697