17

 C   -0.0542723296    1.5812205823   -0.0281765876
 C    0.0787377543    0.0724419238   -0.0802100826
 C    0.7610475226   -0.6787433950   -1.2505935341
 C    2.1782461980   -0.0568171063   -1.3162274153
 C    2.3649962818   -0.6231672830    0.0956871242
 C    3.5724334397   -0.7102821128    0.8498893946
 N    4.5751631916   -0.7730766069    1.4231395403
 C    1.2940045454   -1.6407551874   -0.1222971843
 N    1.0566338614   -0.5733367822    0.8712553073
 H    0.8976585805    2.0936047797   -0.1855998351
 H   -0.7616397904    1.9282059411   -0.7890818503
 H   -0.4356366401    1.8849620269    0.9515557737
 H   -0.8852382885   -0.3970017808    0.1421994665
 H    0.2309899548   -0.9507229120   -2.1604951352
 H    2.8175456588   -0.5966138185   -2.0178942795
 H    2.2776278340    1.0191880824   -1.4765465682
 H    1.2564595757   -2.7018657814    0.0840059857