18

 O   -0.0147801523    0.0409344055   -0.3536438525
 C   -0.0359942965    1.2082846755   -0.0960696734
 C   -1.1157962092    2.2248172137    0.3111242639
 N   -0.0184743806    3.1976544803    0.5708520099
 C    1.0188850041    2.3192445159   -0.0300892667
 C    2.3998843273    2.2023321426    0.6864490390
 C    3.1022321231    2.6162632716   -0.6141103753
 C    2.7275897408    1.6746611128   -1.7212654348
 C    1.7512983786    2.7497017021   -1.3160215177
 H   -1.7933904801    2.4699575675   -0.5180721692
 H   -1.7150702570    1.9718826669    1.1921673435
 H   -0.1300261158    4.0846978198    0.0925448218
 H    2.4515389250    2.9594613133    1.4716507548
 H    2.6651095785    1.2246845323    1.1013711873
 H    3.9672854706    3.2640337806   -0.6814355564
 H    3.2241271152    1.8463096954   -2.6710217314
 H    2.5014535501    0.6328425595   -1.5125977683
 H    1.3879795480    3.5016222045   -2.0080114743