18

 C    0.1356458617    1.5250661188   -0.6667909102
 C    0.3195705363    0.1256561121   -0.1308784427
 O    1.4081776320   -0.3996722298   -0.0541518217
 C   -0.9420543144   -0.6331450892    0.3033816488
 C   -1.9948619770   -0.6682549463   -0.8218165161
 O   -1.4530656795   -1.1646721760   -2.0314264937
 N   -0.5405606750   -1.9712130314    0.6947066961
 C   -1.3056148382   -2.7403971919    1.5151451284
 O   -2.4394476830   -2.4711218827    1.8555053292
 H    1.0945162451    2.0442346563   -0.6669637520
 H   -0.2293090686    1.4541063600   -1.6978874035
 H   -0.6037253403    2.0897726833   -0.0912777917
 H   -1.3875768709   -0.1098468935    1.1627193679
 H   -2.8470098667   -1.2611167372   -0.4692621932
 H   -2.3501445054    0.3444531877   -1.0323262667
 H   -1.1610101146   -2.0674624232   -1.8616304608
 H    0.4539700419   -2.1475970897    0.6161027969
 H   -0.7817144432   -3.6639922172    1.8297711051