18

 C   -0.7904988622    0.9007528940    0.2407664048
 N    0.1241893627   -0.2311092608    0.1251157014
 C    1.5120033389    0.0104497134   -0.2157012211
 C    1.1386215517   -0.5810873945    1.1078841629
 C    1.5148222252    0.1238290180    2.3802506623
 N    1.0652180009    1.4789140764    2.6740608986
 C    0.6053959917    0.3814520205    3.5494976498
 C   -0.8015648812    0.0654993077    3.5382655301
 N   -1.9227625661   -0.2152055547    3.5646635781
 H   -0.3334782554    1.8130837105    0.6397502080
 H   -1.1831919389    1.1045255931   -0.7607008402
 H   -1.6282867992    0.6200969651    0.8833943614
 H    1.9431365506   -0.6056738390   -1.0017270196
 H    1.8647303392    1.0424996831   -0.1951132986
 H    1.2479467126   -1.6600775132    1.2267802491
 H    2.5281212618   -0.1386559838    2.6899988519
 H    1.7845565932    2.0184601622    3.1474214922
 H    1.0523035544    0.2943653121    4.5366142488