18

 N    0.1081611551    1.1990794017   -0.4257397971
 C    0.0647955006   -0.0150127027   -0.0830095643
 O    1.1427168294   -0.7573751320    0.3068611566
 C    0.7304894733   -2.0908194678    0.6599410450
 C   -0.6260858332   -2.2856987505   -0.0260265764
 C   -1.1866797728   -0.8612710391   -0.0368748735
 C   -2.2242241939   -0.4877573571    1.0634453685
 O   -3.2700496454   -0.3399010745    0.0911789495
 C   -2.3392693247   -0.5099014266   -0.9978768264
 H    1.0590322000    1.5649774824   -0.3596314104
 H    1.5053442578   -2.7813443981    0.3206056286
 H    0.6532391959   -2.1600599692    1.7522364548
 H   -0.4816561200   -2.6364332888   -1.0540190140
 H   -1.2657936805   -3.0044396502    0.4905183499
 H   -2.4442898467   -1.2740421366    1.7970535590
 H   -2.0074555552    0.4531048329    1.5829977328
 H   -2.1748331330    0.4211237803   -1.5506791431
 H   -2.6472177867   -1.3094506142   -1.6825791393