19

 C    0.0579690265    1.5015292744   -0.3115018238
 C    1.5338022368    1.5675498681    0.1871511727
 C    1.4144808868    0.1388514304    0.7401192936
 C    2.4865553392   -0.7858081283    1.4058700570
 C    1.5948740731   -1.9899308265    1.0413595025
 C    1.5991603008   -1.0379542614   -0.1876763066
 C    3.1440144746   -0.9260723809   -0.0589350594
 O    0.4190224761   -0.8565865065   -0.9665446602
 C   -0.0719881172    0.0370839267    0.1118939232
 H   -0.6094018755    2.1519400983    0.2605097931
 H   -0.1049617525    1.6637759012   -1.3784253723
 H    2.2916318369    1.7315070004   -0.5861964492
 H    1.6818672722    2.3210434870    0.9654663168
 H    3.0492318573   -0.6393182938    2.3289246398
 H    2.0910533304   -2.9550323512    0.9210995221
 H    0.6509914319   -2.0742808295    1.5826081983
 H    3.6180648623   -0.0337818138   -0.4679692767
 H    3.7548472165   -1.8192337852   -0.2207462221
 H   -0.9989904163   -0.3427971194    0.5448244212