16

 O   -0.0038504953    1.4631098280   -0.0837349870
 C   -0.0054211586    0.0989594935    0.0553809888
 C   -0.1497291923   -0.7878129431   -1.1556079451
 C   -1.1425412582   -0.9329589554   -0.0132948498
 N   -0.5163965190   -1.6143641137    1.1306222728
 C   -0.1325277240   -2.8488857405    1.5886073339
 C    1.1532906398   -2.7027493477    2.0800062652
 C    1.6197518118   -1.3815903553    1.7835388372
 C    0.5519271492   -0.7360700521    1.2004260846
 H   -0.2836237690    1.8476473149    0.7554789042
 H   -0.5481794749   -0.2861310306   -2.0346156150
 H    0.5679503125   -1.5769809038   -1.3583281448
 H   -2.2147886922   -0.8188123769   -0.0973724829
 H   -0.8084377195   -3.6884527466    1.6313060238
 H    1.6934527741   -3.4532658083    2.6400603782
 H    2.5985148956   -0.9830002525    2.0010888159