20

 C    0.0071005195    1.5304585913    0.0195998226
 C    0.0165046904    0.0251689898   -0.0202597778
 C    0.5947857436   -0.7728909865   -1.2069328998
 C    0.8534725601   -2.1013590769   -0.6312463074
 C    1.2013245001   -1.9933924729    0.8405249522
 C    0.3449651095   -0.8100737291    1.3048414538
 C   -1.1412959296   -1.2636497555    1.3587600787
 C   -1.2385758854   -0.8786413322   -0.1204279083
 N   -0.5289549690   -1.7875636415   -1.1152030994
 H    1.0219005300    1.9320521503    0.1288915011
 H   -0.4188336846    1.9494062612   -0.8991007182
 H   -0.5866764442    1.9034690921    0.8615033967
 H    0.9579431627   -0.3886608733   -2.1549117520
 H    1.3122537706   -2.8783048668   -1.2355078852
 H    0.9811970147   -2.9027052105    1.4104229815
 H    2.2763032242   -1.7946204905    0.9359489214
 H    0.7463358366   -0.2713238710    2.1647549876
 H   -1.3382466767   -2.3016708460    1.6437342083
 H   -1.7627621046   -0.6002560128    1.9682987675
 H   -2.1854216377   -0.5509086993   -0.5545657533