23

 C   -0.9229986328    1.1694066038    0.1145369106
 C   -0.0985346149   -0.1178840110   -0.0239395826
 C    0.7834583272   -0.2073060742   -1.2876864365
 C    1.6360639541    1.0345598248   -1.7013432185
 C    2.9249501643    0.1702704755   -1.6236057027
 C    2.1102894581   -0.9275589719   -0.8790321072
 C    2.0747107112   -0.8200883238    0.6208167435
 C    0.9071866936   -0.3750395132    1.0967366125
 C    0.5465687448   -0.1889069672    2.5384104700
 H   -0.2876001336    2.0573057720    0.1885944149
 H   -1.5829226178    1.3014237293   -0.7492713428
 H   -1.5543156745    1.1398996013    1.0084745959
 H   -0.8173417282   -0.9538272033   -0.0330338217
 H    0.2579051052   -0.6461223586   -2.1387942520
 H    1.4045388089    1.4799578395   -2.6716700633
 H    1.6230677798    1.8281927299   -0.9513505760
 H    3.2615627474   -0.1680026648   -2.6078480519
 H    3.7802258143    0.5987658765   -1.0936277504
 H    2.2802006179   -1.9555171453   -1.2191457127
 H    2.9216612532   -1.0948134610    1.2437015745
 H    1.3698974475   -0.4763891285    3.1979724020
 H    0.2846785361    0.8532120912    2.7595256798
 H   -0.3310617617   -0.7914708709    2.8081297745