21

 C   -0.1021048012    1.5560463127    0.1205805849
 C   -0.0370152354    0.0486368090   -0.0391846654
 C   -1.2025632224   -0.6794501030    0.6064567723
 C    0.5558925226   -0.5829439161   -1.2745341607
 C    1.1416645059    0.1903068415   -2.4373852452
 O    2.2290166154   -0.4994742001   -3.0339832526
 C    1.3211651294   -0.6579684535    0.0516063480
 C    2.5488984367    0.0652175412    0.2036824266
 C    3.5955311110    0.6535301317    0.3063790668
 H    0.8071924074    2.0555885378   -0.2166613954
 H   -0.9504346567    1.9688242218   -0.4369799787
 H   -0.2430099837    1.8148939831    1.1759767630
 H   -2.1516034664   -0.3666885498    0.1556179642
 H   -1.1180226277   -1.7636926714    0.4854461689
 H   -1.2562415215   -0.4621686450    1.6793087759
 H    0.1141309715   -1.5297150744   -1.5755793586
 H    0.3871787819    0.3007498541   -3.2237846114
 H    1.4390086005    1.1997895110   -2.1273245181
 H    2.9335936459   -0.5215366185   -2.3758483697
 H    1.3126853823   -1.6247436674    0.5477866301
 H    4.5109934747    1.1786574752    0.4236319051