20

 C   -0.5042672998    1.3745667877    0.3867282248
 C    0.0299454530   -0.0040131143    0.0942263383
 N    1.4203977032   -0.0953229224   -0.3607819585
 C    1.0562985340   -0.6721485035    0.9606745160
 C    1.6059477592   -0.0567048372    2.1371418799
 C    2.0591874582    0.4286551958    3.1429724503
 C    2.5903789645    1.0334699690    4.3569788602
 C    1.5409641438    1.8490795019    5.1206293121
 O    2.1815563758    2.3725589231    6.2715704686
 H    0.2547197617    1.9800487489    0.8864666815
 H   -0.7931936713    1.8794321929   -0.5410636523
 H   -1.3865264740    1.3183170878    1.0333109029
 H   -0.6858351222   -0.6853524854   -0.3654032309
 H    1.5290653713   -0.8493236635   -1.0343566870
 H    0.9864747894   -1.7572260339    1.0147479943
 H    2.9832671291    0.2607346463    5.0292261367
 H    3.4341654511    1.6923707285    4.1179020682
 H    1.1548998288    2.6474391214    4.4694175935
 H    0.6942949205    1.1981038834    5.3853487710
 H    1.5415352139    2.8963071836    6.7617362605