19

 C    0.0001217600    1.5552435492    0.1342188594
 C    1.5108989612    1.8025879219    0.0112679396
 O    2.0275753541    0.8180773168    0.9664764004
 C    1.5967043602   -0.1461353205   -0.0268934065
 C    1.9665261724    0.8629789641   -1.1424619424
 C    1.1775278598    0.7643747010   -2.4541435523
 C    0.2373101246   -0.4474927937   -2.3807123789
 O   -0.5743203878   -0.4696299369   -1.2144083132
 C    0.0488592641   -0.0021450288   -0.0244712953
 H   -0.3635390404    1.8709209756    1.1140269361
 H   -0.6141346688    2.0164324703   -0.6421410434
 H    1.9067772927    2.8084302497    0.1504350551
 H    2.0364359150   -1.1370899486    0.0819511778
 H    3.0480831469    0.9219075271   -1.2695320662
 H    0.6061281607    1.6805000745   -2.6404814944
 H    1.8492129210    0.6323972674   -3.3083742179
 H   -0.4529493439   -0.4700139701   -3.2292731249
 H    0.8471836704   -1.3645791691   -2.4287637328
 H   -0.4325259423   -0.5279175300    0.8018424396