14

 C   -0.0463367753    1.5323190980   -0.0434076772
 C   -0.0073820012    0.0322483636   -0.0286645697
 N   -0.0874422085   -0.6373449904   -1.1712874044
 C   -0.0493045864   -1.9779973904   -1.1217874945
 C    0.0695065072   -2.6565759580    0.0780048573
 N    0.1520451684   -2.0031088179    1.2460033543
 C    0.1137344047   -0.6851137648    1.1848558000
 O    0.1941564315    0.0121770298    2.3366369880
 H    0.8659056182    1.9538947380    0.3930214693
 H   -0.1506301216    1.8834040859   -1.0708107045
 H   -0.8814392792    1.9102411483    0.5565047431
 H   -0.1160250901   -2.5094226684   -2.0660296818
 H    0.1001107970   -3.7416115730    0.1178791794
 H    0.2705747153   -0.6420881706    3.0455733208