20

 N   -0.6576029342   -0.8518555469   -1.0732904481
 C   -0.4267408635    0.1785657456   -0.6001457316
 C   -0.1075096296    1.4579780785    0.0088669015
 C   -0.0975840732    1.5214089435    1.5713887776
 C    1.3402866055    2.1141784657    1.5460787379
 C    2.4424214859    1.2180641661    2.1282024080
 C    2.6369617209    0.1126446699    1.0712332372
 C    2.4671679412    0.8514034325   -0.2717961267
 C    1.3962864153    1.9233156455   -0.0121993758
 H   -0.7626327471    2.2177406766   -0.4248791542
 H   -0.8719535509    2.1641522021    1.9936071426
 H   -0.1656436114    0.5406713617    2.0472294776
 H    1.3933877814    3.1436501734    1.9044705863
 H    3.3676085176    1.7969663580    2.2362980612
 H    2.1862978779    0.8271729944    3.1184113457
 H    3.6033948888   -0.3912547893    1.1560407856
 H    1.8660651156   -0.6593749738    1.1760006860
 H    3.4039362231    1.3535605971   -0.5394103298
 H    2.2084370926    0.1829740902   -1.0978754861
 H    1.5442253141    2.8151213593   -0.6226977848