19

 O    0.0660547939    0.0028922204    0.1325137622
 C    0.0124516503    1.2038322954    0.1226507781
 C   -1.2602308710    2.0557938854   -0.0276340322
 N   -0.8364233565    3.4548823452   -0.1226977359
 C    0.4922561296    3.5381401783    0.5326072659
 C    1.1805729150    2.1826713018    0.2688914178
 C    1.2649975624    4.7413191074    0.0569350069
 C    1.0471038945    6.0686705990    0.6792573217
 N    2.3123938099    5.3440424541    0.8946792647
 H   -1.8542119635    1.7360835014   -0.8875458397
 H   -1.8798817884    1.8969341140    0.8669484784
 H   -0.7286946422    3.7069657641   -1.1008644506
 H    0.3173065889    3.6464724499    1.6139675168
 H    1.8834075791    1.8511082843    1.0363121036
 H    1.7238452231    2.2086795176   -0.6856157390
 H    1.5345082062    4.7047137617   -0.9996216786
 H    1.1339380512    6.9727630621    0.0839590719
 H    0.3307330713    6.1283528758    1.4943841827
 H    2.3093220263    4.9126867519    1.8165854053