15

 N   -0.2740817765    1.2860303238   -0.3021491493
 C   -0.0966611713    0.0638486217   -0.0407653786
 N   -1.0564593375   -0.9268579966   -0.1742376057
 C   -0.6456814655   -2.1555492109    0.4542288674
 C    0.8563301754   -1.8671382676    0.7701538293
 C    0.6152387247   -2.0499080289    2.2935241407
 C   -0.8837862821   -2.2601090770    1.9941928686
 O   -1.8573888965   -2.4159565271    2.6663607156
 O    1.0776176517   -0.5142698095    0.3805359474
 H    0.5838441939    1.8116321236   -0.1558816097
 H   -2.0206627875   -0.6347644957   -0.1869440599
 H   -0.9042307639   -3.0477809451   -0.1238779339
 H    1.6171325889   -2.4980917237    0.3123403362
 H    1.0848361599   -2.9392825832    2.7258157715
 H    0.8641388463   -1.1830826736    2.9110814106