17

 C   -0.0691578499    1.4934486281    0.0250673076
 C    1.2559232717    0.7402321498    0.0436264055
 C   -0.0441094260    0.0111748427   -0.0640819657
 O   -0.5121934810   -0.8294294498    1.0085766889
 C   -0.9846858982   -1.8061656098    0.0676886409
 C   -2.4629903488   -1.6461474353   -0.4049076339
 O   -2.7431404301   -0.2505211839   -0.4879744448
 C   -2.0206109204   -0.8416126090   -1.5647082347
 C   -0.5294052140   -0.9556338930   -1.1412996719
 H   -0.4160204126    1.9172593731    0.9608676690
 H   -0.3388760766    2.0627591970   -0.8582492814
 H    1.8998968319    0.7890208919   -0.8289859093
 H    1.7776970645    0.6717948197    0.9921644721
 H   -0.6430899163   -2.8233652423    0.2699043197
 H   -3.3056639046   -2.3146673220   -0.2674628818
 H   -2.4357296798   -0.7402574752   -2.5608625483
 H    0.1731448904   -1.3212927019   -1.8879221920