16

 C    0.3326693725    1.6985977954   -0.1879536041
 C   -0.0477251465    0.2714163355    0.2048606423
 C    0.3599229962   -0.7414423658   -0.8762847043
 O   -0.0438059705   -1.8719093138   -0.9307243512
 C    0.6137718076   -0.1657917228    1.5162491053
 O    1.6303978839    0.3473797569    1.9293398972
 C   -0.0468054797   -1.2897781963    2.2908851574
 O    0.7132834364   -1.6740275847    3.3966104434
 H    1.4190772390    1.8017923015   -0.2440311617
 H   -0.0978250883    1.9621038028   -1.1584993841
 H   -0.0285986090    2.4156578707    0.5527515999
 H   -1.1310104041    0.1519389893    0.3258779647
 H    1.0847625631   -0.3457092224   -1.6211502456
 H   -1.0496454753   -0.9321032641    2.5881513050
 H   -0.2162810939   -2.1309864863    1.6016588530
 H    1.4416378386   -1.0361438857    3.4450827327