19

 C    0.0275621150    1.5531611359    0.0607520125
 C    0.0474517642    0.0484529690    0.0673910929
 C   -1.2601319814   -0.7813418701    0.2551926597
 C   -0.3692442212   -1.8698753334    0.8412101046
 C    0.7220504788   -0.8894222717    1.1622163822
 C    0.9455490581   -1.8708616727    0.0165876504
 C    0.8142132784   -0.7525975191   -1.0225227388
 C    1.8072368299   -2.9996785034   -0.0210135592
 C    2.5446618184   -3.9503864387   -0.0727529614
 H    1.0416632233    1.9659313662    0.0273456088
 H   -0.5136990029    1.9289793181   -0.8159329252
 H   -0.4683218886    1.9505945239    0.9530271977
 H   -1.9015608805   -0.3442975786    1.0268128650
 H   -1.8540389966   -0.9990456289   -0.6400943583
 H   -0.6492756635   -2.7552328063    1.3963676278
 H    1.3086569650   -0.7106983056    2.0517739177
 H    0.2877501848   -0.9671373464   -1.9597891446
 H    1.7911158091   -0.3111905219   -1.2386894364
 H    3.1937417494   -4.7889977162   -0.1154792453