17

 C    0.0618451673    1.5600196142   -0.0542147276
 C   -0.0035168224    0.0397050654    0.0054798859
 O   -1.4051921153   -0.3754775790    0.0312865497
 C   -2.1119749510   -0.3123797796   -1.1153218333
 O   -3.2742135354   -0.5944008781   -1.1603808282
 O    0.6697785719   -0.5153549450   -1.0986545626
 C    1.4824921506   -1.6185573285   -0.6852441873
 C    1.4652389941   -1.5584894369    0.8137609191
 C    0.6300849028   -0.6080920605    1.2113640635
 H    1.1001753467    1.8896364616    0.0274517047
 H   -0.3436685834    1.9228555421   -1.0025313317
 H   -0.5201762729    1.9929118394    0.7630215890
 H   -1.5130258916   -0.0022630904   -1.9864250975
 H    1.0730192072   -2.5648778944   -1.0680108337
 H    2.4835204827   -1.4896601584   -1.1158079948
 H    2.0460714612   -2.2234198440    1.4394735842
 H    0.3679880876   -0.3279591979    2.2219236304