17

 C    0.0316006882    1.3486746819    0.0100000795
 O   -0.0313427359   -0.0818131829    0.0030808229
 C   -1.2845504017   -0.5899608070    0.0097445368
 O   -2.3001380859    0.0656492597    0.0205791772
 N   -1.2572511282   -1.9608126922    0.0023796854
 C   -2.4750520651   -2.7807777390    0.0067844893
 C   -1.8678144128   -4.2146828884   -0.0057205046
 N   -0.3994856614   -4.0616042986   -0.0158733646
 C   -0.1532777033   -2.8151735078   -0.0107141602
 H    1.0935059665    1.5948771190    0.0031352726
 H   -0.4620697491    1.7621016084   -0.8728343808
 H   -0.4484307387    1.7528960004    0.9045450062
 H   -3.0738450452   -2.5681874482    0.8961972969
 H   -3.0869011408   -2.5582770959   -0.8712456074
 H   -2.1643420459   -4.7956199571    0.8732171880
 H   -2.1775318467   -4.7858797499   -0.8864913120
 H    0.8377480760   -2.3798990622   -0.0156908052