22

 C    0.4124022413    0.2125451192   -0.2932139029
 C   -0.7108479765   -0.8121616170   -0.4791020694
 C   -1.9038325179   -0.5143611367    0.4325574339
 O   -3.0362315260   -1.3447955839    0.2170202365
 C   -3.0334333936   -2.5872942487    0.8962534593
 C   -2.3162758964   -3.6903144585    0.1488096234
 C   -2.7189293224   -3.9817010036   -1.2685979124
 N   -1.4216566699   -4.3164120882    0.8131408735
 O   -0.8472274546   -5.3599258062    0.0695609060
 H    1.2594246230   -0.0062034800   -0.9497498740
 H    0.0684219695    1.2277446604   -0.5212139194
 H    0.7841573661    0.2133864247    0.7375885657
 H   -1.0589853495   -0.8072963194   -1.5188316244
 H   -0.3324289143   -1.8188181272   -0.2739766830
 H   -1.5945958612   -0.5687845371    1.4886907333
 H   -2.2557075333    0.5082573788    0.2489830035
 H   -2.6031462830   -2.4991121668    1.9023951888
 H   -4.0914860794   -2.8635094964    0.9989218995
 H   -3.2100659542   -3.1093116513   -1.7031856134
 H   -1.8503538585   -4.2582574627   -1.8696010154
 H   -3.4164854366   -4.8275014871   -1.3011410281
 H   -0.1881908827   -5.7042537421    0.6815015690