17

 O    0.0756797127    0.0117643111   -0.1262877707
 C    0.0183767442    1.2005385045   -0.0094976215
 C   -1.1041686634    2.2093906018    0.3124195147
 C    0.0076203756    3.2537080641    0.6334468062
 C    1.0701976076    2.3318205055   -0.0212342166
 O    2.3542485277    2.1691069101    0.5993759651
 C    3.0118670018    2.5991471836   -0.6012592543
 C    2.7251717268    1.6631800452   -1.7294163152
 C    1.7127307125    2.7310846082   -1.3554382000
 H   -1.7085130491    2.4507094942   -0.5672892404
 H   -1.7729454247    1.9192472108    1.1254912283
 H   -0.0998819046    4.2465986659    0.1941120507
 H    0.1924912831    3.3498986345    1.7054888615
 H    3.8775240641    3.2421951683   -0.5000904236
 H    3.2638293681    1.8596035496   -2.6515288567
 H    2.5180563414    0.6187588738   -1.5178186675
 H    1.3486475562    3.4929848088   -2.0310117200