18

 C   -0.0849281499   -1.2356299020   -0.1085752059
 C   -0.0300898806   -0.0363033401   -0.0560105251
 C    0.0074325354    1.4243022221    0.0398952035
 C   -0.7446458120    1.9098415463    1.2819189784
 C   -0.0899261436    2.6809828883    2.1479509416
 C    1.3531671634    3.0204309722    1.8320215941
 C    1.4092930642    3.3887103311    0.3258626163
 N    1.4133577165    1.9142621563   -0.0028489162
 C    2.0403524933    1.7127162313    1.3581585351
 H   -0.1259419629   -2.2950770835   -0.1675666889
 H   -0.4854605701    1.8309632182   -0.8555582225
 H   -1.7776429842    1.6037910395    1.4104972337
 H   -0.5574108590    3.0674852980    3.0478014144
 H    1.8339015513    3.6595316245    2.5752028037
 H    0.5784187174    3.9632899005   -0.0918398498
 H    2.3620557452    3.8248267734    0.0108980571
 H    3.1267463982    1.7964260541    1.2624301650
 H    1.7771965874    0.7791956598    1.8591795255