18

 C    0.0395095586    1.5352856400    0.0645703971
 C   -0.0610261697    0.0155823105   -0.0288076075
 O    0.7096104093   -0.6301940374    0.9881643765
 C   -1.4917066109   -0.4767139120    0.1680219998
 N   -1.5077797516   -1.9267702554    0.1577843866
 C   -2.6583741562   -2.6293099978   -0.0238934956
 N   -3.7766593443   -2.0773275276   -0.3223857032
 C   -2.4961019999   -4.0702088865    0.1222429121
 N   -2.4136161342   -5.2179540563    0.2362404945
 H    1.0752967743    1.8624941064   -0.0749002185
 H   -0.5685008580    2.0163412930   -0.7082946281
 H   -0.2991588870    1.8825088190    1.0452839686
 H    0.2825586896   -0.3183470948   -1.0203917614
 H    1.6393955570   -0.4354678034    0.8366527883
 H   -1.8908493208   -0.0838429336    1.1147237798
 H   -2.1387921309   -0.1139446099   -0.6337618789
 H   -0.7231021084   -2.3744501834    0.6059590906
 H   -4.5010579468   -2.7752406309   -0.4685369409