21

 C   -0.0667139531    1.6595036074   -0.0142418242
 C    0.0257609166    0.1259267191   -0.0251853240
 C    0.9134314862   -0.7269126260   -0.9869708530
 C    2.3742747611   -0.4871260472   -0.5851912748
 C    2.7872042607    0.7077187012    0.2369714673
 C    2.2337117590   -0.5048153301    0.9408674682
 C    0.7237148171   -0.7540439001    1.0637577508
 C    0.6003058497   -1.9157829070    0.0157519042
 O   -0.6841272434   -2.4920745468   -0.0244269566
 H    0.4784424582    2.1174205018   -0.8453276894
 H   -1.1103293127    1.9762581971   -0.1046585370
 H    0.3184024481    2.0946323230    0.9130231988
 H   -0.9842442952   -0.2714194392   -0.1220808819
 H    0.6844069584   -0.8005839501   -2.0523132148
 H    3.1408147582   -1.0630548702   -1.0920165247
 H    3.8624378196    0.8256065848    0.3387053129
 H    2.2620380834    1.6482110514    0.1980413910
 H    2.8949160448   -1.0938107033    1.5666393370
 H    0.3015515542   -0.8566862017    2.0641172353
 H    1.3776468403   -2.6888674436    0.0758198838
 H   -0.7307235114   -3.0630281704   -0.7974885489