21

 C    0.0120327349    1.5800364551   -0.0412486226
 C   -0.0287395572    0.0469936527    0.0947841383
 C   -1.3821547714   -0.4975453770    0.0527611651
 C   -2.5095164814   -0.9228003285    0.0144317106
 C   -3.8800490006   -1.4434247141   -0.0307490652
 C   -3.8938465181   -2.9790856443    0.0208038504
 O   -4.6695391850   -0.9044781607    1.0454425489
 C   -4.6056076519   -0.9211478261   -1.2923081979
 O   -5.9600888956   -1.3136132579   -1.3041695710
 H    1.0450753763    1.9383029910   -0.0047350337
 H   -0.4304569022    1.8974741896   -0.9891925080
 H   -0.5476764581    2.0568501598    0.7678411636
 H    0.5675346764   -0.4092024435   -0.7059232090
 H    0.4539676185   -0.2519884875    1.0341991896
 H   -3.4885675801   -3.3340542430    0.9736123836
 H   -4.9205703986   -3.3330774027   -0.0924085730
 H   -3.2806789055   -3.3982359401   -0.7819181526
 H   -4.2680831859   -1.1800877740    1.8757781932
 H   -4.4960128070    0.1723715371   -1.3196105824
 H   -4.1343736638   -1.3375914173   -2.1866445891
 H   -6.3181910037   -1.0383563887   -0.4511103987