17

 O   -0.1375940059    1.5159764256    0.0603963795
 C   -0.0141479066    0.0987163641    0.0124062825
 C    0.6001675007   -0.4606639293    1.3016334521
 C   -0.5650764011   -0.4840840156    2.3027150461
 O   -0.4668684694   -0.5333834278    3.4988441222
 C   -1.8792061842   -0.4323422100    1.5064074034
 C   -1.4380172838   -0.4526319240    0.0558692243
 C   -2.3179308523   -0.4604514336   -1.1085522965
 O   -1.6518037395   -1.6585577492   -0.6841142297
 H    0.7357696532    1.8897325897    0.2164825716
 H    0.5025440912   -0.2342383604   -0.8961831510
 H    0.9254186877   -1.4979247807    1.1457692469
 H    1.4548617801    0.1015474823    1.6863878613
 H   -2.5313840934   -1.2706839359    1.7620041391
 H   -2.4000276935    0.4965073738    1.7617239478
 H   -3.3973868543   -0.4535218081   -0.9659829645
 H   -1.9699348989   -0.0394540108   -2.0505068249