21

 C   -0.0524296312    1.4480265575   -0.1906159231
 C   -0.0200403905   -0.0660785395    0.0681102624
 C    0.7768291195   -0.4197278248    1.3294036681
 N   -1.3686042364   -0.6449771237    0.1156384774
 C   -2.0078479531   -1.1615073224   -1.0856143135
 C   -3.3949481695   -1.5740160409   -0.5588894811
 N   -3.5655543427   -0.6265311166    0.5325283122
 C   -2.3250831080   -0.2264155248    1.0262618509
 O   -2.1371963424    0.3869742911    2.0586559549
 H    0.9639715024    1.8400828031   -0.2961722714
 H   -0.6001349036    1.6811210667   -1.1097393114
 H   -0.5393525257    1.9600257129    0.6429274027
 H    0.4648488239   -0.5536349832   -0.7866018101
 H    0.8151310010   -1.5041415407    1.4687225809
 H    1.8020097320   -0.0462459519    1.2420288274
 H    0.3092094419    0.0252580510    2.2089208604
 H   -2.0992796555   -0.3877157549   -1.8641420455
 H   -1.4530566289   -2.0049231628   -1.5072777014
 H   -4.1750777181   -1.4727529822   -1.3179907757
 H   -3.3819327284   -2.6168975821   -0.2095438192
 H   -4.2880597565   -0.7634445315    1.2221636052