17

 O    0.0424105756   -0.0036588357   -0.0369009514
 C    0.0066201548    1.2001655714   -0.0102351822
 C   -1.2642939612    2.0535224571    0.0393962870
 C   -0.9149583776    3.3558831487    0.7756227731
 C   -0.1155973870    3.0080679822    2.0697731215
 C    1.1681304773    3.1032418999    1.2229248697
 C    0.4247120527    3.9492746172    0.1690970832
 O    0.9307402455    3.1880666033   -0.9365674357
 C    1.2306220886    2.1097430728    0.0011419719
 H   -1.5879111337    2.2530487455   -0.9881876183
 H   -2.0579887140    1.4937834058    0.5415420163
 H   -1.7677346006    4.0293408318    0.8677653141
 H   -0.1426615876    3.8169200703    2.8047755864
 H   -0.3552145566    2.0654069691    2.5714322849
 H    2.1307708663    3.3625484010    1.6625524063
 H    0.4949779293    5.0292501195    0.0319528231
 H    2.1638680282    1.5921853202   -0.2229370098