19

 C    0.0419063382    1.5852875455    0.1596631052
 C    1.5835740785    1.5146965951   -0.1077092560
 C    1.4814044762    0.0321105982    0.1795219902
 C    2.2048401444   -0.9347898394    0.7302753666
 C    1.4993284780   -2.1992791744    1.0787670018
 O    0.8689850910   -2.2608939163    2.3779091483
 C    0.0308056328   -2.1777034929    1.2200147789
 C   -0.7450026490   -0.8700074279    1.0236787511
 C   -0.0244149060    0.0278105636    0.0119210956
 H   -0.1758422417    1.9000428864    1.1835243407
 H   -0.5573521283    2.1794636295   -0.5331694787
 H    1.8252983650    1.7284660110   -1.1548965802
 H    2.2444556904    2.1093939853    0.5279396476
 H    3.2579282263   -0.8274051926    0.9750636949
 H    1.9836544630   -3.1338447343    0.7943782210
 H   -0.5154061272   -3.0977706637    1.0117544513
 H   -1.7740527390   -1.0835470428    0.7168653551
 H   -0.7911110670   -0.3671256987    1.9954675696
 H   -0.3100154756   -0.2381935018   -1.0139507128