16

 O   -0.1821336214    1.4107462751    0.0808233336
 C   -0.0824862631    0.0191429426   -0.1785407875
 C   -1.3636904855   -0.6231154651    0.3507457555
 C   -1.4325440600   -2.1049747551    0.0753263511
 C   -2.6784902646   -2.7488548479   -0.4040198934
 O   -1.6044447093   -2.5176120940   -1.2968575660
 C   -0.4959077342   -3.0126137189    0.8166864908
 O    0.1665117594   -2.6801306861    1.7658572923
 H    0.6363518167    1.8279056649   -0.2027025727
 H    0.0076667614   -0.1843839655   -1.2566330337
 H    0.7886747271   -0.4226409450    0.3253224156
 H   -1.4216205739   -0.4615091700    1.4318586771
 H   -2.2206635948   -0.1225642300   -0.1096364168
 H   -2.8827788595   -3.7940999641   -0.1733273437
 H   -3.5550967760   -2.1164482401   -0.5341066961
 H   -0.4658182423   -4.0437209107    0.3991607439