17

 C   -0.0161995255    1.5043059804    0.0508307734
 C    0.0307707280   -0.0191061813   -0.0311313576
 C    0.8209281570   -0.5821706857   -1.2383721655
 C    1.3659108635   -1.9015793124   -0.6828798842
 C    1.5082966687   -1.6154548652    0.7951274401
 N    2.2185670847   -2.2487288154    1.6179112427
 O    0.7344115994   -0.5204581497    1.1222021381
 C   -1.3433816771   -0.5730926115   -0.0138243991
 N   -2.4162000976   -1.0018853275   -0.0185718431
 H    1.0048580568    1.8922334901    0.0798622756
 H   -0.5318459335    1.9142857724   -0.8216913494
 H   -0.5438366664    1.8251130547    0.9514738707
 H    0.1968262823   -0.6921900902   -2.1258663212
 H    1.6345185646    0.1117738025   -1.4692516049
 H    0.6476800436   -2.7173664560   -0.8202585330
 H    2.3155486730   -2.2169549509   -1.1142190243
 H    2.1221977383   -1.8631116442    2.5586560917