17

 C   -0.1836599017    1.4228944348    0.3391011682
 C    0.0578953332   -0.0531946078    0.0766199265
 C    1.4056010804   -0.5219996063   -0.4587238224
 C    1.0292879519   -0.8502723046    0.9531460770
 N    1.7167436377   -0.1893947732    2.0168088969
 C    1.1306473612    0.0266842453    3.2339110182
 O   -0.0323823916   -0.1905177468    3.4818632505
 C   -1.0968132390   -0.7862276738   -0.3813811826
 N   -2.0214982971   -1.3699868162   -0.7587238504
 H    0.7336321733    1.8991610606    0.6909220328
 H   -0.5087891478    1.9276203062   -0.5747704856
 H   -0.9522676752    1.5522630355    1.1049451600
 H    1.4257681917   -1.3263157742   -1.1835913287
 H    2.1442441304    0.2569941869   -0.6167477954
 H    0.7226900868   -1.8698232452    1.1683799697
 H    2.7159831096   -0.0740245590    1.9429738630
 H    1.8491445761    0.4411229777    3.9686620122