21

 C    0.0216633716    1.5496004983   -0.0494665941
 C    0.0333865872    0.0401328116    0.0098634411
 C    0.4547279100   -0.6963843373   -1.2666854351
 C    0.3352829316   -2.1747036980   -0.7975217610
 C   -0.1257462599   -1.9362553984    0.6355997059
 C    0.7469421249   -0.7495381740    1.1915324992
 C   -0.0278039103   -0.3171126688    2.4283626835
 C   -1.3012120365   -0.3432013194    2.0230718395
 C   -1.2021766770   -0.7890831767    0.5710538465
 H    1.0177407564    1.9382108717   -0.2918870932
 H   -0.6646271164    1.9040946020   -0.8274738230
 H   -0.2908416485    1.9832634556    0.9045385308
 H   -0.2080082379   -0.4618417912   -2.1066901089
 H    1.4718702471   -0.4278307595   -1.5718742939
 H   -0.3942796982   -2.7468378630   -1.3793906066
 H    1.2873603428   -2.7128035521   -0.8440540287
 H   -0.3120155431   -2.8007131176    1.2757828008
 H    1.8357829990   -0.8229643000    1.2400948115
 H    0.3907373218   -0.0539391291    3.3893821546
 H   -2.2075066060   -0.1071258677    2.5624174143
 H   -2.1152595688   -0.9031084865   -0.0176752231