16

 C    0.0532799543    1.4432549886   -0.4225740618
 C    0.0024276305   -0.0779592385   -0.1243374207
 C    1.1469946255   -0.4410909237    0.8441038482
 N    0.8778292036   -0.3059233331    2.1664657213
 O    2.2342032081   -0.7507541205    0.3964220405
 C   -1.4098215488   -0.4340883897    0.3192106054
 O   -1.8022435536   -0.3802363693    1.4709399709
 C   -2.3112575826   -0.8053554039   -0.7538734609
 C   -3.0395264558   -1.1102829781   -1.6627442342
 H    1.0528641874    1.7023376102   -0.7787256527
 H   -0.6742753181    1.7130823504   -1.1931754649
 H   -0.1618366143    2.0199052722    0.4808274240
 H    0.2237741133   -0.6134144575   -1.0503047542
 H   -0.0816974468   -0.2185858949    2.4710581062
 H    1.5956482178   -0.5865640494    2.8152076962
 H   -3.6959365005   -1.3835669929   -2.4534960534