17

 C   -0.0022726143    1.5526166494   -0.1086278176
 C    1.2930598078    0.7925200464    0.0058248370
 O    2.0362321012    0.8064141742    1.1990553946
 C    1.4916789712    0.0706693760    2.2534402173
 C   -0.0246429403    0.1532920269    2.6136133028
 O    0.1318414877   -1.1270290672    3.3224931955
 C    0.8301619731   -1.3305632476    2.0420459360
 C   -0.3415730064   -0.6203228852    1.3028152966
 C   -0.0013845401    0.0346429711   -0.0114420857
 H   -0.3415393524    2.1139665196    0.7552951252
 H   -0.2351482335    2.0099406748   -1.0638790489
 H    1.9534965085    0.7656309962   -0.8539323614
 H    2.1710853754    0.1357634768    3.1025460487
 H   -0.5920290733    0.9392033363    3.1133228135
 H    1.2839908480   -2.3047452844    1.8588864754
 H   -1.2904106208   -1.1596946040    1.3250594106
 H   -0.2528208918   -0.5328459393   -0.9020970695