16

 C   -0.1241105248    1.4445678501    0.0165790009
 C   -0.0682449492   -0.0655433498    0.0285719596
 O   -0.1980274470   -0.7552156758    1.0152374535
 N    0.2072302370   -0.6551777678   -1.2038333161
 C    0.1910332054   -2.0839116446   -1.5345718207
 C   -1.0884797145   -2.4319551543   -2.2122606908
 C    0.0152738860   -1.7210944623   -3.0035571325
 C    0.0704923509   -0.2699101989   -2.5677364071
 O    0.0393088598    0.8051684745   -3.0905220221
 H    0.8961329348    1.8420628955   -0.0158320966
 H   -0.6405355598    1.8250998996   -0.8672919496
 H   -0.6064066030    1.7828997463    0.9336402551
 H    0.8890989876   -2.7676367839   -1.0753067123
 H   -1.2243550116   -3.4748039603   -2.4832320318
 H   -2.0005402986   -1.9050710664   -1.9507628957
 H    0.4715713269   -2.1436006918   -3.8860213236