15

 N   -0.2263044003    1.5739023107   -0.0575678177
 C    0.0019848639    0.1289909306   -0.0788870222
 C   -1.2415070441   -0.5937064051    0.2077753943
 C   -2.2629298532   -1.1864123567    0.4236339052
 C    0.6095869549   -0.3657282281   -1.3774061564
 N    0.8406530289    0.3185891897   -2.4510703191
 C    1.4217876096   -0.5950315690   -3.3255703622
 C    1.5097866297   -1.7963562024   -2.7127272528
 O    0.9917817815   -1.6634609120   -1.4533261293
 H    0.6336507569    2.0350116044   -0.3448404028
 H   -0.9050011980    1.8019057518   -0.7796311825
 H    0.7183190053   -0.1064128022    0.7219387323
 H   -3.1652652841   -1.7100441664    0.6226670371
 H    1.7290940211   -0.3142985289   -4.3201005050
 H    1.8765270279   -2.7713681163   -2.9828847590