20

 O   -0.0476725674    1.3640771941    0.1100726697
 C   -0.0297013525   -0.0525490880   -0.0224333937
 C   -1.4697773648   -0.4816313172   -0.2427636034
 C   -1.6912910685   -0.5604708235   -1.7229293491
 C   -0.3803044513   -0.2045338552   -2.4111140803
 C    0.6575891604   -0.5401675747   -1.3171886380
 C    0.8218657022   -2.0644914161   -1.2242361616
 C   -0.5788699338   -2.7141550830   -1.0354339345
 N   -1.6931731503   -1.7668295791   -0.8990572661
 H    0.8561694973    1.6573569655    0.2641232749
 H    0.4212375878   -0.5147481655    0.8697662896
 H   -2.2239554530   -0.1542570424    0.4667373505
 H   -2.6375415392   -0.3032497629   -2.1905534092
 H   -0.2062623630   -0.7654047705   -3.3361949302
 H   -0.3720505470    0.8624201750   -2.6537683233
 H    1.6231385960   -0.0496105301   -1.4741798933
 H    1.3059802191   -2.4441747935   -2.1303912394
 H    1.4798438275   -2.3183511694   -0.3850650697
 H   -0.8220279194   -3.3601868484   -1.8852561041
 H   -0.5927324503   -3.3542122451   -0.1473531487