21

 C   -0.7439257816    1.1413686794   -0.0616952921
 C    0.0084686426   -0.1844130659   -0.1098403858
 C    1.0711476080   -0.2771151696   -1.2518126166
 O    1.6421571842    0.9759491617   -1.6374183948
 C    2.1168692530   -1.2001505553   -0.6707724196
 C    1.9767265618   -1.3212780192    0.6515478945
 C    0.7823449554   -0.5978958676    1.1579284860
 C    0.8870315155    0.2541110312    2.4119030620
 C    0.0854500437   -1.0181346810    2.4301148035
 H   -0.0619536999    1.9847514324    0.0717209678
 H   -1.2882484031    1.3082368389   -0.9961406294
 H   -1.4746307535    1.1549493681    0.7545244708
 H   -0.7138508294   -0.9879731330   -0.3060098057
 H    0.6160713057   -0.6555259380   -2.1727754014
 H    2.2462948000    1.2393756949   -0.9341775331
 H    2.9209225139   -1.6148063765   -1.2674424114
 H    2.6413623250   -1.8703430363    1.3117047753
 H    1.8379541771    0.2728245404    2.9342258246
 H    0.3504733576    1.1962905459    2.4320322033
 H   -0.9968500160   -0.9360856263    2.4562591545
 H    0.4786348400   -1.8713526341    2.9735412075