18

 C    0.9537941180    1.0588070671   -0.7640284586
 C    0.0561547687    0.1019429504   -0.0174575514
 N    0.6243232055   -1.1668903283    0.4485260166
 C    0.1374084615   -0.2008170377    1.4498327475
 C    1.1180154020    0.3861153334    2.4083665365
 C    2.5984666886    0.3471117029    2.1550801458
 N    0.5782743270    0.8801842814    3.4605968673
 O    1.5337649769    1.4370007177    4.3248315498
 H    1.9711491617    1.0524055270   -0.3713496008
 H    1.0024319338    0.7850585210   -1.8236913954
 H    0.5635477269    2.0800905333   -0.6988859042
 H   -0.9599242990    0.0623920511   -0.4113436060
 H   -0.0326224917   -1.9341093627    0.3427005435
 H   -0.8203674825   -0.3950764154    1.9263427457
 H    2.8292613600   -0.3696816860    1.3672677041
 H    2.9728776723    1.3362702205    1.8673654277
 H    3.1199720494    0.0723496325    3.0755591506
 H    0.9909046810    1.7184417918    5.0685301812