15

 N   -0.0873862843   -1.1513207802   -0.1284646458
 C   -0.0407671226    0.0009492100   -0.0547953616
 C   -0.0179943915    1.4513704575   -0.0015681852
 C    0.1146039300    2.1221956016    1.4038064412
 O    1.5038301601    1.6189693417    1.4826282029
 C    1.3816560531    2.1446433233    0.1095129355
 C    0.6693839331    3.3718254453    0.7004619844
 N   -0.0086342030    4.5118014511    0.1418179334
 C    1.1075285044    4.6995909835    1.1219759627
 H   -0.7400969876    1.8989726077   -0.6885975174
 H   -0.5272747792    2.0080730284    2.2746982078
 H    2.2390799999    2.0545942477   -0.5562156090
 H    0.3105508777    4.7103232172   -0.8037498923
 H    0.8006613535    5.1051038706    2.0811670891
 H    2.0621443463    5.0662809247    0.7545041641