19

 C    0.0019465140    1.5625223028    0.0807592735
 C    0.0630481611    0.0615029277   -0.0680075773
 C    0.7595237077   -0.6413465902   -1.1747499056
 C    1.8196956152    0.1021437189   -1.9906785493
 N    2.8496162570    0.4880849291   -1.0122955820
 C    2.4927743076    0.0305008959    0.1230460281
 C    3.3208422650    0.2414388372    1.3543022880
 O    4.4490933157    1.0359833818    1.1030691803
 N    1.2997647352   -0.7420917506    0.2124350523
 H    0.8957620889    2.0635454417   -0.2961082482
 H   -0.8620451654    1.9457565537   -0.4726372579
 H   -0.1290952931    1.8416974676    1.1313623262
 H   -0.8100656865   -0.4478954191    0.3344031466
 H    0.3273537294   -1.5498046676   -1.5824828730
 H    2.2590365812   -0.5480781975   -2.7553531054
 H    1.4419214989    0.9928270148   -2.5068800102
 H    2.6862573371    0.7012116619    2.1292715977
 H    3.6062257660   -0.7486261258    1.7452337987
 H    4.4440114651    1.2031823477    0.1490245375