20

 C   -0.0159860422    1.5526175655    0.0197431846
 C    0.0440830083    0.0219606007    0.0752524483
 C    0.7563385491   -0.4622769827    1.3438733401
 C   -1.3773031479   -0.5742186600   -0.0434490122
 C   -1.3856599774   -2.0609741013   -0.1930139656
 N   -0.8169379894   -2.7616973004   -1.1627289547
 C   -1.1126264363   -4.0484591458   -0.8314051217
 N   -1.8238989996   -4.2006609219    0.2728592042
 N   -1.9864300916   -2.9132506728    0.6670772976
 H    0.9883166631    1.9851832936    0.0674541125
 H   -0.4887102134    1.9024074227   -0.9039813811
 H   -0.5899767156    1.9562890846    0.8628865602
 H    0.6084775584   -0.3380876881   -0.7933094026
 H    0.8284466370   -1.5536177443    1.3739345234
 H    1.7729650332   -0.0604583129    1.3972171589
 H    0.2235274174   -0.1324648749    2.2447865455
 H   -1.9727581538   -0.2905913131    0.8341333064
 H   -1.8751950063   -0.1376413380   -0.9171124668
 H   -0.7964727307   -4.8963324427   -1.4207844521
 H   -2.5047827223   -2.7082682482    1.5056684649