19

 C   -0.0468891359    1.5507223637    0.0008587068
 C    0.0113939518    0.0508949159    0.0673871471
 C   -1.2300189964   -0.8556952944   -0.0083355026
 C   -0.5800504828   -1.8261206853    1.0260166217
 C    0.6391287357   -0.9059102157    1.0828338929
 C    1.2445997995   -0.7670528623   -0.3190718718
 N    1.2576110519   -1.7912551011   -1.3284227100
 C    2.4775493175    0.0030938517   -0.3013158455
 N    3.4624069711    0.6096225311   -0.2741932201
 H    0.9252690873    2.0038134628    0.2096836495
 H   -0.3634353199    1.8837677125   -0.9946827912
 H   -0.7692596091    1.9392941397    0.7267226822
 H   -2.1091778908   -0.3503778530    0.3977136556
 H   -1.4967428315   -1.2633016429   -0.9887614898
 H   -1.1267835762   -1.8587918277    1.9699342157
 H   -0.3968519321   -2.8523868964    0.6937523040
 H    1.2446874434   -0.6872150162    1.9544256547
 H    1.4240459851   -2.7140197035   -0.9470277044
 H    0.4128857515   -1.8062887689   -1.8832232445