14

 O   -0.0635425312    0.1105566755    0.6956943755
 C   -0.0642240032    1.1541863433    0.1136142907
 C   -1.3473787290    1.9372751560   -0.1453316534
 O   -1.2363807161    3.0477762307   -1.0129818817
 C   -0.0733464309    3.7902207108   -0.7471438142
 C    1.1495162456    2.9209565959   -1.0393702706
 O    1.1236379749    1.7062188935   -0.2722852374
 C    1.2488102752    2.5967576025   -2.4728045010
 N    1.3392683444    2.3646493369   -3.6001171309
 H   -2.0750597700    1.2493751833   -0.5797980985
 H   -1.7243070257    2.2439846679    0.8437713563
 H   -0.0822198470    4.6664126826   -1.3989936198
 H   -0.0300471202    4.1236614133    0.3018390818
 H    2.0668848032    3.4374446079   -0.7382395269