17

 O    0.1382189710    0.0159216857    0.6899756327
 C    0.0429367084    1.1191916536    0.1895475843
 C   -1.3358197859    1.7619167398    0.0520408192
 C   -1.4845034900    3.1731910939    0.5780380393
 O   -0.5006863243    3.6635410062    1.4998173983
 C   -0.6124999192    4.2941799197    0.2214438799
 C    0.5580096598    4.2371607609   -0.7379119849
 C    1.4533665781    3.0307011431   -0.7549730268
 C    1.2512484008    1.7675612643   -0.3659734585
 H   -1.6171047665    1.7488241690   -1.0107980863
 H   -2.0263889738    1.0957673152    0.5750876298
 H   -2.5082537008    3.4256468723    0.8596275432
 H   -1.0586051170    5.2902616025    0.2666797506
 H    0.1693739648    4.4127312675   -1.7537907687
 H    1.1949843362    5.1085637758   -0.5359693384
 H    2.4467069477    3.2552935214   -1.1403367425
 H    2.0833035806    1.0711714692   -0.4282969115