20

 O    0.1872478289    0.5089389126    0.9274771255
 C   -0.2690046697    0.2490247011   -0.3882134040
 C   -1.5886638394   -0.4981650895   -0.4091989270
 C   -1.8068445106   -1.5969335541   -1.4339625708
 C   -1.6122868519   -1.9413719172    0.0214861652
 O   -0.3605165460   -2.4421018236    0.4385937791
 C   -2.7768156146   -2.4552158413    0.8179776208
 C   -2.7692236505   -3.8243308130    1.3902160834
 N   -2.6521062532   -2.6449906428    2.2682708804
 H    0.3712744330   -0.3523151213    1.3191404662
 H   -0.3878958858    1.2252932667   -0.8697815450
 H    0.4804444438   -0.3114676422   -0.9644737664
 H   -2.4543576602    0.0912015731   -0.1208223812
 H   -2.7911211928   -1.7313757269   -1.8696096244
 H   -0.9812025680   -1.8066397944   -2.1071641984
 H   -0.2109618954   -3.2946498419    0.0166328028
 H   -3.7308668194   -2.0311812419    0.5107034801
 H   -3.6965104473   -4.3822588040    1.4838235607
 H   -1.8858546152   -4.4394224340    1.2397575251
 H   -1.6723046459   -2.5288934354    2.5211428781