19

 C   -0.2521499094    1.5717129782   -0.0907541779
 C    0.0089907234    0.0763871059    0.0442416204
 C    1.1286342039   -0.5396367458   -0.9035440147
 N    1.8313928323   -0.8720569786    0.3390863845
 N    2.8763996884   -1.4919488741    0.9038373614
 C    2.5928211269   -1.3690708232    2.2159361138
 C    3.5427530238   -1.9177084242    3.2360409585
 C    1.3594711918   -0.6887300922    2.4606312753
 C    0.9125909223   -0.3935403845    1.1871018103
 H    0.6820756696    2.1399889794   -0.0449136058
 H   -0.7474909590    1.7976209721   -1.0408179517
 H   -0.9000554617    1.9247706985    0.7174502451
 H   -0.9287897074   -0.4840343826   -0.0226313196
 H    0.8246360478   -1.4096163124   -1.4922802638
 H    1.6552350467    0.1790318846   -1.5384909791
 H    3.9604046408   -1.1241009294    3.8659416643
 H    3.0472819666   -2.6327016631    3.9020164662
 H    4.3687501302   -2.4275347289    2.7357993660
 H    0.9138573630   -0.4736354898    3.4177328669