17

 C   -0.1268168156    1.5910927772    0.0675472170
 C    0.0059009551    0.0890936937   -0.0171908300
 O   -1.1094924742   -0.6180466467    0.4438527095
 C    0.6443147503   -0.6032732667   -1.2003948779
 C    1.2159640007    0.1428119569   -2.3495743074
 O    1.0732814154   -0.2017284704   -3.4972301386
 C    1.3465669180   -0.5950305754    0.1824058015
 C    2.5544347431    0.1427213162    0.4025805532
 C    3.5658887826    0.7590571964    0.6154463820
 H    0.7782155232    2.1028408679   -0.2635851710
 H   -0.9731354305    1.9306254853   -0.5361159230
 H   -0.3062141164    1.8887491071    1.1076615762
 H   -1.2521308655   -0.3791527507    1.3674884413
 H    0.1796093625   -1.5437747736   -1.4736352543
 H    1.8045684785    1.0477566732   -2.0908621693
 H    1.2853732159   -1.5528544454    0.6904494776
 H    4.4631859968    1.2967969949    0.7982680830