17

 O   -0.1796538826    0.3282924094   -0.8489997451
 C   -0.0518321841    1.2945006932   -0.1262920938
 N    1.1175964647    1.7156770191    0.4233221978
 C    2.3860642933    1.0294856102    0.2301335862
 C    3.4105159699    1.8873434197   -0.5582014083
 C    4.2524609050    2.5625250259    0.5581234524
 O    3.6800274733    2.1517502838    1.8013044178
 C    3.1113571858    0.8705059085    1.5719324167
 H   -0.8988140822    1.9471626511    0.1651365598
 H    1.1111985802    2.5256639084    1.0245690241
 H    2.1560190169    0.0862461639   -0.2644687613
 H    4.0338563263    1.2521824415   -1.1922922035
 H    2.9030532253    2.6067080587   -1.2028478540
 H    5.3035103768    2.2442481781    0.5039288675
 H    4.2259225252    3.6549341634    0.5285232088
 H    2.4466052432    0.6330805658    2.4051112293
 H    3.8906090929    0.0939476894    1.4999492254