14

 N    0.1082245978    1.3063417849   -0.2674563353
 C   -0.0922667027   -0.0313989617   -0.0502840288
 N   -1.2213577968   -0.5737282739   -0.3339395132
 C   -1.4408451607   -1.9175265323   -0.0032078690
 N   -2.4132520416   -2.2600993048    0.7340155540
 N   -0.5951487689   -2.8439166681   -0.6707356798
 C    0.6611164493   -2.7916245488   -0.4590927472
 N    1.3771120330   -1.9596907643    0.4101094148
 C    1.0430567960   -0.7403936980    0.5994630879
 H    1.0468967547    1.6495009700   -0.3870471101
 H   -0.6077571492    1.7734252865   -0.8037160314
 H   -2.4527127561   -3.2794280841    0.7867425885
 H    1.2993914161   -3.5236452484   -0.9536667475
 H    1.6660233389   -0.1480562670    1.2756870172