17

 C   -0.0101568947    1.4541872530    0.0052575161
 C   -0.0018975591   -0.0497219708    0.0052769522
 C    0.6174494934   -0.9928971169   -1.0770012091
 C    0.0133385498   -1.9213763207   -0.0034713709
 O    0.0674074514   -3.3002960527   -0.0854082453
 C    0.6368738038   -0.9867587518    1.0781833232
 C   -1.2427314553   -0.9970837311    0.0115511160
 H    1.0096278676    1.8541012138   -0.0031388620
 H   -0.5307804514    1.8456268517   -0.8754730116
 H   -0.5160181193    1.8453580584    0.8947466356
 H    0.1325102697   -0.9978400721   -2.0572914839
 H    1.7077169022   -0.9891724917   -1.1634006213
 H   -0.3707403102   -3.6679429226    0.6895772404
 H    1.7282494037   -0.9787433208    1.1491096580
 H    0.1654744754   -0.9868207492    2.0664641977
 H   -1.8494199455   -0.9979128288    0.9230579888
 H   -1.8633349616   -0.9984417178   -0.8890305840