15

 N    0.0342234230    1.4160658424   -0.1548218874
 C    0.0373546012    0.0238416200   -0.0716180821
 C   -1.0904176271   -0.7888104823   -0.0235873894
 N   -0.6266930087   -2.1163051662   -0.0367680812
 C    0.7232838999   -2.1152532231   -0.0758156927
 O    1.3585872893   -3.3091174866   -0.0857345185
 C    1.1878919727   -0.8146620723   -0.1005933075
 C   -2.4445580141   -0.4455825968    0.0286235212
 C   -3.6102731982   -0.1287208950    0.0885083758
 H    0.7826009561    1.8535112890    0.3658532451
 H   -0.8574754782    1.8163118823    0.1086878688
 H   -1.2055727916   -2.9367248456   -0.0088489670
 H    2.3059620906   -3.1501671723   -0.1368848235
 H    2.2194033626   -0.5021569090   -0.1522333008
 H   -4.6343338976    0.1479949156    0.1117217291