18

 C    0.0595517664   -1.2376372581   -0.0341283535
 C    0.0310916821   -0.0365606844    0.0046665990
 C   -0.0092990625    1.4210696506    0.0410052766
 C   -0.7089131433    2.0226983421    1.2800889713
 C   -0.1232726241    1.8246973834    2.6513433831
 C    0.1929609200    3.0842803035    1.8807793819
 C    1.4748983049    3.0935984619    1.0727529546
 N    2.2441491616    1.8312397075    1.1364122070
 C    1.3749654439    2.0924053051   -0.0201990617
 H    0.0887164498   -2.2984736634   -0.0600970849
 H   -0.5621324032    1.7712691019   -0.8414506772
 H   -1.7796258140    2.1732862192    1.2007648151
 H   -0.8091359451    1.9111293873    3.4872932166
 H    0.6767311462    1.1064201815    2.7771626946
 H   -0.1974111342    4.0379324377    2.2158528173
 H    2.0100667433    4.0284955800    0.9462898514
 H    3.2126207821    1.9985875215    0.8762600610
 H    1.8294309862    2.2323102027   -0.9959923321