18

 C   -0.3522130272    1.4872744986    0.0213242295
 C   -0.0123217097    0.0172004817   -0.1069386642
 C    0.6218264558   -0.6896550290   -1.2403414454
 C    1.7494736733    0.0908036404   -1.9249926832
 N    1.5167181833    1.2653851121   -2.7281427671
 C    2.3930578633    0.2112394251   -0.4896248893
 C    2.6804934851    1.5171377461    0.0863801905
 N    2.9383493151    2.5468062202    0.5450442692
 N    1.3014349879   -0.6212259262    0.1381844439
 H    0.3484693288    2.1622184157   -0.4689317871
 H   -1.3486223025    1.6584454644   -0.4011568593
 H   -0.3859022678    1.7723118356    1.0774313445
 H   -0.7626477643   -0.6053060468    0.3797962167
 H    0.2251353632   -1.6275014797   -1.6186092867
 H    2.3796525984   -0.5882340766   -2.5028322554
 H    1.5064494744    1.0429503255   -3.7155902409
 H    0.6429823318    1.7230704595   -2.5032872081
 H    3.3155064412   -0.3730808267   -0.4359168075