21

 C   -0.7671879966    0.9393801583    0.0108244329
 C    0.1535053798   -0.2457447116    0.2981088968
 C    0.9376371254   -0.6912329136   -0.9377660138
 O    1.8067397109    0.3255413317   -1.4005622900
 O    1.1688589207    0.1183913174    1.2521107488
 C    0.7946499173    0.0526789769    2.6124549966
 C    0.8071450338   -1.3570424082    3.1540107874
 C   -0.0399641893   -1.7496626864    4.2867770749
 O   -0.3758788544   -2.1415740598    2.9560301921
 H   -0.1997489082    1.7431493554   -0.4642920532
 H   -1.5748714239    0.6371116956   -0.6637545150
 H   -1.2266557647    1.3225936040    0.9265989911
 H   -0.4240408133   -1.0964648377    0.6797394858
 H    1.4927759327   -1.6096630976   -0.6921036450
 H    0.2481508911   -0.9213935114   -1.7566797317
 H    2.3166920818    0.6006953026   -0.6292195392
 H    1.5311213187    0.6535713482    3.1597090592
 H   -0.1971115947    0.4954410257    2.7836980556
 H    1.7349257253   -1.9046765742    2.9837757153
 H    0.2816470774   -2.5536883591    4.9464552818
 H   -0.7069543098   -1.0172663561    4.7404875995