17

 C   -0.1198792515    1.6156333923    0.0094322376
 C    0.0325835700    0.1034715895    0.0196597692
 C    1.1822387843   -0.6176465688   -0.7626502707
 C    2.1713620144   -0.1585677298    0.3477475068
 C    0.8945195121   -0.6340758666    1.0998570527
 C    0.9182265048   -1.8728157616    0.1390424438
 C   -0.2926673707   -2.6550108889   -0.0549167446
 N   -1.2392273240   -3.3021297802   -0.2068523064
 H    0.8168254653    2.1576335180    0.1591939694
 H   -0.5434677404    1.9446731074   -0.9455271680
 H   -0.8131757351    1.9292599675    0.7972250596
 H   -0.9467911808   -0.3593682719   -0.1357191762
 H    1.3483323438   -0.6368018152   -1.8402099282
 H    3.0702547033   -0.7661174151    0.4812505894
 H    2.4115082863    0.9020983573    0.3941995259
 H    0.7277872695   -0.6722398488    2.1768120344
 H    1.7745862487   -2.5400152652    0.2654467854