16

 C    0.1222716545    1.4966818688    0.0634501517
 C    0.0458656579    0.0454222310    0.0263910628
 C   -0.0129334105   -1.1568006210    0.0042073662
 C   -0.0445211872   -2.5939702409   -0.0468154569
 O   -0.5170496807   -3.2981146804    1.1178207071
 C   -1.3252496446   -3.3661045091   -0.0512278291
 C   -2.6699151192   -2.6958860270   -0.0171221898
 C    1.1098521635   -3.2100771918   -0.6861626482
 N    2.0161707640   -3.6983795771   -1.2106633092
 H    1.1336306415    1.8396688377   -0.1782994834
 H   -0.5686212169    1.9497010299   -0.6553115310
 H   -0.1312543448    1.8753488408    1.0592682684
 H   -1.2853616403   -4.3340025795   -0.5530815385
 H   -2.6011450701   -1.6994418504    0.4227617806
 H   -3.0737409474   -2.6113784620   -1.0309466894
 H   -3.3665808098   -3.2966615989    0.5760633388