14

 N   -0.0771777884    1.2936782598   -0.1503111648
 C    0.0406055173   -0.0249369268    0.1909243032
 O    1.0705716229   -0.5296429958    0.5704133781
 C   -1.2883777907   -0.7912278655    0.1323942577
 O   -1.0066826354   -2.1534021583   -0.0617914379
 C   -2.1564548871   -2.9548687878    0.0377182924
 C   -1.7930176390   -4.3552688051   -0.1973894477
 N   -1.5508653706   -5.4687479648   -0.3808250526
 H    0.7656825261    1.8457803191   -0.1592845060
 H   -0.8761131131    1.6467573890   -0.6481890798
 H   -1.8161737431   -0.6246811514    1.0871279893
 H   -1.9369842368   -0.4017295769   -0.6705779257
 H   -2.6212505659   -2.8736701956    1.0342434451
 H   -2.9221918664   -2.6666023198   -0.7017897714