16

 N    0.0647642359   -1.1187507739    0.0445170818
 C    0.0296049722    0.0365350864    0.0138097893
 C   -0.0072615594    1.4802537622   -0.0180860410
 C   -0.9760119463    2.2095184213    0.9863495242
 C   -1.4178088754    3.1180482492   -0.1592664903
 C   -0.1923217784    3.5650997868   -0.9303495093
 O    1.0615217784    3.5420963152   -0.2824705742
 C    1.3671528109    2.1768376969   -0.0030786777
 C   -0.7407948358    2.2080065105   -1.1922681020
 H   -1.7767772809    1.5441619686    1.3121370859
 H   -0.4995695804    2.6729441475    1.8553577685
 H   -2.3670428867    3.6346536919   -0.2320868545
 H   -0.2926283591    4.3626571915   -1.6559116626
 H    1.8581336690    2.1188215311    0.9723720862
 H    2.0315927484    1.7555940244   -0.7708112133
 H   -1.0673506925    1.7789435005   -2.1289984110