20

 C   -0.0883324830    1.5698350717   -0.0085439775
 C    0.0393904972    0.0423502575    0.0180349075
 C    0.7881971707   -0.5544365374   -1.2054026724
 C    1.5830095454   -1.7687843463   -0.6634940937
 C    1.6767831891   -1.4756073883    0.8235501149
 C    0.8352415717   -0.5000222621    1.1787195056
 C    2.5367101698   -2.1905543145    1.8069725625
 N    3.2817286689   -3.2195655664    1.2886190447
 O    2.6001627018   -1.8797590578    2.9841860443
 H    0.8990304672    2.0430939603   -0.0402628946
 H   -0.6496275647    1.8996646689   -0.8890408406
 H   -0.6109280887    1.9406855807    0.8791657334
 H   -0.9779919343   -0.3773188453    0.0724434774
 H    0.1173189290   -0.8160971294   -2.0277096742
 H    1.4907272331    0.1950206798   -1.5870282986
 H    1.0469394695   -2.7127746156   -0.8417456577
 H    2.5623125912   -1.8688669671   -1.1458761197
 H    0.7180390163   -0.1586093446    2.2010395548
 H    3.1054675894   -3.5910200880    0.3716913166
 H    3.7864379605   -3.7937223960    1.9442797272