25

 C   -0.1462220526    1.6498867502   -0.0151755607
 C   -0.0546376004    0.1214472209    0.0125188512
 C    0.7252077000   -0.4527971647   -1.1759004799
 C    0.8118991385   -1.9875057715   -1.1993454987
 C    1.4694499147   -2.5520763613   -2.4868832736
 C    2.2572439795   -3.8185048149   -2.0605366781
 C    3.5601572366   -4.0379372211   -2.8370378032
 C    2.4399778625   -3.5886943023   -0.5750105821
 C    1.6667923191   -2.6085819758   -0.1124364624
 H    0.8494300958    2.1065789549    0.0132706555
 H   -0.6423131375    1.9996161962   -0.9275201723
 H   -0.7122815697    2.0332092407    0.8396870694
 H    0.4142426859   -0.1958678499    0.9524134530
 H   -1.0662765036   -0.3061009794    0.0198772741
 H    0.2506051817   -0.1148302510   -2.1077691016
 H    1.7428081456   -0.0378419798   -1.1843264076
 H   -0.2156075692   -2.3763147393   -1.1065961207
 H    0.7444340414   -2.7479238040   -3.2821388001
 H    2.1798301314   -1.8096172322   -2.8728730504
 H    1.6283421390   -4.7115689235   -2.2038795345
 H    4.2349486853   -3.1832843356   -2.7154091188
 H    4.0863973779   -4.9331290195   -2.4880436572
 H    3.3653847563   -4.1635872684   -3.9076224027
 H    3.1093981712   -4.1968611174    0.0256973412
 H    1.6078647604   -2.3003938216    0.9260621904