18

 O   -0.0070561826    1.4023425925    0.0453504076
 C    0.0411672554   -0.0093392581    0.0350088256
 C   -1.3810323101   -0.5710076151   -0.0523066479
 C   -1.3707664758   -0.4198002969   -1.6168558601
 C   -1.8043621911   -1.9030616847   -1.8362732234
 C   -0.5589977702   -2.6230814099   -2.3516681888
 N    0.1668203178   -2.0953187058   -1.1340260066
 C    0.1841199800   -0.6295488709   -1.3765073031
 C   -1.2127685343   -2.0668634142   -0.4061591008
 H    0.8824282349    1.7301280922   -0.1216547385
 H    0.7102645453   -0.4073548639    0.8103133228
 H   -2.1900222752   -0.2593012188    0.6060278207
 H   -1.7549897787    0.4351439681   -2.1641996428
 H   -2.8312733395   -2.1265275281   -2.1249877637
 H   -0.6298410901   -3.7129665158   -2.2906758323
 H   -0.1192116406   -2.3327508177   -3.3121619457
 H    0.9571158622   -0.3066161694   -2.0754111922
 H   -1.3783551075   -2.9027014336    0.2709200992