21

 C    0.3387549074    1.6012715296   -0.0929856486
 C    0.0497119362    0.0818931154   -0.0737631782
 C    0.4023198027   -0.5088404858    1.2956850200
 C   -1.4435495962   -0.1011996625   -0.3354955007
 O   -2.2239292431   -0.6285286296    0.4149865951
 C    0.8012107287   -0.5734160721   -1.2564831458
 O    0.5271314481    0.0405840511   -2.4986465862
 C    2.2257391853   -1.0299163451   -1.1297429429
 C    1.1144773919   -2.0463542925   -1.3099207248
 H    1.4086374688    1.7738288293    0.0600954696
 H    0.0625451525    2.0447971780   -1.0516449457
 H   -0.2082125556    2.1109258618    0.7062126831
 H   -0.2097023311   -0.0327819166    2.0656240750
 H    0.1955161521   -1.5799461182    1.3495857730
 H    1.4524384776   -0.3348695726    1.5435024689
 H   -1.7901690526    0.3153772071   -1.3092226559
 H   -0.2388497539   -0.3923009863   -2.8887992623
 H    2.8595077519   -0.8256035956   -1.9844963728
 H    2.7208949594   -0.9780807195   -0.1680224380
 H    0.8534587617   -2.6782749184   -0.4697683215
 H    1.0305201383   -2.5253199575   -2.2795536412