21

 C    0.0870802086    1.5069113564    0.1097326144
 C    0.0895779517   -0.0238923405    0.1181353656
 O    0.7220128835   -0.5334036494    1.2943648977
 C   -1.3212424150   -0.5867125702   -0.0009410482
 C   -2.1076271902   -0.6294290170   -1.3546015529
 C   -1.2181958802   -1.8294962761   -1.7852617285
 C   -1.5755776968   -2.1035400646   -0.2950809923
 C   -3.0222307308   -1.7103446189   -0.6828520370
 O   -3.8721806946   -1.3651549563    0.3810781312
 H    1.1008622802    1.8875327005    0.2607290360
 H   -0.2957359124    1.8977456438   -0.8389877264
 H   -0.5495865397    1.8982116213    0.9131034652
 H    0.7290847626   -0.3762919860   -0.6964834068
 H    0.1679433183   -0.2952726762    2.0464771990
 H   -1.9250918735   -0.2061714851    0.8297518315
 H   -2.4236189507    0.2154511627   -1.9703395195
 H   -1.6472965546   -2.5149859911   -2.5224625877
 H   -0.1753180397   -1.6213780616   -2.0168295045
 H   -1.2700595420   -2.9536005252    0.3148312400
 H   -3.5196154193   -2.3921442879   -1.3856425540
 H   -4.6694838452   -0.9732315686    0.0119688973