15

 C   -0.2284741285    1.5108629179    0.0294842926
 C   -0.0774673283    0.0160730709   -0.0155549299
 C   -0.1163053480   -0.6553205757   -1.2062213176
 N    0.2093718009   -1.9433275145   -1.5154221495
 C    0.2617441699   -2.9304223865   -0.6819347712
 N   -0.2056535229   -3.0341557745    0.6013861183
 C   -0.3278445229   -2.0541382055    1.4211578177
 C    0.1006411524   -0.6273577693    1.2934835823
 O    0.3955583024   -0.0071135156    2.3031468922
 H    0.6963340098    1.9709619815    0.3939575826
 H   -0.4658416428    1.9211991877   -0.9542927703
 H   -1.0090627805    1.8007689091    0.7407799321
 H   -0.3279410415   -0.0582337781   -2.0926269349
 H    0.6417518071   -3.8722054763   -1.0756043898
 H   -0.7741475873   -2.2710486310    2.3949760854