20

 C    0.5588347291    1.3690266331    0.2672880014
 C   -0.2887013994    0.1604366521   -0.1502167587
 C    0.2670770678   -0.5113546582   -1.3830168064
 O    1.4593499525   -1.2933891983   -1.2278114505
 C    0.2594097557   -1.9594089513   -1.6512752845
 C   -0.3082469116   -3.0159940573   -0.7364089123
 C    0.5448016367   -4.2814453472   -0.7410366259
 O   -0.0881550373   -5.2293522888    0.1045530794
 H    1.5841385515    1.0591596685    0.4899526210
 H    0.6009942006    2.1189939869   -0.5301318642
 H    0.1457708240    1.8507641407    1.1582627586
 H   -0.3406459082   -0.5550939126    0.6749249818
 H   -1.3174099284    0.4794871576   -0.3633412221
 H    0.2961559651    0.1400589078   -2.2614132106
 H    0.2855614579   -2.2540042819   -2.7042285658
 H   -0.3821335246   -2.6506015298    0.2908118033
 H   -1.3224762281   -3.2735162836   -1.0663150178
 H    0.6386875330   -4.6642898792   -1.7709212298
 H    1.5572471398   -4.0348294631   -0.3883138807
 H    0.4709743238   -6.0101150354    0.1516718138