21

 C    0.2731637282    1.3905943329    0.1691817454
 C   -0.3105282926    0.0515550484   -0.2794120440
 N    0.4239484269   -0.5176696780   -1.3981193320
 C    0.7502524448   -1.8563040730   -1.4322130620
 O    0.5954089967   -2.6213954428   -0.4933758875
 N    1.2853604092   -2.2746000416   -2.6335210774
 C    2.1213734001   -1.5141143212   -3.5793846027
 C    2.8542171455   -2.8365494100   -3.9335696147
 C    2.0740753562   -3.5069501189   -2.7674186835
 H    1.3144396716    1.2743838442    0.4835246131
 H    0.2446051156    2.1311487199   -0.6384702345
 H   -0.3003573049    1.7954187158    1.0090070183
 H   -0.2565411541   -0.6891291540    0.5208177826
 H   -1.3731550298    0.1729711113   -0.5356666960
 H    0.3809041593   -0.0261687282   -2.2768291527
 H    1.5672519732   -1.0352582744   -4.3953701043
 H    2.7531973424   -0.7601079971   -3.0923341830
 H    2.5980785614   -3.2271143536   -4.9191938150
 H    3.9389645030   -2.8158081274   -3.8285540864
 H    2.6706051935   -3.7267478551   -1.8757843993
 H    1.4831239137   -4.3920562673   -3.0196534944