23

 C    0.0952685705    1.5013828683   -0.1080109910
 C   -0.0258799903   -0.0184503406    0.0243814266
 C   -1.4747642836   -0.4852433995    0.0813813533
 O   -1.4803583130   -1.8953856818    0.2284156084
 C   -2.7257732511   -2.5325537918    0.0601790685
 C   -3.7658740712   -2.1217905058    1.0971564553
 C   -3.2632760318   -2.6202172576   -1.3973984390
 O   -3.2708688468   -4.0605060161   -1.3375966381
 C   -2.5432174571   -4.0563305769   -0.0919202715
 H    1.1439893227    1.8094807439   -0.1452756630
 H   -0.3889463032    1.8636593805   -1.0217610523
 H   -0.3713139469    2.0154282001    0.7396446011
 H    0.4673402194   -0.5162564330   -0.8181450683
 H    0.4835982515   -0.3634865091    0.9314530162
 H   -1.9935090862    0.0007972639    0.9222095534
 H   -2.0043661839   -0.1913339621   -0.8401820476
 H   -4.0599614371   -1.0734991551    0.9867527563
 H   -4.6664532750   -2.7325413267    0.9846062165
 H   -3.3712543322   -2.2662773849    2.1080436748
 H   -4.2608084488   -2.2120969446   -1.5971454961
 H   -2.5514985187   -2.2419116096   -2.1431098587
 H   -1.4912806822   -4.3387631057   -0.2208177469
 H   -3.0126445852   -4.6956720059    0.6641328819