15

 O    0.6276710933    0.5656912649   -0.7193964049
 C   -0.0936903787   -0.2960243006    0.1184149424
 C    0.0638029072   -0.2020071949    1.6583438876
 C   -1.4612741691   -0.5457574658    1.7890860628
 C   -1.6251799658   -0.1204393262    0.2880058818
 C   -1.7359012824   -1.9473347769    2.0439272964
 C   -1.9559696402   -3.1124684864    2.2463533948
 H    0.4483880693    1.4713490409   -0.4446126406
 H    0.1380504957   -1.3070177023   -0.2273682059
 H    0.7780903226   -0.8628792620    2.1510555601
 H    0.2490657015    0.8309735156    1.9723838315
 H   -2.0104958069    0.0733645144    2.5028558614
 H   -1.9098590659    0.9352370478    0.2209172577
 H   -2.2910668536   -0.7146150649   -0.3391085462
 H   -2.1559361671   -4.1386497135    2.4314272711