18

 C    0.1516836303    1.4671047666   -0.4088570237
 N    0.0576129901    0.0494945781   -0.0748877961
 C    1.2956745751   -0.6883253966    0.0249149943
 C    0.4982842817   -0.3838033175    1.2675759575
 C    1.0217681504    0.5432598597    2.2240616286
 C    1.4318918158    1.3374718560    3.0396404523
 C    1.9431312862    2.2933305577    3.9997662123
 C    1.9102540998    1.8456537601    5.4475190665
 O    2.3662750734    3.3771721382    3.6533443302
 H    1.0393235353    1.9649125860    0.0061144395
 H    0.1738677148    1.5571777015   -1.4987807516
 H   -0.7385765304    1.9821935504   -0.0374103416
 H    1.2896042537   -1.7025669294   -0.3653022286
 H    2.2327926838   -0.1469055392   -0.0934041682
 H   -0.1160513587   -1.1779415120    1.6847887007
 H    2.4865839607    0.9223949225    5.5705327441
 H    2.3232708328    2.6318483000    6.0811668958
 H    0.8810815552    1.6229484979    5.7493120276