17

 C    0.6793574211   -1.4617535907   -0.2306293022
 C    0.4677137727   -0.2801593360   -0.1664101610
 C    0.1999624602    1.1534440613   -0.1069354006
 C   -0.5855241651    1.6528092276    1.1402896832
 C    0.7213460979    2.3808158546    1.5004554603
 O    1.3734374413    1.9127174142    0.2982817636
 C   -0.2934046811    1.6392812002   -1.4583105999
 C   -1.7081120676    1.6012390534   -1.8337471941
 O   -1.0691047722    2.8325348272   -1.4769740086
 H    0.8732752742   -2.5049727949   -0.2805895033
 H   -1.4172305444    2.3093555768    0.8874969066
 H   -0.9042245274    0.8679545078    1.8243198871
 H    0.6680593178    3.4740525495    1.5305275492
 H    1.2285080986    2.0174015030    2.4015754461
 H    0.4646431084    1.5751833709   -2.2386882045
 H   -1.9854594412    1.5026200642   -2.8812783404
 H   -2.4449105731    1.2356267107   -1.1199699415