20

 C    1.0302970622   -0.0933717817   -1.1781182300
 C   -0.0085683496   -0.1513518925   -0.0526335357
 C    0.5564731785   -0.6570390946    1.2574691818
 C   -0.3049996034   -1.3401437989    2.2748385918
 C    0.7379192002   -2.1267469893    1.5053303763
 O    1.6381473448    0.1210184687    1.7655543755
 C    1.3179525045    1.3174961613    2.3340161358
 N    2.4536395409    1.8981817244    2.8272980656
 O    0.2062017099    1.7806627813    2.4183685771
 H    1.4428419314   -1.0855011638   -1.3900247042
 H    0.5843357881    0.2910503670   -2.1002115569
 H    1.8643077157    0.5617565485   -0.9098816779
 H   -0.4460958634    0.8373139265    0.1169109692
 H   -0.8321994598   -0.8151063146   -0.3400434116
 H   -0.1044141945   -1.1288472162    3.3181866540
 H   -1.3532655221   -1.4832459174    2.0374606270
 H    0.4116445152   -2.8154165954    0.7335570321
 H    1.6298712798   -2.4312819983    2.0403071477
 H    3.3472957313    1.5492197162    2.5257689662
 H    2.3831126601    2.8697689388    3.0754178563