20

 C    0.2480601622    1.5730576249   -0.2325756908
 C    0.0365112739    0.0934792140    0.0477519092
 C    0.6708194915   -0.9611522932   -0.9136353783
 C    1.2899202340   -1.7172076283    0.2941115123
 C    2.7621815453   -1.3254400771    0.6066394071
 C    2.2226643027   -0.1839449330    1.4505092151
 N    2.7253185700    0.7485746837    2.1462199738
 O    4.1321492185    0.7316310129    2.0650893277
 C    0.7734117790   -0.5722075968    1.2562191216
 H    1.3112642196    1.8127088096   -0.3309164234
 H   -0.2531272844    1.8674886972   -1.1615381949
 H   -0.1544436014    2.1916137512    0.5768989911
 H   -1.0346361601   -0.1077789895    0.1539994356
 H   -0.0527247093   -1.5344544440   -1.4977722618
 H    1.4156258853   -0.5536314016   -1.6051287785
 H    1.0146784675   -2.7630629244    0.4232376062
 H    3.3033787911   -2.0597834384    1.2134527542
 H    3.3968612732   -1.0535295358   -0.2424717586
 H    4.3760762650    1.4633190755    2.6417468860
 H    0.1910512465   -0.7359506570    2.1645126664