15

 N    0.1379122186    1.4151783729    0.0749334469
 C    0.0226166683    0.0280245022    0.0059078547
 C   -1.0934872521   -0.7847985400    0.0048285361
 N   -2.4237714731   -0.2952623594   -0.0035049584
 N   -0.7264857232   -2.1041240959    0.0104775125
 C    0.5950683960   -2.1148748154    0.0107761358
 N    1.0931325426   -0.8230179197    0.0195448728
 C    1.4474838238   -3.2372806623   -0.0082397175
 C    2.2054506615   -4.1741561827   -0.0196074519
 H    0.7047577436    1.8089593371   -0.6694365669
 H   -0.7936066292    1.8155551525    0.0248533577
 H   -2.8819281033   -0.4786147691    0.8858754250
 H   -2.9706931473   -0.7854723167   -0.7058442265
 H    2.0645564657   -0.5664617518    0.0781518631
 H    2.8583079881   -5.0112159918   -0.0309766533