17

 O    0.0054295053    1.4073370089    0.0182648551
 C    0.0062144818    0.0151569834    0.0037132314
 C    0.4599339788   -0.7284908824   -1.2829963337
 C   -0.6784204983   -1.7592444016   -1.0765690340
 O   -0.3643372865   -2.7065399068   -0.0340748954
 C   -0.7310706298   -1.7810326462    1.0108680491
 C    0.3948863067   -0.7554696221    1.2958998110
 C   -1.3482692192   -0.7915095219   -0.0388637203
 O   -2.5739857078   -0.1789651801   -0.0634286381
 H    0.9201524613    1.7106495331    0.0387864031
 H    0.2432785774   -0.1005758116   -2.1533667939
 H    1.4796405124   -1.1188274916   -1.3383807086
 H   -1.1394689543   -2.2330161573   -1.9450290962
 H   -1.2351347713   -2.2726248232    1.8448339185
 H    1.4106887717   -1.1474368994    1.3945890324
 H    0.1343124895   -0.1455983764    2.1670451297
 H   -3.2596101077   -0.8568821047   -0.0877482101