22

 C    0.1069554605    1.6459168872   -0.1087535608
 C    0.0238545864    0.1238016101    0.0495297206
 C    0.6446024506   -0.6670541304   -1.1321031418
 C    1.2439695098   -1.9469444547   -0.5056140442
 C    1.4608747914   -1.5494155333    0.9462682675
 C    0.7865157903   -0.4303151377    1.2311547245
 C    2.2626183884   -2.3324582480    1.9060499402
 C    2.4792406543   -3.7977154715    1.7271133721
 N    3.5976412620   -2.8678894703    1.5386579885
 H    1.1490094304    1.9718540390   -0.1997738583
 H   -0.4305299181    1.9783284891   -1.0034304880
 H   -0.3315878053    2.1606936450    0.7527545966
 H   -1.0402887450   -0.1433781396    0.1538824214
 H   -0.0734388706   -0.8780409930   -1.9291953891
 H    1.4503424023   -0.0672088477   -1.5710244524
 H    0.5429521535   -2.7915289743   -0.5651157411
 H    2.1578218154   -2.2723953304   -1.0174788085
 H    0.7487150406    0.0296899080    2.2140830431
 H    2.2368707115   -1.9519597859    2.9244435042
 H    2.5553988883   -4.4372497922    2.6022338361
 H    2.0403538206   -4.2751258355    0.8552743310
 H    3.7586408128   -2.7216305339    0.5447603785