18

 O   -0.1436359695    0.1357178618    0.4907765163
 C    0.0206806193    1.1950740184   -0.0530320647
 C    1.3864177593    1.8171954602   -0.2879782302
 O    1.1977758687    3.0634735112   -0.9075053521
 C    2.3870789036    3.7615973218   -1.1545477993
 C    3.3450532848    3.2972342041   -2.3222108611
 C    3.1901879338    4.7024424440   -2.9118770973
 N    1.7534352020    4.8323531721   -3.2360115520
 C    2.2172235783    5.1032869951   -1.8532700643
 H   -0.8203967877    1.8142740590   -0.4346197658
 H    1.9058412311    1.9082896082    0.6816023849
 H    1.9833693884    1.1287418097   -0.9086502102
 H    2.9629755363    3.8795304778   -0.2240012150
 H    4.3501732279    3.0510004453   -1.9753835371
 H    2.9559417192    2.5017028035   -2.9614985617
 H    3.9395550458    5.2998310727   -3.4146270172
 H    1.6211843883    5.7432863469   -3.6755025323
 H    2.0375208204    6.0632741782   -1.3857049310