20

 O    0.1479747745    1.2874516257    0.1843760895
 C   -0.0345334880   -0.1194664344    0.1280450249
 C   -1.4910373359   -0.4625737309   -0.1037189580
 C   -2.5645916076    0.5614185366    0.0361839683
 N   -2.2385003022   -0.0006525295   -1.2740838187
 C   -1.6181001116    0.8409514190   -2.2651316941
 C   -1.0592380114    0.1380471650   -3.4915594845
 C   -2.3760259969    0.8736150747   -3.5700015148
 O   -3.5658721106    0.1585252518   -3.6579749908
 H    1.0898135239    1.4709731761    0.1242012040
 H    0.5724471219   -0.5647085650   -0.6751923563
 H    0.2751371224   -0.5932789247    1.0734774185
 H   -1.7184492840   -1.4920019077    0.1703815167
 H   -3.5355921885    0.2913288621    0.4422447132
 H   -2.2397272412    1.5776038492    0.2390102052
 H   -1.1089097251    1.7338285121   -1.9134703987
 H   -0.1805327543    0.5622755287   -3.9660045292
 H   -1.1158888739   -0.9451647578   -3.5059298599
 H   -2.4179282282    1.8064569247   -4.1240680786
 H   -3.6342030034   -0.3137107856   -2.8126969965