18

 O    0.0663806369    1.3256978830   -0.6313805663
 C    0.0608539835    0.2041242866    0.2322402441
 C   -1.3149721173   -0.4155439594    0.3169384070
 N   -1.7334994717   -1.1032823832   -0.9470974993
 C   -1.5473745367   -1.8658097507    0.2578491356
 C   -0.7591933336   -3.1717003923    0.4590158289
 C   -1.2714799363   -3.2125615793    1.9206295948
 C   -2.4589116854   -2.8631394339    0.9888023906
 O   -1.9832887660   -3.9110806012    0.0510800215
 H   -0.2675108551    1.0060879304   -1.4783959983
 H    0.7819733819   -0.5600242546   -0.0958401601
 H    0.3795017455    0.5663273998    1.2155400555
 H   -2.0678642816    0.1933005910    0.8155163047
 H   -2.7199803190   -0.9523657262   -1.1424633643
 H    0.1911565568   -3.4946039720    0.0368888375
 H   -1.3206487627   -4.2130743437    2.3499967058
 H   -0.9162728190   -2.4519727480    2.6202857171
 H   -3.5274114303   -2.8179882765    1.2019674451