27

 C   -0.3978546658    1.7093709258   -0.0961223367
 C   -0.2900919045    0.2080531685   -0.4298038130
 C    0.1300004741   -0.5739019138    0.8269885926
 C   -1.6872416844   -0.2746906934   -0.8716750385
 C    0.6808202349   -0.0538230859   -1.6189493075
 C    2.1936905381   -0.0050080754   -1.4101914181
 C    2.8139303126    1.3034483864   -0.9496138529
 C    2.8940084794   -1.2765516285   -0.9821272743
 C    3.0064143989   -0.8027623648   -2.4100587272
 H    0.5372484690    2.1228482427    0.2867877930
 H   -0.6818534214    2.2888376826   -0.9817393537
 H   -1.1659178006    1.8764928044    0.6675077776
 H   -0.5942738555   -0.4202821888    1.6350026894
 H    0.1797848012   -1.6500447221    0.6286030312
 H    1.1111945604   -0.2591030998    1.1932793632
 H   -2.0152244229    0.2408223820   -1.7815985320
 H   -1.6898554656   -1.3506120348   -1.0784315598
 H   -2.4331175722   -0.0816856083   -0.0927986765
 H    0.4478764467   -1.0514707444   -2.0130278455
 H    0.4197775857    0.6486028415   -2.4241514499
 H    2.5696779557    1.5359519329    0.0917183593
 H    3.9055315117    1.2569931517   -1.0206512643
 H    2.4776690923    2.1442515022   -1.5674289357
 H    3.7670240683   -1.1900088325   -0.3432061114
 H    2.2922166479   -2.1571040833   -0.7852170645
 H    2.4753986542   -1.3601037182   -3.1748801050
 H    3.9540797618   -0.3911029664   -2.7411808398