19

 C   -0.1709923531    1.4942203815    0.2578088864
 C    0.0020629798    0.0063700540   -0.0063456479
 O   -1.2491693951   -0.6422533689   -0.1553304792
 C    1.0978041079   -0.3302359604   -1.0635181722
 C    2.0919570099   -0.6113961710    0.0909736957
 C    0.8873870052   -0.6986810807    1.0860961188
 O    1.0209733677   -0.0623313249    2.3145688064
 C    0.4560385503   -2.1350679393    1.2978182076
 O    0.2670725592   -2.5738477054    2.4074977743
 H    0.7893626652    1.9948706471    0.4046620374
 H   -0.6680777580    1.9667491703   -0.5991989913
 H   -0.7741783168    1.6509051954    1.1548655748
 H   -1.8209070905   -0.0922102255   -0.7011816028
 H    0.8321353020   -1.2319536816   -1.6205482966
 H    1.3636980322    0.4591828349   -1.7701877428
 H    2.7372013738   -1.4887910678    0.0069573228
 H    2.7052320961    0.2539367026    0.3493146558
 H    0.7511993169   -0.7178735005    2.9797245493
 H    0.3448039873   -2.7644436198    0.3963676633