18

 N   -0.0029912456    1.3951303880    0.0848776276
 C    0.0001281413   -0.0133310366    0.0281336026
 C   -1.0965415118   -0.8442170712   -0.0608333783
 N   -0.6040341701   -2.1474631445   -0.0865928759
 C   -1.1351052587   -3.4738383734    0.1494692369
 C    0.1267218454   -4.3265667450   -0.1229280666
 N    1.2340349225   -3.4287132983    0.2717499871
 C    0.7488840672   -2.1249751959    0.0660330480
 C    1.1852999342   -0.8226407261    0.1219823919
 H    0.7792798272    1.7961647519   -0.4177983268
 H   -0.8583175388    1.7915650518   -0.2840329879
 H   -2.1436946137   -0.6291742109   -0.1921633303
 H   -1.4838799426   -3.5895791063    1.1856618049
 H   -1.9597800029   -3.7220664840   -0.5245229375
 H    0.1414689384   -5.2496844638    0.4613777033
 H    0.1694390048   -4.5862427868   -1.1905476132
 H    2.1074268636   -3.6308692486   -0.1972909457
 H    2.1988635496   -0.4721668304    0.2349695198