21

 C   -0.0323026028    1.6172465591   -0.0544797757
 C    0.0140085591    0.0781868889   -0.0076193348
 C    0.8327180168   -0.4797968113   -1.1511512321
 C    1.9991518031   -0.9793534612   -0.7493813044
 C    2.1724963484   -0.8870683969    0.7465639796
 C    0.7444598506   -0.5341748936    1.2390321250
 C    0.6746583839    0.3038087365    2.4949185473
 C    1.6937228640    0.2719423046    3.5521606518
 O    1.6097313223    1.3771796198    2.6487387958
 H    0.9682486047    2.0473067598    0.0413764061
 H   -0.4573344200    1.9538155258   -1.0060100906
 H   -0.6524921169    2.0274017158    0.7486373470
 H   -1.0206587292   -0.2871825464   -0.0465445117
 H    0.5045782350   -0.4028037836   -2.1827087757
 H    2.7675623458   -1.3819459092   -1.4003681222
 H    2.5442480674   -1.8172494235    1.1911974639
 H    2.8898485700   -0.0986059897    1.0108847187
 H    0.2310603622   -1.4768837714    1.4691186789
 H   -0.3384962299    0.5700696604    2.8043226955
 H    1.4122346479    0.4896193181    4.5815687006
 H    2.5745236676   -0.3571243720    3.4366874871