19

 O    0.2089520654    1.3980372580    0.1669147729
 C    0.0810608822   -0.0094900583    0.0374710705
 C   -1.3927580134   -0.5114211690   -0.0139193848
 C   -1.3112682268   -1.8001970387   -0.8612175028
 C   -2.3431198340   -2.1875631274   -1.8989009375
 C   -1.7681297663   -2.4541404852   -3.0755790301
 C   -0.2562062400   -2.2588133121   -3.0505668552
 C   -0.0967595564   -1.5410083474   -1.7377189743
 C    0.6685133395   -0.5691936801   -1.2502685802
 H   -0.1802913220    1.7929768284   -0.6217569204
 H    0.5959273141   -0.4040959148    0.9237541356
 H   -1.8318281337   -0.6500440618    0.9774193541
 H   -1.9853715553    0.2452690809   -0.5431248384
 H   -1.1411945762   -2.6550673491   -0.1849398175
 H   -3.4005147419   -2.2949572095   -1.6834903138
 H   -2.2871351113   -2.8050061198   -3.9608081147
 H    0.2598667086   -3.2308899831   -3.0748721242
 H    0.1261116107   -1.6844054053   -3.9018983645
 H    1.5718518068   -0.1591330659   -1.6884685147