19

 C   -0.0689023144    1.5534070037   -0.0608671593
 C    1.5007932985    1.5917843589    0.0112055630
 C    2.1229427533    1.9846978100    1.3247484985
 C    2.3963182656    0.9314271368    2.0951016674
 C    1.9541616071   -0.3849500525    1.4699812932
 C    0.6557104140   -0.8997882484    2.0766879287
 C   -0.4022879351   -0.6719843249    1.2980340580
 C   -0.0282849757   -0.0168909911   -0.0049707488
 C    1.5279073637    0.0346942653    0.0299659649
 H   -0.5858446703    2.0364024242    0.7713588508
 H   -0.4708041458    1.9448537073   -0.9987340783
 H    1.9628549215    2.0854749330   -0.8483273728
 H    2.2996591492    3.0186153312    1.6038050244
 H    2.8277087130    0.9804237032    3.0895959896
 H    2.7487859228   -1.1406403052    1.5081662794
 H    0.6186869928   -1.3435903370    3.0662263231
 H   -1.4286546071   -0.9037759281    1.5643624852
 H   -0.4892322404   -0.4942581304   -0.8742673496
 H    2.0716835372   -0.4741713059   -0.7660471073