17

 C   -0.0153279529    1.4346991751   -0.0820821717
 N   -0.0071557479   -0.0203731399    0.0207848099
 C    1.3084311279   -0.6396195332    0.0670500719
 C   -1.1806097394   -0.6859338779   -0.0239352254
 O   -2.2782184451   -0.1489133239   -0.0852508342
 C   -1.1821151016   -2.2501113010    0.0115511327
 O   -2.4983724415   -2.6847643212    0.1276647506
 C   -0.5412242916   -2.7798094212   -1.2134269253
 N   -0.0231494615   -3.1821123483   -2.1649261039
 H    0.5227600451    1.7539272895   -0.9820931431
 H   -1.0471454640    1.7757388621   -0.1339591941
 H    0.4758201023    1.8765741172    0.7919057191
 H    1.2502838224   -1.6929566831    0.3338185715
 H    1.8150926414   -0.5623724290   -0.9020671201
 H    1.9189900811   -0.1315423702    0.8210283961
 H   -0.5985703568   -2.6025515617    0.8732452719
 H   -3.0258048778   -1.8741699831   -0.0149844959