18

 C   -0.6251522218    1.1505022753    0.4035124352
 C    0.0825216326   -0.1203699033    0.0693687616
 O   -0.3593901481   -1.3319705376    0.7174396133
 C    1.0339992785   -0.9769595348    0.8015911306
 C    1.7018118699   -1.4552780355   -0.4902327644
 C    0.7013025920   -0.5365508094   -1.2923563119
 C   -0.1984910632   -1.1484396701   -2.3623776665
 N   -0.9990371699   -2.1611351946   -1.9255704289
 O   -0.1739625218   -0.7652937274   -3.5176852304
 H   -0.8097984460    1.2128609427    1.4790947213
 H   -0.0308067065    2.0159239778    0.0947553496
 H   -1.5890458701    1.2035350292   -0.1146658447
 H    1.4475859613   -0.8865601807    1.7996519212
 H    2.7366439543   -1.1246199436   -0.5984765358
 H    1.6380800147   -2.5292943652   -0.6764370857
 H    1.2244345529    0.2970551477   -1.7618362036
 H   -1.0838362116   -2.3440887909   -0.9366450419
 H   -1.6676533571   -2.5430220396   -2.5742782190