11

 O    0.0789307124    1.2556446428   -0.1152915931
 C    0.0653791188   -0.0719525629   -0.0649041112
 N    0.0077948221   -0.7863806185   -1.1869609879
 N    0.0168602654   -2.0482056964   -0.6423231511
 C   -0.0125904147   -3.3705250793   -0.9633827686
 N    0.0252335768   -4.1143329426    0.1055450438
 O    0.0840513765   -3.2054871222    1.2141968435
 C    0.0764594299   -1.9775670540    0.7066008908
 N    0.1099542273   -0.7418250163    1.1405113340
 H    0.1224764387    1.5748526483    0.7950962701
 H   -0.0608268431   -3.7744421388   -1.9616194102