13

 N    0.0176647995    1.2363506598   -0.3742236325
 C   -0.0496668354   -0.0418222147    0.0651366980
 N   -1.2191458981   -0.6006211373    0.2031264905
 C   -1.3956098269   -1.9480053491    0.3856113696
 O   -2.2596047290   -2.4622072637    1.0616773753
 C   -0.4916682721   -2.8103656116   -0.4631118370
 N    0.7873072156   -2.7630568335   -0.4396921806
 C    1.4730397544   -1.7984634141    0.2656942118
 N    1.1965315413   -0.5515717083    0.4237222126
 H    0.8785505944    1.7396961797   -0.2475165362
 H   -0.8420651500    1.7481701974   -0.4783871694
 H   -0.9709488963   -3.5537998986   -1.1035202487
 H    2.4359861824   -2.1396178759    0.6447609468