18

 C    0.0390044842    1.4787643414    0.0980230761
 C    1.3494643803    0.7488264636   -0.0594971933
 C    1.7489996679    0.0631277185    1.2523842402
 C    0.4012401840   -0.7409166663    1.2167825600
 N    0.6234081909   -2.1608141486    1.0228921202
 C    0.3628692354   -2.6687431778   -0.1079910046
 O   -0.1626646380   -2.1189803953   -1.2309546923
 C   -0.6887014581   -0.7811559060   -1.1300701040
 C    0.0174779117   -0.0059997360   -0.0730280494
 H   -0.2385516843    1.9242869709    1.0516486895
 H   -0.2741971454    2.0572220205   -0.7671391079
 H    2.0126229723    0.9642985403   -0.8891944818
 H    2.5991065787   -0.6141166854    1.1582510082
 H    1.9039530201    0.7223295836    2.1123496419
 H   -0.2582639660   -0.5989243904    2.0809302490
 H    0.5698203538   -3.7216635312   -0.2938602858
 H   -0.5868440318   -0.3373001884   -2.1249521115
 H   -1.7601871057   -0.8666007536   -0.9013229145