14

 O    0.2197840311    1.5492734257    0.0329375438
 C    0.0448327396    0.1610980206    0.0635629175
 C    0.5959172567   -0.4592750252   -1.2205102774
 O    1.0529032715    0.2267052355   -2.0993011828
 C    0.7280864987   -0.4489452888    1.2562523470
 C    1.6718562963    0.1280163748    2.0479073039
 O    2.0576437209   -0.7179929557    3.0115356082
 N    1.3606387375   -1.9119856995    2.8760907954
 C    0.5777920916   -1.7398929831    1.8397302299
 H    0.5914696522    1.7441770825   -0.8432107201
 H   -1.0298060073   -0.1000412877    0.0926271398
 H    0.5527414515   -1.5638332798   -1.2927436309
 H    2.1254060165    1.1052977604    2.0499559434
 H   -0.0786250168   -2.5468339899    1.5438801525