19

 O   -0.0128976853    1.4252819827    0.0306861115
 C    0.0386073792    0.0042538389   -0.0354234338
 C    0.8612497865   -0.5686280548    1.1362559339
 C    0.8400215034   -2.0903901438    1.1968372166
 N    0.0208541013   -2.6977253334    2.2670508895
 C   -0.4331736396   -2.7856619426    0.8703258306
 C   -1.6079160653   -1.9578016564    0.4196650105
 N   -1.9959001180   -0.7830339315    1.2182665696
 C   -1.3596428769   -0.5824806021   -0.0963908801
 H   -0.4923142958    1.6421955351    0.8392941478
 H    0.5435284297   -0.2132696841   -0.9853191059
 H    1.8851650471   -0.1939894427    1.0522493028
 H    0.4381037154   -0.1829211666    2.0682769332
 H    1.7633511655   -2.5984404462    0.9289580039
 H    0.4239587398   -3.5887545047    2.5466399003
 H   -0.3678700589   -3.7526306534    0.3759609927
 H   -2.4122249535   -2.5219757677   -0.0468932061
 H   -3.0007385989   -0.6472111215    1.1566924552
 H   -1.9705646959   -0.2165392652   -0.9184989523