22

 C   -0.4222046531    1.2992114586   -0.4542778871
 C    0.9271548320    1.5737663957    0.1642024101
 C    0.3995066295    0.1611094172    0.0993182211
 C   -0.0317681108   -0.5383285841    1.3485952109
 C   -0.6475924110   -1.9208902629    1.2923431410
 C    0.7257295964   -1.7317904984    1.8828430489
 N    1.8415416056   -2.2239196599    1.1230553534
 C    3.1627706397   -2.0573899312    1.7196676859
 C    2.5231288163   -3.4010013612    1.6515175085
 H   -1.3041338608    1.6037661874    0.1003312314
 H   -0.5260504889    1.3863152662   -1.5304171353
 H    1.7495898808    1.8491715900   -0.4869374090
 H    0.9482403927    2.0630327697    1.1330058071
 H    0.8742090701   -0.4902995089   -0.6261349168
 H   -0.4366954503    0.1257255803    2.1093049417
 H   -1.4733976873   -2.1606377540    1.9531808450
 H   -0.6866783561   -2.4011488990    0.3205317262
 H    0.8151374018   -1.8119845947    2.9707115117
 H    3.9620381414   -1.7888411118    1.0348131453
 H    3.2229640720   -1.5835759426    2.6980838160
 H    2.1548788788   -3.8254884824    2.5841043893
 H    2.8470457610   -4.1316651939    0.9156310846