20

 O   -0.1065169518    1.4683081058   -0.0813914900
 C    0.0049161414    0.0482165643   -0.0363911581
 C   -1.3988445469   -0.5524572277    0.0479486733
 C   -2.4879644980   -0.1466846512   -0.8836731013
 N   -1.8385303422   -1.4461781467   -1.0403264010
 C   -0.8273109152   -1.6203936354   -2.0930754516
 C   -0.0739916020   -0.3263054307   -2.5320619062
 C    0.7686152355   -0.5135816337   -1.2481656201
 C    0.4894048528   -2.0397279620   -1.3811842513
 H    0.7856773681    1.8318144967   -0.1018497106
 H    0.5446332139   -0.2537041773    0.8754211077
 H   -1.6881472567   -0.8924569062    1.0390750368
 H   -3.5185731385   -0.1914784545   -0.5418879159
 H   -2.2858073981    0.6494694296   -1.5914361632
 H   -1.2433077923   -2.2622261975   -2.8723191823
 H    0.5142991761   -0.5241068103   -3.4320432716
 H   -0.6143067932    0.6121487515   -2.6632903478
 H    1.8076312416   -0.1682034540   -1.2435472771
 H    0.3858334435   -2.6365409550   -0.4707577472
 H    1.1940433623   -2.5210521358   -2.0629751024