15

 C   -0.0241499067    1.4739917284    0.1232563342
 C    1.2910435645    0.7441353937    0.0309932101
 O    1.9772054551    0.4088926558    1.2276861300
 C    1.1600460283   -0.4348606583    1.9089732743
 N    1.2287671020   -0.9614586399    3.0925442727
 C    0.0467676218   -1.6957379749    3.1691178980
 C   -0.7134412711   -1.5717606630    2.0354407120
 N    0.0408476581   -0.7526662806    1.2050341390
 C   -0.0121381663   -0.0361277520   -0.0294673237
 H   -0.3340258106    1.8844756206    1.0777812800
 H   -0.3019924849    2.0565372472   -0.7484133031
 H    1.9634164055    0.8846685875   -0.8041799610
 H   -0.1792718751   -2.2783378085    4.0489162105
 H   -1.6632962756   -1.9830228600    1.7411210469
 H   -0.3909073949   -0.5465516460   -0.9060847700