19

 C   -0.2149926936    1.4930194217    0.0899341689
 C   -0.0146208127   -0.0025028423    0.0150170721
 C   -0.1344222476   -0.6369842669   -1.1788995940
 C   -0.0094382243   -2.0393632274   -1.6004296797
 O   -0.0140888754   -2.3328282096   -2.7904497342
 N    0.1225757240   -3.0434209252   -0.6607042959
 C   -0.1270991942   -2.9560134095    0.7589488510
 C    0.7475677385   -1.9038070517    1.4502769841
 N    0.2592827252   -0.5573070438    1.2386315485
 H    0.7085972181    1.9947420823    0.4046213243
 H   -0.5141833882    1.9001898599   -0.8752464919
 H   -0.9890848554    1.7419341313    0.8256023791
 H   -0.3475713564   -0.0072541511   -2.0333318283
 H    0.1242636032   -3.9582690372   -1.0851746035
 H   -1.1813042106   -2.7457060846    0.9926767672
 H    0.1120197048   -3.9330057094    1.1887105013
 H    0.7385466247   -2.0833347737    2.5298860379
 H    1.7810326521   -2.0271760820    1.0938777427
 H    0.4523905779    0.0977488692    1.9776054803