18

 C   -0.0991365049    1.4498739228    0.0287626680
 C    0.2849671555   -0.0152598199   -0.0221788826
 O    0.1610643012   -0.5473398250    1.3145564003
 C    0.5013930723   -1.8269974822    1.4686049792
 C    1.3622481175   -2.4571944105    2.3068606434
 C    2.2943447979   -1.8720883796    3.3113717926
 N    1.2387004959   -3.8334721681    2.0941811282
 C    0.3510355597   -3.9479891112    1.1664908101
 O   -0.1634035598   -2.7727338547    0.7233759714
 H    0.5604715894    2.0000840608    0.7052894130
 H   -0.0205054201    1.8911203276   -0.9690722082
 H   -1.1282638025    1.5655302951    0.3794633467
 H   -0.3722498039   -0.5777688413   -0.6944695748
 H    1.3204211415   -0.1506730160   -0.3606762830
 H    2.0437175110   -2.2046339476    4.3245620373
 H    3.3273775644   -2.1785998320    3.1157454641
 H    2.2439188289   -0.7807556448    3.2863315207
 H   -0.0232814040   -4.8450712034    0.6988991937