16

 N   -0.0195203991    1.1935676983    0.4498755639
 C   -0.0184193813    0.0152091739    0.0060087704
 C   -1.2352037684   -0.8564797334   -0.1969319635
 C   -0.6732707915   -2.1601941332   -0.7457746660
 O   -1.2715802838   -3.1573746439   -1.0598764646
 C    0.8060987652   -1.9682425639   -0.8259735023
 C    1.7611883343   -3.0982295287   -0.5424466059
 C    1.6167609494   -2.5704053549   -1.9438615696
 O    1.1179319932   -0.6670562662   -0.3680375917
 H    0.9309631401    1.5653297511    0.4919508149
 H   -1.7747608908   -1.0225517928    0.7397977980
 H   -1.9434867529   -0.4057721444   -0.8979030916
 H    2.6564596476   -2.8342640474    0.0084860142
 H    1.3162743440   -4.0572597992   -0.3012265405
 H    1.0723061019   -3.1656532177   -2.6685158204
 H    2.4147832421   -1.9510257676   -2.3366018052