20

 N   -0.1001406303    1.3147191069   -0.1828814392
 C   -0.0203595224    0.0727286474    0.0479223930
 C   -1.2552437233   -0.8030460542    0.0677815084
 C   -1.1535380122   -1.9500199236    1.0569807803
 C   -1.7213358826   -1.7741628174    2.4458557266
 C   -2.3996191725   -2.6905361051    1.4511273727
 C    0.1596875708   -2.6855309152    0.8854364403
 C    1.3070085857   -1.6931581229    1.0399694921
 O    1.1899832231   -0.5548879816    0.1712763523
 H    0.8376566950    1.7229042088   -0.1974545487
 H   -2.1196252184   -0.1638121219    0.2551373174
 H   -1.3719585692   -1.2157205334   -0.9451822057
 H   -1.1971004826   -2.2292015196    3.2802253610
 H   -2.2057220231   -0.8341217908    2.6873956772
 H   -3.3430492415   -2.3687179275    1.0220935599
 H   -2.3284118627   -3.7611344279    1.6141861566
 H    0.2744891163   -3.4831866335    1.6275719223
 H    0.2046904712   -3.1509881988   -0.1078888253
 H    1.3549483612   -1.3357110490    2.0778357899
 H    2.2705402876   -2.1438381608    0.7897634490