19

 C   -0.1470971364   -1.2058065032   -0.0314581154
 C   -0.0940346083   -0.0050467815   -0.0276731085
 C   -0.0002542823    1.4491880498   -0.0202502181
 C    1.4543829878    1.9510660641    0.0569197785
 C    1.5273990215    3.4665356631    0.0340163870
 O    0.8263268096    4.0223317540    1.1406520111
 C    1.5906058171    5.1127914069    1.6487771218
 C    2.7878297076    5.2025223922    0.6863229395
 O    2.8631344630    3.8910948498    0.1500727415
 H   -0.2071268545   -2.2656761850   -0.0349908476
 H   -0.4805001471    1.8495735583   -0.9233065066
 H   -0.5604221287    1.8554114200    0.8294396610
 H    1.9275898522    1.5987846206    0.9778652043
 H    2.0326922778    1.5615645195   -0.7865502753
 H    1.0859467377    3.8692395927   -0.8992204200
 H    0.9879053439    6.0279312517    1.6570483093
 H    1.9041140411    4.8875636633    2.6752152871
 H    2.6049048983    5.9407864972   -0.1091399937
 H    3.7355641196    5.4340533566    1.1762230843