20

 C   -0.0755395009    1.4769108690    0.0277806340
 C   -0.0148323021   -0.0301211177   -0.0318815058
 C    0.2730635234   -0.7031731030   -1.3718572293
 C    0.7423076524   -2.1046881955   -1.0167586528
 C    1.1023442615   -2.1556733121    0.4331869584
 C    0.6360971344   -0.8618192625    1.0658517611
 C   -0.8742399605   -0.8488795431    0.9033611677
 C   -1.2904529810   -2.2204022603    0.3952013919
 N   -0.0712348698   -2.8981660972   -0.0790037667
 H    0.8558376406    1.9281930418   -0.3338589375
 H   -0.8944173277    1.8669656704   -0.5884510418
 H   -0.2399535430    1.8255679623    1.0525161797
 H   -0.6031176558   -0.7098856958   -2.0334648046
 H    1.0720574947   -0.1714449490   -1.9036905038
 H    1.2517258059   -2.6925702763   -1.7758069514
 H    1.9253118456   -2.7262197148    0.8480952068
 H    1.1457533041   -0.4244993036    1.9145385876
 H   -1.5063736558   -0.3250889422    1.6140837433
 H   -1.7249823660   -2.8204852256    1.2025887122
 H   -2.0262501400   -2.1767839447   -0.4165951791