12

 C   -0.0668786919    1.5452136644   -0.0526750926
 C   -0.0317959736    0.0397143120    0.0589617200
 O    1.2237399987   -0.6057574606   -0.1630248803
 C    0.6866485738   -0.6725325084    1.1552466159
 C    1.3730320921    0.0740342734    2.1867224917
 N    1.9060276551    0.6608347521    3.0272554414
 C   -1.1729437693   -0.6585809402   -0.5159178620
 N   -2.0935911140   -1.1881562027   -0.9701461309
 H    0.8013228719    1.9800422637    0.4452499003
 H   -0.0575691234    1.8367571019   -1.1061884271
 H   -0.9783764426    1.9373726473    0.4065352315
 H    0.3310444931   -1.6534580928    1.4636794519