21

 C    0.0735611317    1.3676374742   -0.2700377352
 C    0.0945968399   -0.1027133293    0.1712772036
 C    0.7049298658   -0.2689110450    1.5702052146
 C   -1.3021365658   -0.6930624453    0.1254776418
 C   -1.9393204312   -1.2097752639   -1.1508381762
 O   -1.0609295694   -1.4750490194   -2.2255117535
 C   -0.5615598112   -2.7787627403   -1.9832918772
 O   -0.4954617891   -2.9408034441   -0.5772046787
 C   -1.5670742456   -2.1746864137   -0.0657608728
 H    1.0821182451    1.7940667619   -0.2554508647
 H   -0.3226708117    1.4668790173   -1.2850040935
 H   -0.5513243496    1.9728021881    0.3979267705
 H    0.7156162185   -0.6593210815   -0.5367865134
 H    0.7542140645   -1.3244564256    1.8537547591
 H    1.7201763007    0.1401784294    1.6042982647
 H    0.1104590797    0.2574027135    2.3268300006
 H   -2.0146192542   -0.2130457754    0.7967733114
 H   -2.9545004323   -0.9600990913   -1.4407390540
 H   -1.2331434553   -3.5349180747   -2.4253040385
 H    0.4446497391   -2.8623056211   -2.4027711406
 H   -2.2730048992   -2.7266286239    0.5457888719