14

 O   -0.0259391427    0.0386881835    0.1276854113
 C    0.0497171854    1.2399728628    0.2644194643
 N    1.2138763157    1.9357900216    0.1724897636
 C    2.4929773560    1.4555076330   -0.3601373297
 C    2.8740235923    2.9292539330   -0.5731054974
 O    3.8202549309    3.5131669692   -0.9855841454
 C    1.4719407800    3.3830242030   -0.0077447402
 C    0.6070967797    4.1049482412   -0.9175153584
 C   -0.0960038868    4.7018952356   -1.6878334204
 H   -0.8128400883    1.8932629894    0.4942714454
 H    3.1205038428    0.9125609773    0.3547797493
 H    2.4032588070    0.8637344076   -1.2786578274
 H    1.5779563521    3.9208905891    0.9438373461
 H   -0.7197210740    5.2300126537   -2.3669110711