23

 C   -0.0573258319    1.5737571389   -0.2366212524
 C   -0.0251519337    0.0438575329   -0.2015040273
 O    0.9941480358   -0.4053596113    0.6905608561
 C   -1.3964076870   -0.5842135224    0.1508472343
 C   -2.5152814954   -0.0428975113   -0.7187478107
 C   -2.9343124307   -0.9329843263   -1.6169598488
 C   -2.2095719404   -2.2480540780   -1.4807204750
 C   -1.5274444933   -2.1274502358   -0.0919087226
 C   -0.2835562664   -3.0020751653    0.0648430372
 H    0.9549088151    1.9577618463   -0.3890762752
 H   -0.6963898272    1.9489590621   -1.0404473922
 H   -0.4367709297    1.9785115405    0.7110400629
 H    0.2898586083   -0.3236249946   -1.1854752818
 H    0.7722539977   -0.0769771156    1.5691250815
 H   -1.5706951939   -0.3516821399    1.2131218227
 H   -2.8850447660    0.9724666601   -0.6302339256
 H   -3.6926513407   -0.7501378395   -2.3708265137
 H   -2.8759596029   -3.1167753598   -1.5357549104
 H   -1.4723101507   -2.3784131947   -2.2872610755
 H   -2.2698311279   -2.4693894401    0.6405693422
 H    0.4999232041   -2.7346780412   -0.6499964484
 H    0.1505843857   -2.9184717291    1.0635237609
 H   -0.5472271590   -4.0518599057   -0.1083307981