15

 O   -0.0575810350    1.3918923448   -0.0472241785
 C   -0.0283336769    0.0201104886   -0.0712677584
 C    0.9269087410   -0.8069301760    0.8427193796
 C    1.6152336120   -1.5185345028   -0.3108919816
 C    0.4952516686   -2.2117057736    0.3993370592
 N   -0.5443702924   -1.9543765003   -0.6564116801
 C    0.4948488793   -0.9564624642   -1.2197992539
 C   -1.3000807656   -0.7996302327   -0.1176509943
 N   -2.5195836124   -0.5788992129    0.0571150111
 H    0.8266179560    1.7219580891    0.1447891867
 H    1.2792071285   -0.5732156917    1.8387388120
 H    2.6440581381   -1.8038282455   -0.4771119542
 H    0.4792832223   -3.0861264648    1.0360630030
 H    0.4872287892   -0.7541374220   -2.2876314792
 H   -3.0650198226   -1.4150013561   -0.1693076315