17

 C   -0.0253682274    1.5825276028    0.0108170915
 C   -0.0556394732    0.0782662647    0.0623563723
 O    1.1920422460   -0.6283318492   -0.1756911557
 C    0.6506064849   -0.6843339030    1.1137044926
 C    1.3414139669   -0.2041289729    2.3877360199
 O    0.9333417884   -1.4112173890    3.0677070874
 C    0.3232896065   -1.9645950512    1.8819528181
 C   -1.2206006861   -0.6057619179   -0.5883501914
 O   -2.2305662445   -0.0418949027   -0.9224118934
 H    0.8406024747    1.9753995128    0.5473546691
 H    0.0199656114    1.9265795429   -1.0263358473
 H   -0.9392219065    1.9872834731    0.4537680279
 H    2.4314373842   -0.1157218535    2.3005566198
 H    0.9340950219    0.6969503427    2.8610839096
 H   -0.7355898327   -2.2027442397    2.0350345913
 H    0.8512663501   -2.8520378060    1.5107844732
 H   -1.0656161147   -1.6959668241   -0.7444499749