16

 C    0.0255513690    1.4292359944    0.1599480425
 C   -0.0531072996   -0.0429799054   -0.0660907882
 C    0.6164180267   -0.9440568693   -1.1291767084
 C    0.0002732387   -1.8600541915   -0.0527631452
 O    0.5207005336   -0.9505543845    0.9969406739
 C    0.1433657567   -3.2805026663    0.1311982145
 N    0.2243178093   -4.4271841357    0.2523800716
 C   -1.3028436268   -0.9837579895   -0.0788207074
 O   -2.1223403295   -0.9960360783    1.0269388247
 H    1.0599017553    1.7419305298    0.3281372170
 H   -0.3629048066    1.9630171070   -0.7128870743
 H   -0.5745590346    1.7118315868    1.0300906110
 H    0.1834253166   -0.9724805293   -2.1315644025
 H    1.7054996211   -0.9260698621   -1.1263865077
 H   -1.9124826142   -1.0192693317   -0.9836729940
 H   -1.5290114458   -0.9832629544    1.7934073026