16

 N    0.1286777884    1.4844352024    0.0760662842
 C    0.0743254330    0.0860831619    0.0242995023
 C   -1.0165257692   -0.7280662574    0.1071815274
 O   -0.6269075734   -2.0443701953    0.1020843393
 C    0.7263338635   -2.0618696896    0.0036692184
 C    1.3819047063   -3.4001367317    0.0202745700
 C    1.5410087604   -3.9388858882    1.4400620036
 O    2.5530414310   -4.4254860399    1.8684931534
 C    1.2116122547   -0.7902931103   -0.0386212358
 H    0.8568519543    1.8701102318   -0.5107581084
 H   -0.7529209509    1.9254247346   -0.1508030030
 H   -2.0758377804   -0.5483834566    0.1747651223
 H    0.7605559300   -4.1161097593   -0.5350465391
 H    2.3679364091   -3.3650868062   -0.4478142191
 H    0.6268676891   -3.8431960041    2.0668220757
 H    2.2497997640   -0.5017671323   -0.1023581911