19

 O   -0.0875319583    1.3217786218   -0.5687829007
 C   -0.0122294574   -0.0094068900   -0.0894670837
 C    0.0920233497   -0.1928771363    1.4663918999
 C   -1.0958905615   -1.1952157665    1.4143822747
 C   -1.3898013031   -0.7038457458   -0.0059125104
 C   -2.6539362468   -0.0522910097   -0.4827893449
 C   -2.1666278859   -1.3338071165   -1.1175551052
 C    0.9878931668   -0.7748163917   -0.8288006879
 C    1.8308035973   -1.3772469894   -1.4403797833
 H    0.7922161524    1.5846012038   -0.8589065857
 H    1.0449793807   -0.5500977846    1.8596658105
 H   -0.1809669449    0.7487342048    1.9472706971
 H   -0.7667498285   -2.2380610861    1.4441397408
 H   -1.8857942683   -1.0544212480    2.1557634336
 H   -3.5201697739   -0.0975494341    0.1701421234
 H   -2.5537161916    0.8679953306   -1.0464621245
 H   -1.7459080470   -1.2823750687   -2.1168327282
 H   -2.7022583773   -2.2532941092   -0.9035269121
 H    2.5675756675   -1.9182962944   -1.9812763734