20

 O   -0.3956770211    0.2154405318    0.6499468446
 C   -0.2693624351    1.2935516549    0.1338154413
 C   -1.2201260288    1.9397193420   -0.8782926329
 C   -0.7357986569    3.3858455340   -0.9652562334
 C   -1.3670916374    4.3805486346    0.0530928136
 C   -0.1798663668    5.2477974690    0.5490741437
 C    1.0575177556    4.6761799030   -0.2034073456
 N    0.7068763306    3.3214258229   -0.6290253081
 C    0.8737102286    2.2800776280    0.3837016720
 H   -1.0979128915    1.4130948559   -1.8319793138
 H   -2.2613921687    1.8235638065   -0.5696250852
 H   -0.8377348346    3.7915622006   -1.9775975986
 H   -2.1602011487    4.9744251895   -0.4086483816
 H   -1.8247486337    3.8366670312    0.8862442358
 H   -0.3183507770    6.3109931334    0.3370953250
 H   -0.0586052988    5.1547292302    1.6319350911
 H    1.2629120925    5.2781227448   -1.0967690575
 H    1.9687572165    4.6695728723    0.4000559632
 H    0.7751548016    2.6372810735    1.4253838194
 H    1.8441367538    1.7781553618    0.3082488470