19

 C   -0.0402419951    1.5607106277    0.0945890729
 C    1.5136310625    1.3567440320   -0.0283612784
 C    1.8915732259    0.6872026226    1.3050348908
 C    1.0009055846   -0.5415975480    1.1014834061
 C    1.4803784495   -1.2791157442   -0.1576200545
 O    0.3414353803   -2.0897764546   -0.5546337778
 C   -0.8049469223   -1.2016419593   -0.3945954422
 C   -0.0503223252    0.0297919871    0.0375555981
 C    1.2298358133    0.0573428135   -0.8732094901
 H   -0.4280000335    2.0711876696    0.9821132088
 H   -0.4664338860    2.0077540436   -0.8079495015
 H    2.1510564409    2.1546612886   -0.4082378435
 H    2.9556768291    0.4409801031    1.3811063008
 H    1.6122549843    1.2861602482    2.1774082354
 H    0.6617631242   -1.1141839775    1.9650583452
 H    2.3734806165   -1.9023875851   -0.2221075271
 H   -1.3305091217   -1.0973975346   -1.3504664623
 H   -1.4907292250   -1.6209359018    0.3509602088
 H    1.1362170576    0.1303082492   -1.9562836795