14

 C    0.0061766801   -1.2274774396   -0.0311727075
 C    0.0051509350   -0.0245396093   -0.0210033820
 C   -0.0153148684    1.3921064954    0.0095255377
 C    0.2489998189    2.2781324885   -1.1950328978
 C    1.1327037361    2.4369933517    0.0035839753
 O    0.5022245018    3.2334549005    0.9970101183
 C   -0.5705767967    2.2624082207    1.1429143035
 C    2.5507818193    2.2837586853    0.0193871626
 N    3.6997356493    2.1482670019    0.0224548155
 H    0.0164653712   -2.2895801515   -0.0415066475
 H    0.6868659985    1.7563050249   -2.0384589428
 H   -0.4303692318    3.0911699965   -1.4351132412
 H   -1.5582739590    2.7074842285    0.9883376619
 H   -0.5138846943    1.7745355465    2.1195249539