23

 C    0.0755228642    1.6035909675    0.1110077310
 C   -0.1867432160    0.1066638773   -0.0934737599
 C    0.5982274652   -0.4806218092   -1.2603264298
 C    2.1014138168   -0.7995264233   -1.1008866542
 C    1.8327183144   -2.1495315011   -0.3500493388
 C    2.7451785430   -2.9435083125   -1.3047643622
 C    2.0536655057   -1.9054407255   -2.2079100066
 C    0.6880550048   -2.0186046844   -1.4312991566
 C   -0.4257033596   -2.9960224090   -1.6946486143
 H    1.1328833810    1.7957163962    0.3227692714
 H   -0.1900511697    2.1763389052   -0.7846567848
 H   -0.5091345463    2.0020864267    0.9461451408
 H    0.0566583982   -0.4370989642    0.8281559067
 H   -1.2597770898   -0.0521960247   -0.2664578876
 H    0.3552073217    0.0531468821   -2.1911982945
 H    2.9394270148   -0.1247201997   -0.9160363621
 H    1.6970687990   -2.2801743197    0.7247372972
 H    3.8244636259   -2.8273931922   -1.1607938369
 H    2.4962530430   -3.9965238991   -1.4727446152
 H    2.1617643851   -1.7372507051   -3.2816521769
 H   -0.0472742363   -4.0215810973   -1.7701111801
 H   -1.1701035070   -2.9746498735   -0.8906739946
 H   -0.9425263583   -2.7610075344   -2.6321899322