18

 C   -0.1136824100    1.6424314030   -0.0541907847
 C   -0.0057614490    0.1435205671    0.0914943325
 C   -1.2926579258   -0.6724056318   -0.0245239686
 C   -0.9812154009   -1.9300426939    0.8070326645
 O   -0.1259581960   -1.4796881662    1.8616345271
 C    0.7157723952   -0.4969916166    1.3159048514
 C    1.7301583706   -0.9645211135    0.2707269040
 N    2.7972651013   -1.6206138842    0.3032310359
 O    1.0505516655   -0.4026078864   -0.7916003834
 H    0.8619491644    2.1171184848    0.0830277329
 H   -0.4849973853    1.9100717323   -1.0485193995
 H   -0.8065939189    2.0474640090    0.6896999913
 H   -2.1189950980   -0.1120124596    0.4238037405
 H   -1.5431953039   -0.8937590915   -1.0645262951
 H   -1.8590612440   -2.3880836776    1.2664227913
 H   -0.4695836689   -2.6866063734    0.1960143735
 H    1.1012499946    0.1348077885    2.1164445520
 H    3.1890796391   -1.7418121501   -0.6333206454