16

 O    0.3349433287    1.2289904148    0.2012516072
 C    0.1037522955   -0.1346743802   -0.0572984290
 C   -1.3991838368   -0.4445816027   -0.0279623868
 N   -2.0156113174    0.1077522541    1.1921929843
 C   -3.4089123558    0.5007954349    0.9396198151
 C   -3.4362849313    0.8664547144   -0.5354940117
 O   -4.2743844142    1.4810951715   -1.1329840331
 C   -2.1576695267    0.2416234058   -1.1585641520
 O   -1.8636465475    0.2749670972   -2.3202841672
 H   -0.2439927787    1.4456213474    0.9462714211
 H    0.4902309935   -0.3599596805   -1.0561345324
 H    0.6232974633   -0.7852373089    0.6662545561
 H   -1.5529875675   -1.5319768831   -0.1479004184
 H   -1.9311617151   -0.5202067142    1.9809175921
 H   -4.1401340704   -0.3117276470    1.0944250861
 H   -3.7167305794    1.3451863365    1.5633264386