16

 C   -0.0071809639    1.4958911562   -0.0084961786
 C    1.4271523101    2.0424147725    0.0587504367
 O    2.1227731781    1.6719202507    1.2610205165
 C    1.9326953711    0.3684268882    1.5443489449
 C    1.0005413427   -0.4433009179    0.9879737924
 C   -0.0386385723   -0.0534357356    0.0054838015
 O    1.1616199268   -1.6827618555    1.5624611274
 C    2.1854955393   -1.5119168904    2.4299143625
 N    2.6894143955   -0.3174596231    2.4684113977
 H   -0.5688549608    1.8792354635    0.8500231222
 H   -0.4854207310    1.8841696226   -0.9128394113
 H    2.0076091219    1.6813027878   -0.8023845322
 H    1.4301859195    3.1340921100    0.0464615974
 H   -1.0336783321   -0.4104259932    0.2950112294
 H    0.1625343807   -0.4598383181   -0.9949833706
 H    2.4862818144   -2.3762405277    3.0003059441