17

 N   -0.1373168295    1.1134657919    0.6357874926
 C   -0.0473778124   -0.0578362990    0.1349145451
 N   -1.1518299746   -0.8702880886    0.0075069493
 C   -1.2251274914   -1.9661451017   -0.9157337139
 C   -0.7217956004   -1.8332279678   -2.3390382666
 C    0.0566975618   -2.6354228628   -1.3145901224
 C    1.3439992330   -2.1095217029   -0.7151531342
 C    1.2938506827   -0.6475816418   -0.3062711422
 O    2.2808646894    0.0488444890   -0.2827713574
 H    0.8025821854    1.5122868710    0.6774093768
 H   -2.0180661842   -0.3820691432    0.1924582858
 H   -2.0947701305   -2.5883258502   -0.7362966187
 H   -1.2333055866   -2.3707096561   -3.1298246615
 H   -0.3318396265   -0.8633734403   -2.6333738701
 H    0.0256864075   -3.7143572677   -1.4272149162
 H    1.5656044798   -2.6676597786    0.2069112553
 H    2.2049073969   -2.2478436112   -1.3762601816