16

 C   -0.1802161323    1.4555527132    0.0116575854
 C    0.0747469010   -0.0321247664    0.0014138590
 O    1.1549004044   -0.5636951313   -0.0122904671
 O   -1.0925016010   -0.7157809182    0.0091288325
 C   -0.9756985453   -2.1471305909    0.0002479385
 C   -2.4010514067   -2.7030704364    0.0101193217
 C   -2.4105153448   -4.1599701231    0.0025662066
 C   -2.3895276405   -5.3611721289   -0.0043529956
 H    0.7711476529    1.9858192426    0.0040073658
 H   -0.7743607395    1.7407267812   -0.8611537827
 H   -0.7550789469    1.7317597070    0.9001368158
 H   -0.4277699621   -2.4684406756   -0.8898230410
 H   -0.4118240692   -2.4780789329    0.8767341361
 H   -2.9262631552   -2.3252453198    0.8955157922
 H   -2.9420247509   -2.3158742062   -0.8616470027
 H   -2.3828850441   -6.4228736843   -0.0108606746