15

 C    0.0554757451    1.5086053154   -0.0386842191
 C   -0.0319878572    0.0160657583    0.0389685711
 O    0.4122176832   -0.7215783499   -1.1444324850
 C   -0.2887028057   -1.8852881397   -0.6353102966
 C    0.4477163153   -2.1684784949    0.6917739111
 O    1.7435379256   -1.5768277990    0.7518949858
 C    0.6325699468   -0.7921651544    1.1820248614
 C   -1.3431918171   -0.8359140652   -0.1430267711
 O   -2.5183547257   -0.6788717646   -0.1191290129
 H    1.0970201101    1.8273923282   -0.1419514032
 H   -0.5165932833    1.8877764529   -0.8889684189
 H   -0.3498465044    1.9523404214    0.8759012131
 H   -0.4720115946   -2.6684003498   -1.3661055840
 H    0.2561268310   -3.0424932126    1.3026627277
 H    0.6048871910   -0.4749959762    2.2181667304