23

 C   -0.1217342370    1.5873487898    0.0168789897
 C   -0.0422009355    0.0589267171    0.0020045688
 C    0.7380395047   -0.4904732578   -1.1969686938
 C    0.7673500608   -2.0220352317   -1.2602325414
 O   -0.5512383776   -2.5716482688   -1.3068676333
 C    1.6248562523   -2.5386998678   -2.4214584354
 C    1.7008946711   -4.0777311704   -2.4583128301
 C    2.4620351226   -4.5828619570   -3.5935073588
 C    3.0936651217   -4.9723363884   -4.5394684154
 H    0.8762689116    2.0387403899    0.0523924336
 H   -0.6220869656    1.9677674198   -0.8809531557
 H   -0.6807204061    1.9484019108    0.8857609838
 H    0.4306656871   -0.2939841826    0.9280844169
 H   -1.0491643153   -0.3716473872   -0.0053873934
 H    0.2988777590   -0.1083918492   -2.1318954460
 H    1.7699783798   -0.1157150083   -1.1745328584
 H    1.1803612606   -2.4069470215   -0.3175696943
 H   -0.9804732563   -2.2271173494   -2.0988799832
 H    1.2097773845   -2.1738850103   -3.3706284079
 H    2.6354517410   -2.1222222741   -2.3451990738
 H    2.1508537446   -4.4411094491   -1.5247571711
 H    0.6819120913   -4.4798740402   -2.4772700853
 H    3.6493662107   -5.3310548837   -5.3697673255