20

 C   -0.1998263969    1.6333488680   -0.0862240052
 C   -0.0478553220    0.1104717475   -0.0445726138
 C    0.6185611482   -0.4424318118   -1.3075023269
 C    0.7886822619   -1.9748610244   -1.2955272507
 C   -0.4968851759   -2.6730626489   -1.2818812370
 N   -1.5177102690   -3.2161625382   -1.2887373722
 C    1.7080424367   -2.4812613137   -2.4480183599
 C    1.6595421778   -3.9565507356   -2.7710589145
 O    2.4431202384   -1.7089225232   -3.0079896682
 H    0.7726838997    2.1271530451   -0.1878539030
 H   -0.8199082846    1.9452795752   -0.9335409487
 H   -0.6714280052    2.0078182758    0.8270282451
 H    0.5461486226   -0.1760814412    0.8337999358
 H   -1.0325278660   -0.3542902519    0.0865124387
 H    0.0403237554   -0.1605577587   -2.1947514840
 H    1.6152085299   -0.0131545665   -1.4407264766
 H    1.3153605691   -2.2663345704   -0.3725334900
 H    1.7359971038   -4.5596461644   -1.8600086303
 H    0.6951393529   -4.2036537119   -3.2276285085
 H    2.4672978833   -4.2058678508   -3.4593183002