16

 O    0.4250335949    1.6096434274    0.0061401954
 C    0.1327893550    0.2193824526   -0.0941265568
 C    0.7508492431   -0.3968251674   -1.2667093518
 C    1.3140129562   -0.8767365117   -2.2136970218
 C    0.5562742607   -0.4818536233    1.2017485949
 C   -0.2279148497   -0.0985007403    2.4705085084
 C   -0.6843300442   -1.5421512044    2.4293513115
 N   -1.4232117983   -2.2626336146    3.1378227634
 O    0.0341896190   -1.8449934960    1.2827827623
 H    1.3445202479    1.7359491319   -0.2527460631
 H   -0.9590178158    0.1465775630   -0.1738647229
 H    1.7897746870   -1.3098302769   -3.0591900294
 H    1.6461081256   -0.4850742002    1.2976326959
 H    0.3687183058    0.1688826899    3.3432050233
 H   -1.0146542923    0.6440223494    2.3274016593
 H   -1.4757309250   -3.2152633492    2.7729926114