23

 C    0.0614784947    1.5622775611    0.1836326524
 C   -0.0003682790    0.0468786357   -0.0776674132
 C   -1.4009820928   -0.5161244026   -0.0693010790
 C   -2.0237172598   -0.9135319279   -1.1795554983
 C   -3.4079137568   -1.5003479948   -1.1752721971
 O   -3.8727450753   -1.8355910135    0.1164007102
 C   -3.6216635252   -0.8182712703    1.0786819753
 C   -4.3362597777   -1.2275040122    2.3574930310
 C   -2.1107845592   -0.6297425166    1.2621611444
 H    1.0974874925    1.9152192406    0.1755468752
 H   -0.4910904541    2.1113177039   -0.5852628948
 H   -0.3682870173    1.8256723861    1.1551942034
 H    0.4696636071   -0.1701008322   -1.0433484124
 H    0.6010395867   -0.4684915195    0.6845663428
 H   -1.5396390080   -0.8265727726   -2.1501734017
 H   -4.1121101281   -0.8041626559   -1.6702647496
 H   -3.4306590610   -2.4306429698   -1.7563777124
 H   -4.0455020257    0.1337202016    0.7123073069
 H   -3.9503781156   -2.1868167009    2.7164971629
 H   -4.1870573031   -0.4775473606    3.1404172279
 H   -5.4091426592   -1.3363347503    2.1779286348
 H   -1.6995654716   -1.4758939356    1.8321422311
 H   -1.9291931113    0.2644148163    1.8721278900