21

 O   -0.0302139714    1.6492270560    0.3987508199
 C   -0.0243780535    0.2604433991    0.0768877619
 C    0.7331628305   -0.5962139577    1.1253417077
 C   -0.3541682626   -1.3464309604    1.9463598237
 C   -1.6908009753   -0.7053889420    1.5196153780
 C   -1.4503583181   -0.3263143036    0.0574683668
 C   -2.5046713481    0.4586785420   -0.7437791272
 O   -2.5797792085   -0.5743578518   -1.7515316493
 C   -1.6926800177   -1.4277585269   -1.0073074215
 H   -0.3355927600    1.7502537029    1.3065066403
 H    0.4395471289    0.2174150737   -0.9123775260
 H    1.4199530274   -1.2970816078    0.6428222303
 H    1.3476969179    0.0648976318    1.7434335640
 H   -0.3580905884   -2.4092939701    1.6828821468
 H   -0.1851706830   -1.2923320317    3.0248308226
 H   -2.5519418095   -1.3659988283    1.6550799479
 H   -1.8936625802    0.1995010190    2.1099732595
 H   -3.4672865596    0.6004189403   -0.2335248931
 H   -2.1668832667    1.4181555174   -1.1494639508
 H   -0.8221030951   -1.7370528726   -1.6011252623
 H   -2.2027332570   -2.3269016293   -0.6332351790