17

 O    0.1228401678    1.3933878691    0.0545015151
 C    0.0145768600   -0.0122851802   -0.1611591896
 C   -1.4132951402   -0.4544091658   -0.0409879939
 C   -2.0231989539   -0.9772355513    1.2020512178
 N   -1.8612792287   -1.9062014842    0.0677070585
 C   -3.0062786530   -1.5768027506   -0.8613958825
 C   -2.5051420807   -0.1317467216   -1.0651842210
 O   -3.4488808647    0.8673742343   -0.7566633430
 H   -0.1595908151    1.5663053793    0.9591354623
 H    0.3868571572   -0.1809063191   -1.1774828551
 H    0.6532803249   -0.5886911209    0.5241509002
 H   -1.3539919444   -1.2008993724    2.0283545113
 H   -3.0233868641   -0.6616525545    1.4892863499
 H   -2.9650052609   -2.2008013035   -1.7553149154
 H   -3.9913358862   -1.6648289685   -0.3939511001
 H   -2.0754533464    0.0199659191   -2.0646148566
 H   -2.9990465519    1.7183080608   -0.8049066479