13

 N    0.0143645195    1.3109918974    0.0092411685
 N    1.2720347577    1.8261891287    0.0002006278
 C    2.1045172218    0.8017488665   -0.0136149882
 C    1.3870642342   -0.4301299995   -0.0137771509
 C    0.0217511080   -0.0459382107    0.0014331871
 N   -1.0092866336   -0.8890319661    0.0064608796
 C   -0.6233335630   -2.1622499426   -0.0044765509
 C    0.7306750990   -2.5691737649   -0.0197112297
 N    1.7517226405   -1.7198395418   -0.0246072075
 H   -0.7776808778    1.9315350923    0.0203509826
 H    3.1712351713    0.9667500061   -0.0228587742
 H   -1.4096533089   -2.9122516943   -0.0012537790
 H    0.9685864113   -3.6292908110   -0.0280259853