18

 C    0.1245576852    1.3215562776    0.0887600027
 O    0.0038168773   -0.0763881224   -0.1422064656
 C   -1.3046142585   -0.5931549840   -0.0615137894
 C   -2.2537211610   -0.0407955760   -1.1227128234
 C   -1.3171735861   -2.1196647956    0.0492017371
 C   -0.6492801263   -2.5748467043    1.2697026737
 N   -2.0609938730   -2.0814238924    1.3987464470
 C   -1.9493954771   -0.6358628528    1.3584371141
 O   -2.3287447607    0.1730101092    2.1481879318
 H    1.1942190940    1.5269567494    0.1682652671
 H   -0.2842052837    1.9134084767   -0.7407791056
 H   -0.3723611114    1.6219014696    1.0185192800
 H   -1.8095756816   -0.1669954654   -2.1151409310
 H   -3.2112100234   -0.5688423605   -1.0958031407
 H   -2.4540674060    1.0206614604   -0.9587080597
 H   -1.6624704368   -2.7891095243   -0.7289982087
 H   -0.5758165141   -3.6418264968    1.4504227802
 H    0.1504980429   -1.9773614783    1.6956638705