16

 C   -0.0206430440    1.5237304026   -0.0174475490
 C   -0.0494144538    0.0247826959    0.0100766008
 C   -1.1745797628   -0.7197813180   -0.1143514312
 C   -1.1433868960   -2.1554047805   -0.0737077637
 N   -2.3354161298   -2.8752385893   -0.2836471680
 C    0.0665164133   -2.7358025578    0.0917199675
 O    1.2145196508   -2.0235808768    0.1895041266
 C    1.2443054634   -0.6382949937    0.1711459450
 O    2.3112956920   -0.0867182126    0.2832948882
 H    0.6216475495    1.8819263548   -0.8287292500
 H   -1.0233353946    1.9378372296   -0.1478177933
 H    0.4109944260    1.9184275749    0.9083960596
 H   -2.1356048467   -0.2307537052   -0.2566743750
 H   -3.1137971031   -2.5069794431    0.2497269183
 H   -2.2400788176   -3.8643984323   -0.0910947720
 H    0.2445761034   -3.8030044484    0.1428525463