17

 C   -0.0183757338    1.5099385642    0.0078437016
 C   -0.0052642008    0.0107149600   -0.0155231245
 C   -0.0313102891   -0.6947147571   -1.1615833109
 O   -0.0208026299   -2.0459500293   -1.2260714871
 C    0.0185103144   -2.7382526466   -0.0644876021
 C    0.0479805168   -2.1717433986    1.1561528610
 C    0.0912825501   -2.9800642901    2.4183497027
 C    0.0376919843   -0.7055792720    1.2679556958
 O    0.0630582848   -0.1249130323    2.3483907605
 H    0.8691373978    1.8904600127    0.5234694840
 H   -0.0518088744    1.9322209510   -0.9999358192
 H   -0.8809677935    1.8743086488    0.5748483413
 H   -0.0635156322   -0.2595738754   -2.1534021687
 H    0.0230632027   -3.8058794011   -0.2495339461
 H    0.0950938977   -4.0539338845    2.2137824712
 H    0.9815409761   -2.7262836517    3.0026225054
 H   -0.7686128911   -2.7419885278    3.0525661552