17

 O    0.0521520022   -0.0888884042   -0.0141732363
 C    0.1101813248    1.1080055917    0.0857953929
 C    1.3750350865    1.9324979713    0.0276397958
 C    1.3498259293    2.9637913686   -1.1436135368
 C    1.9918342915    4.1874667791   -0.5503883352
 C    2.1209262700    4.0982699373    0.7799563637
 C    1.5844847909    2.7886966324    1.3126002258
 C    2.6731625513    5.1498370407    1.6379507689
 O    2.7475690109    5.0689449768    2.8441587321
 H   -0.8137096112    1.7191902244    0.2343799643
 H    2.2139240368    1.2456275773   -0.1053097237
 H    1.8667926361    2.5899253852   -2.0331223442
 H    0.3224179435    3.1959259864   -1.4643368004
 H    2.2798427288    5.0491032497   -1.1442221716
 H    0.6427877420    2.9582122269    1.8528765132
 H    2.2617764094    2.3107840419    2.0244773564
 H    3.0319903474    6.0527699847    1.0957321251