15

 O   -0.4255241659    1.4258187260    0.1172380501
 C   -0.1888922420    0.0566495785    0.0639489877
 C   -0.0819404501   -0.7303337294    1.4317505470
 N   -1.5713180870   -0.5623301967    1.6094706139
 C   -2.2012343622    0.5589255891    2.1272523370
 N   -3.2741590027    1.0171468317    1.6240892203
 C   -1.4752068569   -0.8354722494    0.1246712968
 C   -0.5097858023   -1.9602964718    0.5876545601
 O   -0.2456892015   -3.0997758732    0.4023399811
 H    0.4158064224    1.8736219884    0.2544173845
 H    0.5457761518   -0.2184449927   -0.7068245996
 H    0.6279950571   -0.6280849024    2.2501520281
 H   -1.7229603133    0.9012464670    3.0541196227
 H   -3.6443025991    1.7690500199    2.2017170255
 H   -2.3447982683   -0.8370446150   -0.5239744851