17

 C    0.2280883210    1.5902830919    0.2940167698
 C   -0.0483834444    0.0884755729    0.1131516330
 C    0.6399506941   -0.4848643264   -1.1428597330
 O    1.9414524270   -0.9269196423   -0.7244277841
 C    1.9907655484   -1.1094278388    0.6202380269
 O    2.9645089386   -1.5085683021    1.1858707827
 C    0.6381427398   -0.7370943832    1.2271330561
 C   -1.5480673481   -0.1549007678    0.1137254773
 O   -2.1401388487   -0.8358741308   -0.6831148992
 H    1.3046754167    1.7782891292    0.3499779243
 H   -0.1731054538    2.1697732292   -0.5434318057
 H   -0.2266940816    1.9650130923    1.2169725246
 H    0.0779049495   -1.3310794520   -1.5472729333
 H    0.7795522513    0.2601492959   -1.9288030759
 H    0.7757541809   -0.2035803274    2.1685414447
 H    0.1032752560   -1.6691413861    1.4437489865
 H   -2.0868889869    0.3528371956    0.9461505552