15

 C   -0.0073738974    1.3763654255   -0.0443614561
 O    0.0392477076   -0.0561202967    0.0214710832
 C    0.6651443679   -0.5483411943    1.1044801302
 O    1.1625300982    0.1221863853    1.9763013272
 N    0.6559703992   -1.9418636272    1.0736873647
 C    0.0335291088   -2.6934604404   -0.0161058308
 C    1.2638518527   -2.6311270603    2.1219745954
 O    1.3113452196   -3.8346809746    2.1911137435
 H    1.0023289840    1.7925770262   -0.0627421515
 H   -0.5352210597    1.6082954708   -0.9689474551
 H   -0.5429567704    1.7826138393    0.8166260316
 H    0.5091429902   -2.4554963285   -0.9698308302
 H    0.1700687583   -3.7491427132    0.2150054381
 H   -1.0310568271   -2.4609352045   -0.0860947524
 H    1.6877544180   -1.9434292977    2.8658375624