19

 C   -0.4998182813    1.3409566140   -0.0722495444
 C   -0.0243246415   -0.0968144770    0.0129581799
 O    1.1481903452   -0.3563614970   -0.8076390973
 C    2.0042692082   -0.5786535430    0.3437172307
 C    2.7439194818   -1.9068459651    0.2511635196
 C    2.9161731049    0.5436582916    0.5645668379
 C    3.6270811211    1.4861483465    0.8006460922
 C    0.7523571105   -0.5152606477    1.2917707301
 O    0.7756126913    0.3212477007    2.4050347996
 H    0.2982577085    2.0423139155    0.1860340623
 H   -0.8302177635    1.5644941042   -1.0908925644
 H   -1.3402625914    1.5031377273    0.6100019973
 H   -0.8340086250   -0.7830198727   -0.2640971524
 H    3.4361476397   -1.8985158706   -0.5952338727
 H    3.3152249810   -2.0910434847    1.1659422774
 H    2.0253043812   -2.7179974236    0.1068347427
 H    4.2781359863    2.3072498799    0.9774756909
 H    0.4715299223   -1.5096163854    1.6473552943
 H    1.3363182707    1.0808902670    2.1990522862