21

 C   -0.0148997390    1.5850155083   -0.0136768061
 C    1.4826881528    1.8507555909   -0.0806988867
 C    2.1935673886    0.8240159835    0.3922629190
 C    1.2570579495   -0.2323927537    0.9176066890
 O    1.6529379829   -1.5829584679    0.7905006071
 C    0.6533312500   -2.4150765407    1.3729428985
 C   -0.7447996689   -2.2201366747    0.7574391164
 C   -1.1829214825   -0.7374173880    0.7406644970
 C   -0.0311307615    0.0511613858    0.1287390718
 H   -0.4575082652    2.0799127022    0.8644059406
 H   -0.5618895378    1.9492143281   -0.8897519872
 H    1.8958710076    2.7885167269   -0.4351560942
 H    3.2707140384    0.7723638967    0.4939965738
 H    1.0757915994   -0.0326565297    1.9951923956
 H    0.9943790894   -3.4447253350    1.2335200684
 H    0.6048000519   -2.2204202310    2.4588813532
 H   -0.7302154492   -2.5969318242   -0.2725561517
 H   -1.4609125445   -2.8356893941    1.3139532059
 H   -2.1147993569   -0.6229430833    0.1755988285
 H   -1.3828177767   -0.3879215368    1.7627844687
 H    0.1620583615   -0.3561884233   -0.8735670176