18

 C   -0.0206707445    1.4064300654    0.1983079832
 C    1.4781342361    1.4238420211   -0.0476116724
 C    1.3454204418    0.1110661375   -0.7555672058
 C    2.0084352639    0.1245362771    0.5929871259
 C    0.7925546198   -0.5826258171    1.1498271044
 C    0.8050764165   -2.1054998414    1.3691234270
 O    0.3065589477   -1.9509357230    2.7153917569
 C    0.2204071529   -0.5193234990    2.5745527095
 N   -0.0102322705   -0.0942037871   -0.0364961708
 H   -0.4206734978    1.7170002490    1.1704292726
 H   -0.5873578389    1.8886332889   -0.6020853778
 H    2.1430677672    2.2470336264   -0.2780180447
 H    1.6119519894   -0.2663809335   -1.7316319084
 H    3.0564683830   -0.0064808456    0.8330656724
 H    0.1089354018   -2.6551006397    0.7247776820
 H    1.7896814112   -2.5894336321    1.3501950307
 H    0.8294811201    0.0093256166    3.3185606502
 H   -0.8154721397   -0.1583829636    2.6316400649