20

 C    0.3254177798    1.5092834426    0.1724056077
 C   -0.1218814628    0.0770004132   -0.1404142676
 N    0.6074800654   -0.4562046156   -1.2837495668
 C    1.6068186260   -1.2082570576   -1.1047038027
 C    2.3957215000   -1.7186355534   -2.2914965816
 C    3.1911579103   -2.9564894647   -2.0017664242
 C    3.3384669403   -3.4202842728   -0.7670523312
 C    2.7345553895   -2.7434961711    0.4200393826
 O    2.0810363216   -1.5030658470    0.1459188869
 H    1.3696363909    1.5248984625    0.4995566021
 H    0.2369618832    2.1428205795   -0.7150600819
 H   -0.2896962829    1.9402101711    0.9690334779
 H   -0.0085862696   -0.5469121864    0.7548873509
 H   -1.1844290716    0.0860056144   -0.4103450450
 H    1.6930243554   -1.8764590001   -3.1148415626
 H    3.0661149919   -0.9144068889   -2.6297989408
 H    3.6517416691   -3.4632680411   -2.8448954775
 H    3.9086001677   -4.3209398418   -0.5579964073
 H    2.0097946922   -3.4112540694    0.9115508503
 H    3.5061071437   -2.5172463136    1.1672501208