21

 O    0.2394072476    0.5616944183    1.0885171138
 C   -0.0981466119    0.3670538764   -0.2814918632
 C   -1.4340602432   -0.3478400142   -0.3101970310
 C   -1.9787623532   -1.0268977582   -1.6114817507
 C   -0.9657077820   -2.1929716548   -1.3806570906
 C   -1.5589919131   -1.8735737714    0.0268742823
 C   -2.9279766965   -1.8067045742   -0.6789618390
 C   -4.3056040617   -1.5373127515   -0.1880379336
 C   -3.9751376847   -2.8290477143   -0.9421233126
 H    1.0652186019    1.0529830698    1.1257851834
 H   -0.2019286825    1.3330361238   -0.8033683118
 H    0.6872323531   -0.1980010766   -0.8016210685
 H   -2.1731614202    0.2704181817    0.2089966830
 H   -2.2332160108   -0.5417449146   -2.5560483944
 H   -1.2441622807   -3.1586733477   -1.8084013654
 H    0.0923247532   -1.9838617649   -1.5424984869
 H   -1.3252424623   -2.3592500130    0.9747135410
 H   -4.5083201970   -1.6140048264    0.8758903084
 H   -4.9126825698   -0.7977007362   -0.7014061119
 H   -4.3652938391   -2.9358219429   -1.9498937691
 H   -3.9621633470   -3.7538916592   -0.3731963932