21

 O   -0.0760324700    1.4835251279   -0.1997189355
 C    0.0475562314    0.0822197781    0.0215460311
 C   -1.3589554940   -0.4917677732    0.0100043671
 C   -2.0656199506   -0.6228476079   -1.3721905972
 C   -1.2471623321   -1.9511448647   -1.5538098693
 C   -1.4969031280   -2.0423521500   -0.0053137404
 C   -3.0238417500   -2.2759962362   -0.0090235769
 C   -3.9832400163   -1.1786437368    0.3843872235
 C   -3.4453146646   -1.2236377212   -1.0250434885
 H    0.8044957994    1.8691380169   -0.1745980131
 H    0.6957136411   -0.3754673709   -0.7374388900
 H    0.5038755367   -0.1226912893    1.0045120046
 H   -1.9054356148    0.0471553797    0.7851897979
 H   -2.0334389809    0.1885686073   -2.0986334948
 H   -1.7005343704   -2.7300165030   -2.1732584305
 H   -0.2041786396   -1.8109867726   -1.8419603667
 H   -0.8938535641   -2.6767700410    0.6469967722
 H   -3.3794654000   -3.2992726080   -0.0561478270
 H   -5.0170932669   -1.4961063948    0.4857947934
 H   -3.7154516079   -0.3949717306    1.0822753981
 H   -4.1210432185   -1.4503033399   -1.8422680682