23

 C    0.0372269886    1.4521124359   -0.2727396317
 C    0.0033393805    0.0235750328    0.2864784694
 C   -1.3616431116   -0.6176092509    0.1445766811
 C   -1.8700071096   -1.2806704187   -1.1194613656
 C   -0.8719371455   -1.7583538745   -2.1769632583
 C   -0.0596118330   -2.8121347491   -1.4533174259
 C   -0.4911019309   -2.9997651691   -0.2044570402
 C   -1.6466050321   -2.1148229866    0.1428157846
 C   -2.7639590571   -2.6739488055    0.9942155266
 H    1.0293119741    1.9000487450   -0.1561956606
 H   -0.2153222860    1.4660429102   -1.3382529134
 H   -0.6817921578    2.0984496812    0.2430606450
 H    0.7634228914   -0.5861385849   -0.2107160516
 H    0.2796600218    0.0440336847    1.3492429319
 H   -2.1398550233   -0.0523188445    0.6577972441
 H   -2.8770748067   -1.0383602454   -1.4418483323
 H   -1.3874474995   -2.1770102530   -3.0516613530
 H   -0.2370635646   -0.9478100892   -2.5603125666
 H    0.7880788393   -3.3123589740   -1.9089263646
 H   -0.0667463426   -3.7005557683    0.5073155806
 H   -2.4164091417   -2.9030242522    2.0090488012
 H   -3.5876367669   -1.9585184138    1.0833871556
 H   -3.1679181368   -3.5986488300    0.5660003438