21

 C   -0.1075922009    1.7570144761    0.6491445321
 C   -0.3514749687    0.2703290998    0.6906837270
 O    0.2305866483   -0.5265346112   -0.3563351832
 C    0.6656401016   -0.7549497940    0.9947964387
 C    2.1134646168   -0.4200338184    1.2870989313
 C    0.2019324993   -2.0850207836    1.5583644550
 C    0.7848395821   -3.3142375508    0.8963022898
 C   -0.2750042154   -2.1377179074    2.9489977690
 O   -1.1967014367   -2.1816786533    1.8574038095
 H    0.9304661891    2.0042958808    0.4201821049
 H   -0.7387060009    2.2131557549   -0.1208329352
 H   -0.3743471474    2.2132345056    1.6088647648
 H   -1.3777816924   -0.0144611827    0.9172149137
 H    2.4001807492    0.5317525945    0.8387023469
 H    2.2886068808   -0.3657708798    2.3668295810
 H    2.7765353197   -1.1890896047    0.8784160176
 H    1.8674205444   -3.3760029840    1.0445697436
 H    0.3258277550   -4.2157331821    1.3085253312
 H    0.5886097559   -3.2803188899   -0.1793919884
 H   -0.1791566415   -3.0615542410    3.5183932313
 H   -0.3057218185   -1.2268632089    3.5464521393