16

 O    0.6763248628    0.1747519439   -0.6550557455
 C   -0.2163282399    0.2846706362    0.4372927209
 C   -1.5135791464   -0.4229159901    0.1613430449
 O   -2.5327870300   -0.3623155169    1.2032729849
 C   -2.7735156404   -1.7436026672    1.0461515337
 N   -3.4770956148   -2.5117605367    1.7378944999
 C   -1.8776091210   -1.8835520293   -0.1297169764
 C   -2.1955166966   -0.7358171944   -1.1160860784
 O   -3.4626049855   -0.2916323160   -1.4442225186
 H    0.3785779887    0.7755755620   -1.3456060302
 H    0.2790806896   -0.1746112351    1.2989850281
 H   -0.4274795378    1.3319213969    0.7017022959
 H   -3.9292928788   -2.0166037886    2.5078465216
 H   -1.2783968185   -2.7425365334   -0.3935139445
 H   -1.5506122058   -0.7762917762   -1.9888487319
 H   -3.8840885458    0.0067435350   -0.6276210746