16

 N    0.0986350842    1.4151931872    0.1314226090
 C   -0.0426677038    0.0245315371    0.0411254193
 C   -1.2171476890   -0.6671880549    0.0056848498
 C   -1.1885764330   -2.0904199896    0.0127463960
 C   -0.0130471735   -2.7913921689    0.0214978846
 N    0.1149665236   -4.1749452669    0.0789081254
 C    1.2559735627   -2.0727368050    0.0277761438
 O    2.3599129611   -2.6104882234    0.0118499115
 N    1.1321362047   -0.6861059287    0.0595571289
 H    0.7363584310    1.8024678099   -0.5561543288
 H   -0.7924143155    1.8888734661    0.0653337431
 H   -2.1583958656   -0.1344397520   -0.0322969009
 H   -2.1313580364   -2.6299758003    0.0020445277
 H   -0.6016109345   -4.7014441902   -0.3980389352
 H    1.0546253084   -4.4638723448   -0.1650025528
 H    2.0107766054   -0.1926295156    0.1407943786