16

 O   -0.0943200663    1.4005744454   -0.0674628946
 C   -0.0348910923    0.0124115684    0.0112515666
 C    1.0526749723   -0.5834795676   -0.7412710408
 N    1.9367647809   -1.0468720886   -1.3256654737
 C   -0.4685415036   -0.7490909757    1.2618530801
 C   -1.2303511231    0.0415237799    2.3111330527
 O   -2.2976346451    0.6961629505    1.6439131890
 C   -2.5773293269    0.0545435831    0.4064364904
 C   -1.3423678627   -0.7492041239    0.0334820832
 H    0.6323900963    1.7732768798    0.4448120076
 H    0.1103313963   -1.6127228504    1.5656366890
 H   -1.5985053219   -0.6544018576    3.0813878539
 H   -0.6305224228    0.8110092366    2.8110188819
 H   -3.4337380149   -0.6314334511    0.4952086048
 H   -2.8278518669    0.8333788461   -0.3200894214
 H   -1.4498158393   -1.6143040749   -0.6085908788