17

 O   -0.6732702428    0.9688425662   -0.7696485632
 C    0.0093391793    1.1679298893    0.2005332852
 C    1.3323699592    1.9334357208    0.1457446548
 C    1.5945760845    2.5780282499   -1.2185603172
 C    2.6647647061    3.6580119622   -1.0826386740
 C    2.2062595503    4.6783801622   -0.0550992971
 O    1.9144072595    4.0969641556    1.2317498662
 C    1.4236168851    2.8513667016    1.3734460471
 O    1.1035184877    2.4623432415    2.4657425679
 H   -0.2660388506    0.8067549436    1.2093136459
 H    2.1008273442    1.1722132166    0.3557391380
 H    1.8801658870    1.8099695771   -1.9418516904
 H    0.6636514010    3.0176298898   -1.5931949030
 H    3.6225920306    3.2228939549   -0.7716823172
 H    2.8345756650    4.1697259414   -2.0356579513
 H    2.9694415694    5.4332457591    0.1475629051
 H    1.3022821746    5.1940262982   -0.4035448169