17

 C   -0.1556691985    1.4933925823    0.0386643249
 C   -0.0045687128   -0.0087668816   -0.0300617012
 C   -1.2451393412   -0.9088282933    0.2152320059
 C   -0.3809476066   -1.6820725358    1.2433077979
 N    0.7804926382   -0.7485330867    1.0584952496
 C    1.7637121182   -1.2638757544    0.0577170336
 C    0.9865437515   -0.5637604656   -1.0729542513
 O    1.1074804204   -0.4557685627   -2.2569040068
 H    0.8191450911    1.9902554009    0.0619655723
 H   -0.6997626875    1.8526111330   -0.8415952081
 H   -0.7110917526    1.7856860441    0.9351744163
 H   -2.0830622350   -0.3610799950    0.6526121553
 H   -1.6099116266   -1.4703378859   -0.6472818725
 H   -0.7555004219   -1.6674671819    2.2701169958
 H   -0.1552532468   -2.7203752779    0.9759534538
 H    2.7692311335   -0.8550491324    0.2092858521
 H    1.8418494465   -2.3546858971   -0.0151664674