19

 C   -0.0273021975    1.5350293163    0.0701970496
 C    1.2707142511    0.7474015740   -0.0538211342
 C    2.2639452125    0.7222705954    1.1063928133
 C    2.5521058622   -0.6924407997    1.5781747581
 O    2.4770238263   -0.9431369886    2.9875182004
 C    1.4519330963   -1.4811480510    2.1428130788
 C    0.0731893058   -0.8521466806    2.2348485446
 O   -0.5669659143   -0.8161802860    0.9706360056
 C   -0.0645688848    0.0333737183   -0.0265318430
 H   -0.2148432142    1.9787558238    1.0434348438
 H   -0.3936852217    2.1254049942   -0.7630011625
 H    1.7390671464    0.7479093953   -1.0346168507
 H    3.1898512654    1.2235573714    0.8062990373
 H    1.8795031860    1.2849927183    1.9608533301
 H    3.3592222071   -1.2258744482    1.0763474795
 H    1.4721237674   -2.5656431659    2.0383398420
 H   -0.5862837423   -1.4503097755    2.8703544341
 H    0.1531144330    0.1422435807    2.6919742407
 H   -0.3874116349   -0.3671859720   -0.9826931476