20

 C   -0.4022749778    1.4882650547   -0.1521375064
 C   -0.0838780919    0.0081178385   -0.0842873684
 C   -1.1241704326   -0.7844299515    0.6899293347
 C    0.5964291208   -0.7413438232   -1.1631505477
 C    1.6598747818    0.0727359984   -1.8937925492
 C    2.3458294654    0.2514040196   -0.5047714248
 C    2.6836909902    1.5677597390    0.0041747520
 C    3.0146413481    2.6461820804    0.4218865333
 N    1.2669041265   -0.5514192621    0.2024173282
 H    0.2822422543    2.0619137274   -0.7754679846
 H   -1.4141972659    1.6174889654   -0.5524490926
 H   -0.3814686489    1.9285267964    0.8500563878
 H   -2.1047863004   -0.7096452405    0.2073050130
 H   -0.8430278630   -1.8382322604    0.7537860900
 H   -1.2162238699   -0.3981978752    1.7103899689
 H    0.2547559398   -1.7213400476   -1.4841647180
 H    2.2693190669   -0.5134731387   -2.5827204489
 H    1.3193320570    0.9756964828   -2.4055307982
 H    3.2459104947   -0.3694277958   -0.4585895677
 H    3.2935067447    3.6005579623    0.7950587284