16

 N   -0.3235163700   -1.0723121172    0.5007521683
 C   -0.1779623432    0.0564681715    0.2993580778
 C   -0.0121963250    1.4668313695    0.0184469272
 O    0.6087615895    2.2559652684    1.0336469491
 C    1.3326764541    2.0560129055   -0.1808642567
 C    2.6004793053    1.2575138960   -0.1083147794
 C    3.2846608695    0.9747684463   -1.4682976352
 O    4.3988452158    1.8257299128   -1.1404195098
 C    3.8834223852    2.0753094159    0.1820522705
 H   -0.8696604006    1.9279087444   -0.4682169908
 H    1.3715651157    2.9403605850   -0.8206091146
 H    2.4591081642    0.3844786143    0.5296309098
 H    3.5870379819   -0.0676812336   -1.6220322160
 H    2.7468682750    1.3228756688   -2.3596896847
 H    3.7377690734    3.1453044217    0.3754697795
 H    4.5280183691    1.6566078306    0.9637670949