19

 C    0.0230059656    1.5542577875   -0.0034876157
 N    1.2238496471    0.7148376315   -0.1485510092
 C   -0.0896341657    0.0726584708    0.0501617017
 C   -0.2741291265   -0.6657657826    1.3112639629
 C   -0.2300767218   -2.1008691110    1.6880134271
 C    0.5853077108   -1.8093244749    2.9451027110
 C    0.0251280541   -0.3659711916    2.8366570947
 C   -1.4826899955   -0.5868835527    3.0333197937
 N   -1.5369369145   -1.3408841193    1.7364100997
 H   -0.0160508502    2.1335463704    0.9147648575
 H   -0.3757140528    2.0631098315   -0.8771194393
 H    1.4948017027    0.6568606014   -1.1263364085
 H   -0.5580736208   -0.4113794242   -0.8053458509
 H   -0.2205042286   -2.9776320659    1.0534056411
 H    0.3696996028   -2.3670123323    3.8632915232
 H    1.6548282161   -1.8478885672    2.7254615272
 H    0.5652321556    0.4787783283    3.2587060872
 H   -1.8139769625   -1.1463306850    3.9166868494
 H   -2.0802303758    0.3218096954    2.9248004973