14

 N    0.0399257118    1.1831807604    0.4342907666
 C    0.1217980007   -0.0519522730   -0.1324166104
 O    1.1016119088   -0.4880499835   -0.6980359365
 C   -1.1785361504   -0.8425110265   -0.0310128598
 C   -1.0775489165   -2.3640232203    0.1257244458
 O   -0.4442789377   -2.5942397595    1.3764412065
 C   -1.8728815897   -2.3724326168    1.3814843141
 C   -1.9804649751   -0.8515503976    1.3067663972
 O   -2.4931959868    0.0121799160    1.9556321521
 H    0.8748727943    1.7458023685    0.4692103433
 H   -0.7398267232    1.4288590926    1.0249823365
 H   -1.8613729316   -0.5352776663   -0.8330790156
 H   -1.0104392635   -3.1284312398   -0.6362538019
 H   -2.5025303712   -3.1228979642    1.8421914022