23

 C   -0.0014058407    1.5236616671   -0.0913445483
 C    0.0619975325   -0.0126865345    0.0178256385
 C    0.8801708109   -0.5156038437   -1.1567711423
 O    0.4528093482   -1.1476763112   -2.0875629608
 C    0.6652280126   -0.5123399562    1.3576054062
 C   -0.1121652262    0.0124238670    2.5747258059
 C    0.7284284234   -2.0322256593    1.3836487768
 C    1.9084572555   -2.7866250228    0.8207324151
 C    1.6767182013   -2.7468023661    2.3113817238
 H    0.9922439569    1.9710663318    0.0283741590
 H   -0.3916892432    1.8274658814   -1.0674570533
 H   -0.6552173967    1.9479050153    0.6737734843
 H   -0.9464743422   -0.4269078951   -0.0998529754
 H    1.9542614831   -0.2084685498   -1.1191668094
 H    1.6965179258   -0.1320844806    1.4225337197
 H    0.3063244452   -0.4022442347    3.4963770668
 H   -0.0756951492    1.1020254017    2.6533049674
 H   -1.1655628877   -0.2871487834    2.5249687785
 H   -0.2394612132   -2.5096991192    1.2441688215
 H    1.7221373905   -3.7121172210    0.2879995652
 H    2.7431468544   -2.2143240393    0.4292157081
 H    2.3520492883   -2.1412161940    2.9079131954
 H    1.3373706306   -3.6492608135    2.8074543174