18

 C   -0.0749637824    1.4961100340   -0.0634297357
 C    1.2877375949    0.8714909862    0.1101360044
 C    0.0577091618   -0.0018707631    0.0435820900
 C   -0.4271818953   -0.7348767277    1.2439158940
 C   -0.4043024289   -2.2299595272    1.3927793076
 C   -1.7336694658   -1.4982541442    1.4428564751
 N   -2.2106305404   -1.1421351038    2.7608417089
 C   -1.3316374287   -0.3587716637    3.2393678663
 O   -0.2618069142   -0.0187726430    2.4717067757
 H   -0.4917615140    2.0199769758    0.7888023368
 H   -0.3364604955    1.9178994422   -1.0273349478
 H    1.9672732493    0.8596860723   -0.7346600577
 H    1.7671143632    0.9841177528    1.0755303796
 H   -0.0803226317   -0.5704144665   -0.8710998557
 H   -0.1956714440   -2.7921987642    0.4888761816
 H   -0.0239490962   -2.6681774454    2.3098090632
 H   -2.4826790456   -1.6642184268    0.6779478230
 H   -1.3418257165    0.0892192923    4.2254029006