13

 N   -0.0108849371    1.3480592580    0.1248014979
 C   -0.0110862238   -0.0272075036    0.0281673363
 N   -1.1035585998   -0.7784432844    0.0390459640
 C   -0.5824520805   -2.0350540498    0.0323993979
 C    0.7874574004   -2.0808874495    0.0043683520
 N    1.1700312305   -0.7406441995   -0.0196421150
 C    1.0884875367   -3.4520973482   -0.0517285057
 N   -0.0241002775   -4.1711150644   -0.0381298397
 O   -1.1090085851   -3.2588653509    0.0077480794
 H    0.6470511459    1.8238360898   -0.4778105748
 H   -0.9455615180    1.7213140038    0.0283715161
 H    2.0845073045   -0.3569150705    0.1440941500
 H    2.0315952339   -3.9774932307   -0.0879518884