21

 C    1.1980187959   -1.3248649426    0.3341070265
 O    2.0648218335   -1.1268517879   -0.7675107680
 C    1.4355005120   -1.1572160876   -2.0234420648
 C    0.5977756268    0.0681914287   -2.3469223399
 C    1.4112803572    1.3433432234   -2.3155317152
 C    1.8942199543    1.9987191675   -3.5368398198
 O    0.7719386295    2.5180779979   -2.8204205119
 C    2.2639417631   -1.8000333984   -3.0940533608
 C    1.0381267186   -2.5124276232   -2.5548601219
 H    0.4853051535   -0.4982319589    0.4615031647
 H    0.6304106578   -2.2610365184    0.2398309953
 H    1.8287461574   -1.3785055083    1.2245751966
 H    0.1382993747   -0.0478873836   -3.3337782125
 H   -0.2289976600    0.1577323140   -1.6304244461
 H    1.9798331976    1.5030268661   -1.3996579312
 H    2.7936541564    2.6123631160   -3.5083317426
 H    1.6649592462    1.5610878990   -4.5082701474
 H    2.2273891146   -1.3845443256   -4.0950043890
 H    3.2319066537   -2.1822223928   -2.7922011431
 H    1.2114686619   -3.3653748723   -1.9083226844
 H    0.1585614853   -2.5915502929   -3.1846852844