15

 O   -0.0183869193   -0.0069109731   -0.2099627176
 C    0.0069964781    1.1723414248   -0.0420420465
 O   -1.1018629479    1.9532564260    0.1224388984
 C   -0.6299683233    3.2830214569    0.3886776095
 C   -0.3618991268    3.4470224853    1.8869799489
 O    0.5169060626    2.4303220054    2.3457256576
 C    1.6544077773    2.2315906134    1.5113790064
 C    1.2039159185    2.1341646401    0.0520194326
 O    0.5980281743    3.3818833905   -0.3047415115
 H   -1.3442853226    4.0028215701   -0.0134632680
 H    0.0601462545    4.4507782272    2.0486887455
 H   -1.2828951432    3.3454599883    2.4666131557
 H    2.3686389831    3.0632938749    1.6044867640
 H    2.1265581438    1.3056966256    1.8497839182
 H    2.0058011908    1.8932560846   -0.6449105534