16

 O   -0.0484786178    1.4094996627    0.0070545696
 C    0.0073510529   -0.0086947635    0.0018915950
 C   -1.3946186297   -0.5362352267    0.0122269649
 C   -2.5305809691    0.2287556384    0.0233707007
 N   -3.6172837856   -0.6247502499    0.0302080746
 C   -3.2021986222   -1.9143972434    0.0236787948
 C   -1.8143889929   -1.9120817326    0.0124048631
 C   -0.9834131339   -3.1062933268    0.0028497602
 O   -1.3992534022   -4.2475884295    0.0014656598
 H    0.8526639137    1.7435936017    0.0008930654
 H    0.5430840050   -0.3799367787   -0.8875868752
 H    0.5583503625   -0.3858386259    0.8794662252
 H   -2.6510787733    1.2980452673    0.0270296313
 H   -4.5782979456   -0.3283577365    0.0388586491
 H   -3.8886266377   -2.7448798031    0.0273131315
 H    0.1134471961   -2.9090299635   -0.0074740000