15

 N   -0.0978836737    1.1826292581   -0.4962702018
 C    0.0402712644   -0.0645638420   -0.0134277299
 O    1.0789278050   -0.6057644067    0.3244874655
 C   -1.3191498207   -0.7910853274    0.0803322123
 O   -2.3670654797   -0.2626777411   -0.2546344292
 N   -1.1777256989   -2.0403154356    0.5710920422
 C   -2.2906771725   -2.9348414649    0.7783252319
 C   -2.2980309156   -4.1024622158   -0.2030784802
 O   -2.7400618547   -5.1884723851    0.0561630665
 H    0.7053683882    1.7769661264   -0.6095572872
 H   -1.0248210396    1.5002363731   -0.7337006595
 H   -0.2289457267   -2.3021815842    0.8068380610
 H   -2.3169287713   -3.3266305052    1.7996316523
 H   -3.2034220672   -2.3493757205    0.6082466661
 H   -1.8636392369   -3.8585482792   -1.1992162999