23

 C   -0.1443393729    1.4048360101    0.2514886009
 C   -0.1636096149   -0.0715326599   -0.1628634336
 C    0.7766972824   -0.4410092830   -1.2984525012
 C    1.1405507083   -1.9353853763   -1.4415941103
 O    2.5569420153   -1.6511847709   -1.4803291856
 C    2.3264002172   -0.2389862168   -1.3076696615
 C    2.2477923060    0.5160678016   -2.6516602949
 C    0.6927758592    0.3408351763   -2.6570941579
 C    0.0395902306   -0.3110961416   -3.8693944209
 H    0.8650923136    1.7233048713    0.5337501737
 H   -0.4901967183    2.0645044139   -0.5500462138
 H   -0.7970372288    1.5710707751    1.1137621544
 H    0.0913567608   -0.6854620027    0.7109160002
 H   -1.1878160756   -0.3588486439   -0.4422747391
 H    0.8797828859   -2.5391965737   -0.5613100492
 H    0.7946302107   -2.4614414281   -2.3389891174
 H    2.9207232146    0.1835432745   -0.4920239454
 H    2.5796888381    1.5572263458   -2.6127863097
 H    2.7838448251    0.0014635732   -3.4534160316
 H    0.2104809534    1.3071082398   -2.4831165330
 H    0.5382509940   -1.2432209206   -4.1538575566
 H   -1.0168466644   -0.5375243096   -3.6842312303
 H    0.0863320298    0.3582281355   -4.7354773273