12

 N    0.0172196185    1.3422034723    0.0096015430
 C    1.3048754533    1.8576711181   -0.0001931789
 C    2.1036594054    0.7451643307   -0.0139795063
 O    3.4197876050    0.3728245406   -0.0288096830
 C    3.3390649490   -1.0060842814   -0.0354359234
 N    2.1647119758   -1.5349069520   -0.0269758987
 C    1.3155143094   -0.4243157612   -0.0126676235
 C   -0.0080010906   -0.0353506751    0.0022951590
 H   -0.8076625041    1.9161414834    0.0207868325
 H    1.4908103763    2.9167823799    0.0037360011
 H    4.2900346130   -1.5172058508   -0.0474601371
 H   -0.9369269611   -0.5789080844    0.0083567755