27

 C   -0.0043706622    1.5053408874    0.1159151186
 C   -0.0904309695   -0.0056702470   -0.1113027525
 C    0.8407098432   -0.4831573469   -1.2187507999
 O    0.6946072560   -1.8805402980   -1.3564673996
 C    1.4033375909   -2.4706888659   -2.4415802454
 C    2.8955759354   -2.6173478140   -2.1278191979
 C    0.7415241829   -3.8216996583   -2.7195107081
 C   -0.7228973137   -3.7149805713   -3.1562994350
 C   -1.3801282477   -5.0786260475   -3.3828060628
 H    1.0091673850    1.8100941491    0.3998374258
 H   -0.2754942321    2.0618410904   -0.7882106394
 H   -0.6808913690    1.8223521373    0.9148291399
 H    0.1616615193   -0.5435661263    0.8098585490
 H   -1.1155682546   -0.2948311784   -0.3700162213
 H    0.5940029311    0.0219813428   -2.1691227210
 H    1.8804530342   -0.2109590765   -0.9728964507
 H    1.2864289154   -1.8280598318   -3.3324888202
 H    3.4225195853   -3.0733915108   -2.9721033822
 H    3.3643234997   -1.6494031517   -1.9289035444
 H    3.0363133367   -3.2527387388   -1.2474364354
 H    1.3238625864   -4.3429712757   -3.4902041309
 H    0.8129070161   -4.4299183459   -1.8077753991
 H   -1.2738320807   -3.1541718688   -2.3945460023
 H   -0.7822494824   -3.1222587139   -4.0793845967
 H   -0.8593466231   -5.6492416190   -4.1604421136
 H   -1.3655616985   -5.6814565665   -2.4678149963
 H   -2.4244114641   -4.9718732641   -3.6932247386