22

 C   -0.4648263549    1.6526891909    0.5909649279
 C   -0.1878483211    0.1522060473    0.6462716371
 N   -1.2935743675   -0.5673546839    0.0042662505
 C   -1.2175227802   -0.8284765965   -1.4118996516
 C   -1.1290564228   -1.9669897846   -0.4361037794
 C    0.1739907898   -2.7038726565   -0.3141341381
 O    1.2441207897   -2.1969957940   -0.5855924430
 C    0.0649597538   -4.1382811490    0.1824761309
 C    1.4035134274   -4.8667734701    0.2503288013
 H    0.3236581696    2.2042559126    1.1119421307
 H   -0.4948591907    2.0076956907   -0.4444898881
 H   -1.4250456798    1.8900376499    1.0577851742
 H    0.7835285750   -0.0775969981    0.1927251379
 H   -0.1491777687   -0.1815410306    1.6900035363
 H   -2.1328597619   -0.6922068953   -1.9824416737
 H   -0.2907776916   -0.5875735820   -1.9304513209
 H   -2.0135940263   -2.5738401878   -0.2555056784
 H   -0.4272396420   -4.1110081653    1.1654110907
 H   -0.6459779972   -4.6648407577   -0.4704013460
 H    1.8752071375   -4.9080435330   -0.7348817994
 H    2.0955097980   -4.3474188232    0.9179472070
 H    1.2702347040   -5.8892585639    0.6142592441