18

 O    0.0059318140    1.3625216904    0.1504948830
 C   -0.0126120490   -0.0354841380    0.0615897828
 C   -0.4917430949   -0.7570477516    1.2898000385
 C   -1.3349339623   -0.7513895866    0.0438894628
 C   -2.7378735763   -0.1252661610   -0.0902286044
 C   -3.1510026555   -1.3400336121   -0.9393737591
 C   -2.2464301589   -1.4931243691   -2.1298400508
 C   -1.7543781678   -1.9523808212   -0.7828077837
 H   -0.2272091805    1.7167543282   -0.7140882445
 H    0.8166581925   -0.4754755180   -0.4945564583
 H    0.0117644892   -1.6749900733    1.5764989546
 H   -0.8171590748   -0.1348536859    2.1174711634
 H   -3.2632544608   -0.0708671633    0.8666114726
 H   -2.8028649071    0.8530925983   -0.5801923497
 H   -4.1129164453   -1.8345944544   -0.8889351459
 H   -2.5189365019   -2.2843634264   -2.8214014777
 H   -1.8055889476   -0.6192869315   -2.6057085162
 H   -1.4777601830   -2.9812506344   -0.5846876673