20

 C    0.0302646519    1.4164056652    0.0912719045
 N    0.0351029053   -0.0312721693    0.0507408078
 C   -0.0160498744   -0.7808293512   -1.1010128319
 C   -0.0600014587   -2.1097090245   -0.7547097073
 C   -0.0396377574   -2.1687595893    0.6638028440
 C    0.0154454776   -0.8760326467    1.1444613593
 C    0.1035419572   -0.3781819541    2.5524715259
 C    1.5501315581   -0.1596881490    3.0361924710
 O    1.6142044671    0.3692822152    4.3496412828
 H    0.8914536939    1.8056075557    0.6434246951
 H    0.0793563501    1.7965877595   -0.9303622117
 H   -0.8827260582    1.8021489354    0.5582536278
 H   -0.0232796272   -0.2968063321   -2.0650509781
 H   -0.1029096738   -2.9417158917   -1.4404977707
 H   -0.0650208885   -3.0582895638    1.2760747665
 H   -0.4469978744    0.5605862280    2.6862729645
 H   -0.3757195820   -1.1138829944    3.2101587067
 H    2.1088476205   -1.1033117037    2.9452090699
 H    2.0555372409    0.5722371628    2.3970863790
 H    1.2501629622   -0.2891463321    4.9500372848