16

 C    0.0687817807    1.4808211130    0.0089644268
 C   -0.0555119586   -0.0412445195    0.0037577287
 C   -1.5017008976   -0.4856389750    0.0132696952
 O   -2.4572760649    0.2357580481    0.0243043055
 N   -1.6848076063   -1.9138728618    0.0082696032
 N   -0.6510484380   -2.7725880388   -0.0039246054
 C   -1.2323721438   -3.9599744900   -0.0046268414
 C   -2.6343711434   -3.7772272383    0.0075816832
 N   -2.8987440594   -2.4819299711    0.0155523739
 H    1.1225369315    1.7712828262    0.0021029851
 H   -0.4172380122    1.9185534578   -0.8663884938
 H   -0.4038301704    1.9114266950    0.8951213923
 H    0.4338605937   -0.4871471135   -0.8691785310
 H    0.4472621753   -0.4940952653    0.8654538462
 H   -0.6488287873   -4.8672834082   -0.0134543479
 H   -3.4288071892   -4.5070962785    0.0107250294