14

 O   -0.1882096617    1.4069123787   -0.0032534650
 C    0.0148898464    0.0611279835    0.0318121495
 C   -0.9886846424   -1.0483604303    0.1717227839
 C    0.0533279885   -1.0092588226   -1.0143852910
 N    1.2369435127   -1.7302915068   -0.4631791321
 C    1.0108725623   -0.8685882243    0.8043868860
 C   -0.1512382778   -1.8662755563    1.1744504557
 C    0.6004158807   -2.8580860533    0.2823705927
 O    0.7780850733   -4.0283262833    0.2089381918
 H    0.4950437046    1.8110867707   -0.5519219658
 H   -2.0550157060   -1.0523780703   -0.0011676445
 H   -0.2313949018   -1.0342427386   -2.0571837579
 H    1.8703163107   -0.6367185212    1.4275468517
 H   -0.5265450396   -2.0940790060    2.1682371549