23

 C    0.0431515295    1.5959758404   -0.0390170018
 C    0.0096189241    0.0591397887    0.0194848957
 C   -1.4509715988   -0.4629904570    0.0551299361
 C   -2.2574902805   -0.1222108994    1.3035080258
 O   -3.5439342456   -0.7075486536    1.1441810793
 C    0.7592321317   -0.5767271949   -1.1949707316
 C    1.5385221130   -1.7944449982   -0.6389466851
 C    1.6266508080   -1.4860937283    0.8366163915
 C    0.8162557550   -0.4904089130    1.1874211055
 H    1.0747837681    1.9570983726   -0.0985014961
 H   -0.4964544991    1.9668650786   -0.9180725520
 H   -0.4134572962    2.0512566517    0.8458504139
 H   -1.9921976293   -0.0733529254   -0.8164204888
 H   -1.4430680245   -1.5549445595   -0.0422820747
 H   -1.7532621870   -0.5186248761    2.1986324437
 H   -2.3381467519    0.9687295319    1.4274611674
 H   -4.0639154051   -0.5040445134    1.9269472803
 H    0.0759523471   -0.8420164714   -2.0067664250
 H    1.4706431949    0.1520996588   -1.5975197032
 H    1.0074477773   -2.7415464876   -0.8084154992
 H    2.5213668072   -1.9105989875   -1.1097212640
 H    2.2618526679   -2.0447572247    1.5159984557
 H    0.7003370241   -0.1090728524    2.1969726364