16

 O   -0.1209411851    0.2739475512    1.1515608705
 C   -0.1415738891    1.2665468983    0.4717385227
 O   -1.3379879924    1.8807604797    0.2453734709
 C   -1.4852364129    2.7605011321   -0.8652771562
 C   -0.8798156167    4.1305896157   -0.6845890793
 C   -0.3716824627    4.6141915485    0.6147118130
 N    0.5739128196    4.2891744472   -0.4823184469
 C    1.3866961923    3.1390286850   -0.3827313702
 C    1.1010182485    1.8650854079   -0.0670690586
 H   -1.0790002374    2.2932244601   -1.7716125520
 H   -2.5654205131    2.8648197259   -1.0003310607
 H   -1.2772452237    4.8602817058   -1.3892575833
 H   -0.4219181337    5.6690144553    0.8667823091
 H   -0.4126102312    3.9298158299    1.4563769124
 H    2.4238256325    3.3645674444   -0.6248027326
 H    1.9263555151    1.1615603929   -0.0503586887