17

 C    0.1968771170    0.7677414886    0.4767651978
 O   -0.3268809401    0.3171220086   -0.7573092268
 C   -1.5183169496   -0.4309522464   -0.6412640860
 C   -1.2625242217   -1.8480092772   -0.1691329837
 N   -1.3701958171   -2.1386101964    1.2554019368
 C   -2.3427372509   -2.7669931987    0.3369915385
 C   -3.7580644175   -2.3258267768    0.4911263057
 O   -4.7011591267   -2.9663954168    0.0997923729
 H    1.0653339285    1.3884260395    0.2435200195
 H   -0.5382808070    1.3736195841    1.0276545293
 H    0.5123464742   -0.0586945384    1.1268960563
 H   -2.2322113001    0.0670734904    0.0314846023
 H   -1.9532961559   -0.4590868673   -1.6465105121
 H   -0.4726097001   -2.3465017564   -0.7305132709
 H   -0.6781738303   -2.8222151800    1.5498648470
 H   -2.2375237436   -3.8188718580    0.0827146470
 H   -3.8806911291   -1.3525794789    1.0136523465