20

 C   -0.0230837147    1.3937158170    0.5829710493
 C   -0.1267340227   -0.0671495569    0.1436819513
 C    0.5033816005   -0.3133079353   -1.2367004090
 C    0.5625299414   -1.8128938836   -1.5474647812
 O    0.4284393041   -2.2959892603   -2.6398060563
 N   -0.2027824072    0.4244589810   -2.2582970756
 C    0.3549781831    0.5534582259   -3.3811937690
 O   -0.2786363649    1.1887301083   -4.3808514889
 C    0.4089992425    1.2166294074   -5.6272037331
 H    1.0240578904    1.7035684459    0.6796566371
 H   -0.5019968493    2.0460973628   -0.1518070870
 H   -0.5086723240    1.5489946538    1.5509652986
 H    0.3622247043   -0.7177530547    0.8796716035
 H   -1.1801112161   -0.3673291829    0.0960835904
 H    1.5714491698   -0.0203311730   -1.1725805773
 H    0.7812540420   -2.4479425556   -0.6584324399
 H    1.3634370302    0.1977386229   -3.6359407471
 H    1.4037270797    1.6678494673   -5.5278286549
 H    0.5071368800    0.2096435350   -6.0487688092
 H   -0.1952388792    1.8293012649   -6.2969749917