20

 O    0.2178843741    0.0849681078   -0.9503986024
 C    0.1136580443    1.1688708274   -0.4142898023
 N    1.0332923576    1.7287174585    0.4124232882
 C    2.3035318790    1.1040001148    0.7318296390
 C    3.4584533689    2.0630826478    0.4907989528
 O    3.2345744444    3.2065890630    1.3038416317
 C    4.1826409942    4.2138465396    1.1243982683
 C    4.4061235038    5.1299419839    2.2815899110
 C    5.4843321780    4.1410530663    1.8807096735
 H   -0.7683775791    1.8263771364   -0.5488460910
 H    0.8710108927    2.6515836102    0.7834306139
 H    2.3173950438    0.7802376806    1.7804931182
 H    2.3972551807    0.2184966010    0.0998818274
 H    4.4143265845    1.5841571309    0.7493761230
 H    3.4978707634    2.3529418833   -0.5706391323
 H    4.2009033954    4.6327804048    0.1174374219
 H    4.5590366826    6.1848836013    2.0849862373
 H    3.8484436770    4.9102032866    3.1847211238
 H    5.6274516354    3.2841841313    2.5294827827
 H    6.3864372891    4.5099318844    1.4054317953