21

 C    0.0009598602    1.3105802362   -0.1265121014
 O   -0.0523064200   -0.1128902820   -0.0065986671
 C   -1.2842164051   -0.6299456379    0.0524214216
 N   -2.3783476336    0.0302319047   -0.0228357489
 C   -3.4393565523   -0.9742846693    0.1375647480
 C   -2.7549094996   -2.3703223544   -0.0028842820
 C   -2.9861611767   -3.0093099188   -1.3772627319
 N   -1.3549212109   -1.9949546175    0.2381593891
 C   -0.2461557530   -2.8994907878    0.0372105826
 H    1.0610162958    1.5662900062   -0.1503696246
 H   -0.4950681976    1.6378263966   -1.0440533568
 H   -0.4922667752    1.7870933904    0.7246501646
 H   -3.9109733042   -0.8627088381    1.1230508498
 H   -4.2249062524   -0.8370421837   -0.6135008969
 H   -3.0885833811   -3.0650802499    0.7770944413
 H   -2.6815415721   -2.3268544307   -2.1780543272
 H   -2.4344562686   -3.9473944403   -1.4939177645
 H   -4.0502474745   -3.2320941655   -1.5064900747
 H   -0.1022148802   -3.1933702205   -1.0132293085
 H    0.6700687446   -2.4191393700    0.3833477391
 H   -0.4020237334   -3.8093530176    0.6267862186