17

 O   -0.1276703585    1.3816414038    0.0480218953
 C    0.0458169005    0.0036658772    0.0548144742
 C    0.9494954225   -0.7793997357   -0.9706178395
 C    0.7461560335   -1.9120070032    0.1051185214
 O    1.5018729310   -3.0757332259    0.1650564905
 C    0.7821408224   -0.7841755427    1.1777607628
 C   -0.7678021654   -2.1603325135   -0.0685283633
 O   -1.6031673455   -1.6612241598    0.9865435720
 C   -1.2685073358   -0.7907253301   -0.1044937585
 H    0.7351769151    1.8022287431    0.1191387780
 H    0.5594108646   -0.9484620936   -1.9780870643
 H    1.9782471030   -0.4043939270   -1.0120462090
 H    2.4312659659   -2.8372394440    0.2412528841
 H    1.7998984545   -0.4083397081    1.3208282040
 H    0.2723886909   -0.9456688534    2.1246714957
 H   -1.1393218820   -3.0016658984   -0.6428620782
 H   -2.0850633969   -0.4147365486   -0.7107907352