21

 C   -0.1984421201    1.2721851266    0.0525996479
 O    0.2924376400   -0.0331701449   -0.1520881278
 C    0.8137103016   -0.6183663728    1.0139243672
 C   -0.1876384776   -1.1576572829    2.0994097988
 C    0.4157999592   -2.5561140489    1.9045302740
 C    0.7007578467   -3.5330821322    3.0041307889
 O   -0.4832220003   -4.0950326083    3.5580656927
 C    0.2308094942   -2.9699314347    0.4674427841
 C    1.3524761144   -2.0262217641    0.8081324431
 H    0.5900582985    1.9509805732    0.4150276658
 H   -0.5630645467    1.6382962481   -0.9101429772
 H   -1.0275432636    1.2940659114    0.7759866620
 H    1.5619463808    0.0474972812    1.4691167124
 H   -0.0070076913   -0.7380305868    3.0919736648
 H   -1.2502805574   -1.0595894413    1.8578767876
 H    1.3833881539   -4.3163276140    2.6343483302
 H    1.2019247784   -3.0348261924    3.8420811518
 H   -0.9844788136   -4.4748959527    2.8285729074
 H    0.5513076464   -3.9789024948    0.2241448665
 H   -0.6182109625   -2.6146115598   -0.1091818736
 H    2.3880278489   -2.2769042398    0.6115870435