19

 C    0.0329835755    1.5476090168   -0.0497014976
 O    1.3696221097    2.0528660475   -0.1209974442
 C    2.1369345897    1.7954517509    1.0588613896
 C    1.5679106717    2.5147457055    2.2506177318
 C    0.7068486624    2.0297904923    3.1560841988
 C    0.1156365926    0.7028377681    3.3544797226
 C   -0.1795765541   -0.3595947505    2.5722232209
 C   -0.0381169963   -0.6993119548    1.1529733107
 C    0.0180387972    0.0465447940    0.0407127731
 H   -0.5107029733    1.9952237566    0.7900728531
 H   -0.4418290238    1.8821377837   -0.9763099308
 H    2.2111550140    0.7189402858    1.2506959887
 H    3.1389261197    2.1672199459    0.8269950486
 H    1.8393995956    3.5644406980    2.3370898842
 H    0.4025173312    2.7266085994    3.9369662930
 H   -0.1801500374    0.5616529423    4.3936588842
 H   -0.6068929658   -1.1927772070    3.1294448475
 H   -0.0199406483   -1.7779637724    0.9976679231
 H    0.1348054998   -0.4801654119   -0.9037372073