17

 O    0.5164538459   -0.1494763738    1.0784492334
 C   -0.2263211593   -0.3278198010   -0.0970598152
 C   -1.4471901032    0.6134957194   -0.0996472682
 C   -2.4214986217    0.4301136634   -1.2270570903
 C   -2.2435781864   -0.2739909695   -2.3435669301
 C   -1.0021734170   -1.0273268551   -2.7459463123
 O    0.2406136707   -0.3249363296   -2.5330898581
 C    0.6793609027   -0.0488676896   -1.2991587306
 O    1.7689519398    0.4460368485   -1.1428947313
 H    1.3556957707    0.2459885419    0.7908767543
 H   -0.5820243735   -1.3674622276   -0.1425020709
 H   -1.9643526990    0.4566371347    0.8544664936
 H   -1.0892184716    1.6521207411   -0.0681883504
 H   -3.3726846354    0.9419373956   -1.0976388583
 H   -3.0558281554   -0.3268610258   -3.0634448491
 H   -0.9440958684   -2.0112322115   -2.2626119592
 H   -1.0106269288   -1.2019167611   -3.8233311773