16

 O   -0.0941229873    1.4038957932    0.0598906897
 C   -0.0424976462    0.0300833949    0.0104348027
 C    0.6655002289   -0.7355748768   -1.1525253358
 N    0.8351393204   -2.1415771108   -0.7264906107
 C   -0.4735767180   -1.6719736911   -1.2384340157
 C   -1.2088499857   -0.9430156974   -0.0782733448
 C   -0.3586900296   -0.8734001139    1.1764501903
 C    0.5320989167   -1.9460782408    1.7529481239
 O    1.5162788190   -1.6837274938    2.4013396174
 H    0.6494330704    1.7139121062    0.5905993959
 H    1.2765663205   -0.2845737665   -1.9230775036
 H    1.3193939273   -2.6574540530   -1.4598359901
 H   -0.9428283780   -2.1316521872   -2.0977110359
 H   -2.2705824188   -0.7362297802   -0.0772609433
 H   -0.8583331303   -0.3008546424    1.9571062441
 H    0.1654052006   -2.9849018302    1.6343740761