18

 C   -0.0591537086    1.5407144199    0.0059563804
 C   -0.0328530300    0.0252538747    0.0453541943
 N    1.3052162319   -0.5907103717   -0.2079517754
 C    0.7205267994   -0.7000471861    1.1117160370
 C    1.3374450406   -0.1928514025    2.4109446203
 O    0.8464679275   -1.3596478204    3.1091677841
 C    0.3135117683   -1.9405730673    1.8986015666
 C   -1.1883476479   -0.6449368679   -0.4940830228
 C   -2.1549332141   -1.2022599168   -0.9449445096
 H    0.8676285235    1.9414041135    0.4228999812
 H   -0.1527466386    1.8947054282   -1.0247912133
 H   -0.9057665433    1.9290083253    0.5800455388
 H    1.1966826900   -1.4637182647   -0.7211198158
 H    2.4334032782   -0.1407936638    2.4018169892
 H    0.9285400830    0.7376815641    2.8227742151
 H   -0.7622755022   -2.1411930149    1.9642445399
 H    0.8395026461   -2.8634665195    1.6173531604
 H   -3.0072228137   -1.6922233300   -1.3469244604