20

 C   -0.2194397059    1.5431536529   -0.1409821037
 C    0.1033779909    0.0509836813   -0.0163572371
 N    0.7253212307   -0.5121707826   -1.2007229084
 C    0.0421640821   -0.6771902369   -2.4513713095
 C    0.4461163856    0.2387595313   -3.5833565220
 C    1.0742537068   -1.1335746147   -3.4522784483
 C    2.3823275330   -1.2693184473   -2.6945782720
 C    2.0712620248   -0.7905475138   -1.2660647268
 O    2.8637634632   -0.6582199960   -0.3566240570
 H    0.6936487338    2.1234681812   -0.3029615391
 H   -0.9023980696    1.7370709391   -0.9737875336
 H   -0.6951403232    1.9031623353    0.7766549125
 H    0.8096930460   -0.1190053179    0.8000001444
 H   -0.8112173150   -0.5142604855    0.2057467833
 H   -0.9565242119   -1.0982596496   -2.3977374383
 H   -0.2563991831    0.3803485087   -4.3980297421
 H    1.0403677475    1.1126608990   -3.3351868974
 H    0.8163600197   -1.8814947656   -4.1914798765
 H    2.7290974354   -2.3068315734   -2.6521250403
 H    3.2034508692   -0.6725626255   -3.1023775080