21

 C    0.1474206580    1.3071198848   -0.3068077864
 O    0.0233367601   -0.1036452267   -0.2896952264
 C   -1.2709139675   -0.6122352287    0.0073303626
 C   -1.3180153435   -1.9890694182   -0.6626602831
 O   -0.9957238801   -1.9033283204   -2.0314238010
 C   -1.5277920460   -0.7315159655    1.5262908055
 C   -1.8358281344    0.5215860273    2.2072419221
 C   -2.1167993654    1.5485964569    2.7707114135
 C   -2.4513789417    2.7897320066    3.4553028265
 H    1.1524511648    1.5304515447   -0.6743969663
 H   -0.5892239026    1.7650207798   -0.9832652592
 H    0.0225770555    1.7411278707    0.6910295582
 H   -2.0340191798    0.0343005172   -0.4506214688
 H   -0.6345950600   -2.6690529526   -0.1255758946
 H   -2.3287891893   -2.4032855106   -0.5882858992
 H   -0.2020972442   -1.3538621592   -2.0646611763
 H   -2.3608764810   -1.4325850586    1.6751904382
 H   -0.6437936724   -1.2018670539    1.9747333403
 H   -3.4983734614    2.7976065113    3.7780817112
 H   -1.8298797458    2.9335331971    4.3461140438
 H   -2.3006455433    3.6582556980    2.8043304991