13

 N   -0.0451080001    1.2872299466    0.1532825175
 C    0.0106687186   -0.0847281254    0.0577855397
 N   -1.1009797348   -0.8341371543    0.0321789705
 N   -0.5410731858   -2.0755626655    0.0074207759
 N   -1.0168337897   -3.3463335505   -0.0284879654
 C    0.0808141442   -4.0614611455   -0.0448521642
 N    1.2299589174   -3.2889363794   -0.0233198218
 C    0.8024395953   -1.9902369777    0.0110127361
 N    1.2233573459   -0.7389560764    0.0411092880
 H    0.7695585726    1.7480363032   -0.2235071457
 H   -0.9166915827    1.6840721478   -0.1653783148
 H    0.1010063789   -5.1377093997   -0.0723810029
 H    2.1807901302   -3.6131584132   -0.0242186430