20

 C   -0.0320782454    1.4142942263   -0.0656018116
 C    1.3378165473    0.7883930874    0.0926295140
 C    2.0730643995    0.9762002300    1.4039619946
 O    2.7064128317   -0.1819285603    1.9492695505
 C    2.1203257676   -1.4521632610    1.7687853269
 C    0.6189263936   -1.6074508494    2.0154342367
 N   -0.1419107355   -0.4533751491    2.5196650036
 C   -0.3736638702   -0.9245032726    1.1420600225
 C    0.1012838540   -0.0834358517   -0.0031127121
 H   -0.4391886787    1.9072595485    0.8112478152
 H   -0.2957607060    1.8759272608   -1.0107060747
 H    1.9693254335    0.7798319545   -0.7912942007
 H    2.8886757666    1.6933335218    1.2549454140
 H    1.3884541806    1.3874854059    2.1489789351
 H    2.3259130750   -1.8376546365    0.7554543864
 H    2.6589317545   -2.1008074386    2.4686126441
 H    0.3471980719   -2.5911725743    2.3961996650
 H   -0.8952981970   -0.7617272396    3.1270112036
 H   -1.3104449218   -1.4475629462    0.9560856078
 H   -0.0065944812   -0.6018270558   -0.9531393910