18

 O   -0.2562104320    1.3640517401   -0.0603479385
 C    0.0111332224   -0.0256134065   -0.0102103874
 C    0.6155193556   -0.5737277636   -1.3148035810
 C   -0.3010073937   -0.3315312107   -2.5207483012
 C    0.3502801689   -0.7601214098   -3.8128061513
 C    0.1898852504   -0.0036409556   -5.0598622920
 O    1.3960715680    0.0876485629   -4.2986515079
 C    0.8770636944   -0.3572796326    1.1415354240
 N    1.5779750271   -0.5992911805    2.0277794168
 H    0.5826781396    1.8287132427   -0.1655503206
 H   -0.9642540758   -0.4955524966    0.1628348105
 H    1.5850175942   -0.0906603443   -1.4873281257
 H    0.8154730023   -1.6441227630   -1.1871308914
 H   -1.2428386891   -0.8814130117   -2.3912472529
 H   -0.5519088926    0.7318009531   -2.5756413433
 H    0.5787509947   -1.8250774568   -3.8936958722
 H    0.2789636910   -0.5111878813   -6.0191894820
 H   -0.4281607055    0.8934127842   -5.0649194842