20

 C    0.1241877721    1.5358529656   -0.0020859698
 C   -0.0325621866    0.0334356325    0.0553130735
 C   -0.6228692593   -0.6286057714    1.2523337816
 N    0.8281280341   -0.7100061772    1.0016600264
 C    1.3021076098   -1.9378784626    0.3225812640
 C    0.9041624165   -1.8783038518   -1.1579321668
 C   -0.5419819842   -2.0676711754   -1.5332747286
 O   -1.4764492752   -2.6699348330   -0.6837283347
 C   -0.0256903691   -0.6739296742   -1.2897421053
 H    0.9818520943    1.8213797784   -0.6221642741
 H   -0.7708105065    2.0066879976   -0.4244920364
 H    0.2832457233    1.9386255339    1.0011380538
 H   -0.8835687145   -0.0196465623    2.1159096913
 H   -1.2324399069   -1.5100807021    1.1069904725
 H    2.3934657251   -1.9694657081    0.3992227516
 H    0.9151508218   -2.8294917174    0.8313491259
 H    1.6650095441   -2.1069311568   -1.8976383547
 H   -0.7174306159   -2.2928453157   -2.5867339345
 H   -1.2874976330   -3.6146080168   -0.6648142819
 H    0.0198283202   -0.0237617729   -2.1567179837