21

 C   -0.1662474246    1.3414528281   -0.1256220681
 O   -0.2189661284   -0.0666207415   -0.2011669222
 C    0.6760271190   -0.6025153688   -1.1616028431
 C    0.6577024044   -2.1431548483   -1.0485305859
 C    1.3773549628   -2.6007841694    0.2387375561
 C   -0.8198438933   -2.6455162628   -0.9940275267
 O   -1.6787021357   -1.9864784169   -1.8987606438
 C    1.3386156753   -2.6821713400   -2.2267889566
 C    1.9092786864   -3.1214329203   -3.1895255952
 H    0.8328631323    1.6910600700    0.1745499464
 H   -0.4202480648    1.8116072717   -1.0879638683
 H   -0.8934952076    1.6558784425    0.6265868601
 H    0.3711541713   -0.3023656677   -2.1733742039
 H    1.6969805663   -0.2290256274   -0.9901091262
 H    0.9499346202   -2.0832554905    1.1018938384
 H    1.2645593466   -3.6792739192    0.3841156888
 H    2.4464687964   -2.3784030389    0.1870840612
 H   -0.8389896642   -3.7083449649   -1.2507464119
 H   -1.1746118152   -2.5379683628    0.0392449051
 H   -1.8277318706   -1.1093564312   -1.5273037532
 H    2.4016252033   -3.5149566519   -4.0440969311