20

 C   -0.4949594513    1.4954000435   -0.2672902655
 C   -0.0254810147    0.0605983989   -0.0007602714
 C    0.6229858879   -0.5580408504   -1.2312758354
 C    0.8570647915   -2.1068608505   -1.2763436982
 C   -0.6134251297   -2.1410401313   -1.7819639769
 N   -0.3222974209   -0.7908558850   -2.4119525788
 C    0.6648358345   -1.2068419703   -3.4472733337
 C    1.5574288776   -2.1799773131   -2.6291880488
 O    2.5252606218   -2.8007278270   -2.9724536217
 H    0.3456076990    2.1418476055   -0.5429258254
 H   -1.2152642127    1.5147065107   -1.0894097067
 H   -0.9684966261    1.9245652515    0.6203542459
 H    0.7165637109    0.0500175903    0.8075068096
 H   -0.8677425255   -0.5435684226    0.3508332927
 H    1.4866685838    0.0565261777   -1.5143348712
 H    1.2641571465   -2.7068923974   -0.4641778262
 H   -0.9074495262   -2.9229325063   -2.4877780921
 H   -1.3638206802   -2.0568182350   -0.9974103612
 H    0.1744047433   -1.7044000005   -4.2887250947
 H    1.2296249104   -0.3516401389   -3.8285132104