17

 C   -0.1843656525    1.5493913255    0.0030295252
 C    0.0125468101    0.0414084315   -0.0699177572
 C    1.2345758948   -0.5479059149   -0.8463615221
 O    1.5544472650   -0.5652403272   -1.9964814576
 C    1.7508081338   -1.2307749277    0.4206916869
 O    1.8851987098   -0.1535429630    1.3767456938
 C    0.5765370775   -0.6985347229    1.1627652722
 C   -0.1539970704   -1.2464616584    2.3474810907
 O   -0.7288616313   -0.2105321901    3.1280442317
 H    0.7047422918    2.0304975528    0.4181662679
 H   -0.3607565910    1.9583162032   -0.9960160278
 H   -1.0422825706    1.7973460818    0.6345868368
 H   -0.8865029614   -0.4585358004   -0.4537489721
 H    2.3623174915   -2.1134326558    0.5694311007
 H   -0.9878079395   -1.8720800942    2.0130580639
 H    0.5302885973   -1.8745896993    2.9359782772
 H   -0.0060466748    0.3284740390    3.4681071697