18

 C   -0.3254301977    1.3450926321   -0.5663851148
 C   -0.0303496944   -0.0687502516   -0.1066921736
 C    0.9194058497   -0.8981571198   -0.8869306012
 N    1.3066166319   -0.3818299345    0.4403671335
 C   -1.1451715460   -0.7727631941    0.6632718341
 C   -1.4378989374   -0.0594681438    1.9797537942
 O   -2.5376308401    0.2179164103    2.3839822727
 C   -2.4149164140   -1.0366376274   -0.1284588599
 O   -2.5528791689   -0.7807841258   -1.2972907755
 H    0.5339447229    1.7624283583   -1.1004663465
 H   -1.1859997423    1.3570211550   -1.2394016738
 H   -0.5458896341    2.0040026300    0.2819669984
 H    0.7913553665   -1.9756019770   -0.9423213339
 H    1.3664480278   -0.4529926964   -1.7711960096
 H    1.9209264415    0.4218381582    0.3330983860
 H   -0.7555835261   -1.7584264764    0.9686609426
 H   -0.5209644259    0.1889858285    2.5559014902
 H   -3.2263789632   -1.5130117057    0.4581897870