22

 C   -0.2438911927    1.5426702432    0.0415524366
 C    0.0527744547    0.0428743728   -0.0380911608
 C    0.6669480696   -0.5200277159    1.2480628821
 C    0.9766634166   -2.0206451273    1.1685293604
 C    1.5782285889   -2.5850708165    2.4417774688
 O    2.8254049166   -2.0359911203    2.7948398810
 C    0.6799258226   -3.0290038061    3.5721727458
 C    1.4547819027   -4.0441284844    2.7503147112
 H    0.6696439114    2.1173056251    0.2313373124
 H   -0.6822509516    1.9139120938   -0.8900785344
 H   -0.9471630141    1.7650679809    0.8519846391
 H   -0.8728140478   -0.5029042673   -0.2646476102
 H    0.7321416328   -0.1532798062   -0.8779732094
 H    1.5925658743    0.0298397665    1.4685586261
 H   -0.0136886839   -0.3319028031    2.0901447028
 H    0.0568891211   -2.5718709280    0.9360125109
 H    1.6742112310   -2.2061107642    0.3411183475
 H    2.6718046868   -1.1444494047    3.1250197842
 H    1.0276139457   -2.8444361500    4.5825667344
 H   -0.3955436619   -2.9687872264    3.4414056053
 H    0.9094574318   -4.6762335782    2.0578508942
 H    2.3113158857   -4.5120617738    3.2212568021