23

 C    0.6798253190    1.8864389113    0.1002451059
 C    0.4081471006    0.3722131566    0.0381921508
 C    0.9243274989   -0.2536330878   -1.1758242936
 C    1.3700998219   -0.7452732720   -2.1822364016
 C    1.8731800485   -1.3575417227   -3.4116045924
 C    1.9253129658   -2.8999443439   -3.3180276604
 C    2.9076717370   -3.4126406692   -2.2644887404
 C    1.0276044349   -0.8946933690   -4.6100095819
 O    1.6528165567   -1.3704866094   -5.7923169324
 H    1.7535555781    2.0897074158    0.0649078274
 H    0.2125515888    2.3997978256   -0.7446320863
 H    0.2782937379    2.3097383848    1.0259484851
 H    0.8529625621   -0.1144907766    0.9158573063
 H   -0.6721752539    0.1917705066    0.1121453020
 H    2.8955977990   -0.9961613025   -3.5956193596
 H    0.9154216408   -3.2680766482   -3.0978008412
 H    2.1964371234   -3.2789864826   -4.3075957586
 H    2.9079333983   -4.5064550720   -2.2282376185
 H    3.9304620409   -3.0876877181   -2.4866033264
 H    2.6483097218   -3.0404351913   -1.2686474866
 H    0.0051835449   -1.2896825631   -4.5048373659
 H    0.9636814276    0.2030536925   -4.6045248757
 H    1.0948041271   -1.1430921048   -6.5411662659