17

 C   -0.2369247860    1.2951133957   -0.3439455511
 C    1.1632893924    1.1758696995    0.1731325293
 C    0.2816382765   -0.0590514493    0.1076948485
 C   -0.2276132018   -0.7165199965    1.3349787608
 N   -0.3281323716   -2.0524929856    1.2984982384
 C   -0.7852325945   -2.6559923570    2.3968739404
 C   -1.1459340901   -1.9480968122    3.5372002848
 N   -1.0516057531   -0.6161292757    3.5895408657
 C   -0.5960152210   -0.0144881776    2.4948426827
 H   -0.9784001186    1.7806837848    0.2812455224
 H   -0.3888118790    1.4383490860   -1.4077949408
 H    1.9854018542    1.2361462705   -0.5310412406
 H    1.3871069194    1.5792612125    1.1547684638
 H    0.5082392965   -0.7772487857   -0.6715590867
 H   -0.8654612589   -3.7399816929    2.3637325913
 H   -1.5164500237   -2.4561534781    4.4232218130
 H   -0.5196404404    1.0693930414    2.5383678281