22

 C    0.0215995883    1.5333977061    0.0936572433
 C   -0.0981555597    0.0143546449   -0.0094495576
 N    0.5496843136   -0.4970837006   -1.2016676490
 C   -0.0953844950   -0.2475960357   -2.5124605997
 C    0.2192893458   -1.6930605159   -2.8881807792
 C   -0.2555341205   -2.5594629396   -3.9599452806
 O    1.0860531284   -2.0429480649   -3.9515037537
 C    0.5585994355   -1.9680955412   -1.4175173876
 C    1.8611327219   -2.6778344311   -1.0936530836
 H    1.0726715579    1.8356840288    0.1011433653
 H   -0.4651240792    2.0263688539   -0.7547419318
 H   -0.4558364318    1.8982033426    1.0082170854
 H    0.3832038023   -0.4527006590    0.8584716239
 H   -1.1683468198   -0.2770950621    0.0272367676
 H   -1.1785355047   -0.0505493105   -2.4447487259
 H    0.3751940695    0.5295149796   -3.1232518177
 H   -0.3426178268   -3.6328450675   -3.7932076347
 H   -0.9044170697   -2.1580264410   -4.7377500170
 H   -0.2883866792   -2.4635202901   -0.9102930795
 H    2.6886312900   -2.2265876406   -1.6455864838
 H    2.0783845790   -2.6124634568   -0.0224989393
 H    1.8018099141   -3.7383542790   -1.3607566850