16

 C    0.1132975119    1.5780782322    0.1523408110
 O    1.4657815846    1.5298114274   -0.3490324601
 C    1.3764683595    0.1141567994   -0.6090355773
 C    2.3595574938   -0.7571304127    0.1974374095
 C    1.5965008535   -1.1775894498    1.4407163091
 O    1.1311214396   -0.0840581100    2.2370228188
 C    0.1952072533   -0.7219409856    1.3579700028
 C   -0.0231547071    0.0406730283    0.0652636286
 H    0.0653366487    2.0063014146    1.1577835777
 H   -0.5494543879    2.1327423770   -0.5231713263
 H    1.4269308905   -0.0885595167   -1.6855156385
 H    2.6541652849   -1.6449157335   -0.3741427019
 H    3.2651961114   -0.1916304492    0.4368739484
 H    1.8965620972   -2.0606984755    2.0009740402
 H   -0.6262417787   -1.2371557148    1.8500534167
 H   -0.8585097052   -0.3510639311   -0.5165490886