19

 O   -0.0472044100    1.4495578247   -0.2173923500
 C   -0.0194955444    0.0398490664   -0.1199112473
 C   -1.4071035232   -0.5508199593    0.0513674181
 O   -2.1474277839   -0.1897412633   -1.1335400977
 C   -3.4210200293   -0.6353122590   -1.1996754967
 O   -3.9318729662   -1.3145759875   -0.3448971632
 C   -4.0911934995   -0.1718057260   -2.4717305477
 C   -5.5195077708   -0.6842099695   -2.5939208695
 O   -6.0327342477   -0.1813141249   -3.8174852965
 H   -0.6356152752    1.6628048821   -0.9499364308
 H    0.4650053442   -0.4183918958   -0.9965416040
 H    0.5832031069   -0.2066038812    0.7602900519
 H   -1.3787369116   -1.6405118729    0.1504093032
 H   -1.9108564437   -0.1335258832    0.9282448519
 H   -4.0798292398    0.9236441636   -2.5016480146
 H   -3.4947220693   -0.5005704718   -3.3299087830
 H   -5.5206225453   -1.7832722759   -2.5705243062
 H   -6.1089201461   -0.3428105886   -1.7312844752
 H   -6.9377806352   -0.4916803378   -3.9116051228