18

 N   -0.1690969228    1.3129524317   -0.0399521912
 C   -0.0892008411    0.0586564407   -0.1212471891
 O    1.0589500318   -0.6722607033   -0.2211801129
 C    0.7097076626   -2.0568207027   -0.2191531721
 O   -0.6492032552   -2.1414503203   -0.5429466057
 C   -1.2593362303   -0.9125616842   -0.1302172360
 C   -1.9600123331   -1.0164907895    1.2039910777
 C   -3.1047686192   -0.0830726533    1.5007771389
 C   -3.3708716917   -1.5457507340    1.2576237271
 H    0.7583254122    1.7400668087   -0.0393130916
 H    1.2997660480   -2.5758290496   -0.9801948658
 H    0.9269866122   -2.4707255286    0.7783520314
 H   -1.9790089781   -0.6268285034   -0.9034743735
 H   -1.3082298133   -1.2684208729    2.0361157912
 H   -3.1944375377    0.3021137728    2.5096434899
 H   -3.3853580649    0.6269158225    0.7308750177
 H   -3.8377997356   -1.8328181188    0.3211784174
 H   -3.6474620039   -2.1696122957    2.0998439867