15

 O    0.1785204822    1.3881413560   -0.0757868518
 C    0.0226823491   -0.0009333527   -0.0371117405
 C    0.2999095206   -0.7158638199    1.3036112739
 O   -0.6701082281   -0.1949229085    2.2249552212
 C   -1.0663848213   -1.2669833155    1.3440348861
 C   -1.4184282033   -0.5966966769    0.0320498985
 C   -2.6779395868    0.0034926244   -0.4415446401
 N   -2.1446275158   -1.2352338725   -1.0545775524
 H   -0.2476134070    1.7251456492    0.7231419819
 H    0.5966928547   -0.4206925303   -0.8696779974
 H    1.2318683158   -1.0872298703    1.7130402719
 H   -1.4476505749   -2.1771753815    1.7889938802
 H   -3.5975549378   -0.1244515259    0.1222790388
 H   -2.6008818972    0.9349284946   -0.9969306591
 H   -1.7021538201   -1.0225747902   -1.9463105814