20

 C   -0.0052556249    1.4764284249   -0.0049451473
 C   -0.0821537364   -0.0265199290    0.0478277304
 C    0.2747399523   -0.8025811615    1.2538966888
 C   -0.1091322153   -2.2400743382    0.8207767008
 C    1.1120937787   -2.1540801991   -0.1234890305
 N    1.2660308065   -0.6789224460    0.1192205412
 C   -1.3983751401   -2.0716201980    0.0120289129
 C   -1.1792487558   -0.7399114368   -0.7520806411
 O   -2.3306934511    0.0951446453   -0.7685476301
 H    0.8180261016    1.8314453934    0.6197729125
 H    0.1779315989    1.8170359345   -1.0297088538
 H   -0.9411184789    1.9233064706    0.3376059729
 H    0.4650453227   -0.4128622394    2.2475765760
 H   -0.1233966312   -3.0386888915    1.5620223200
 H    2.0021892372   -2.6507955659    0.2705784014
 H    0.9750667203   -2.4507925860   -1.1706667243
 H   -1.5951334144   -2.9224252934   -0.6499872050
 H   -2.2592844364   -1.9382360589    0.6767326442
 H   -0.8399764221   -0.9170352965   -1.7842663008
 H   -3.0001436714   -0.3372281284   -1.3075149381