19

 C    0.0331641610    1.4891888736    0.1071319274
 C    0.0105822916   -0.0059796590    0.0088571695
 C   -0.9530811791   -0.8790277605    0.8305798151
 C   -1.0914996909   -2.2287233465    0.1298710526
 C    0.4089968457   -2.0699841112   -0.2279255863
 C    0.5461547625   -1.0432580338    0.9671461594
 C    0.4497642678   -0.8467416891   -1.2049854847
 C   -0.3449939399   -0.8573511528   -2.4217016269
 C   -1.0088553702   -0.8560932867   -3.4254809145
 H    1.0159154562    1.8925729449   -0.1626218650
 H   -0.7085162947    1.9390129952   -0.5627185895
 H   -0.1938586444    1.8203971128    1.1260880718
 H   -1.6334398758   -0.4163746609    1.5348379842
 H   -1.2417400968   -3.0347029827    0.8536083915
 H   -1.7984046382   -2.3317162312   -0.6995112187
 H    1.0412645448   -2.9336223532   -0.4209406886
 H    1.2167192704   -0.9690369021    1.8109435738
 H    1.4932103392   -0.6066881612   -1.4399134497
 H   -1.5936087891   -0.8572162355   -4.3117481214