23

 C    0.1108884263    1.5807141576    0.0912195304
 C    0.0510362690    0.0408123882    0.1471236960
 C    0.7641214890   -0.4656397232    1.4151064684
 C   -1.4153790436   -0.4523877382    0.1004406548
 C   -2.2995620288   -0.1008991002    1.2944105097
 O   -3.5965175946   -0.6053429644    1.0023437761
 C    0.7531051161   -0.5652687717   -1.1114688635
 C    2.1641874555   -0.0637476258   -1.3213505967
 O    3.1517941297   -0.6128670971   -0.8991859889
 H    1.1433037892    1.9428262623    0.1317675615
 H   -0.3457555318    1.9652948164   -0.8276116797
 H   -0.4161354972    2.0296747551    0.9379078384
 H    0.3672785440    0.0192959501    2.3121843528
 H    0.6366626697   -1.5472647742    1.5317825589
 H    1.8379168033   -0.2643587262    1.3741005583
 H   -1.9027273921   -0.0532450764   -0.7978946601
 H   -1.4241747742   -1.5443735734   -0.0037255152
 H   -1.9011817575   -0.5527317368    2.2149041899
 H   -2.3299713747    0.9884350448    1.4495129173
 H   -4.1666783352   -0.4189476896    1.7538425665
 H    0.7921939595   -1.6542532809   -1.0073694281
 H    0.1601478395   -0.3181792989   -2.0009122376
 H    2.2524380591    0.8841150726   -1.9000175391