19

 C   -0.1655056532    1.6059676813   -0.2178735035
 C   -0.0323017199    0.1408092638    0.2148154988
 C   -1.3598386915   -0.5862050940    0.1533737447
 C   -1.8875837142   -1.2842609668   -1.0596580972
 O   -0.8338759871   -1.9141655775   -1.8029614348
 C   -0.5959180070   -2.8418029003   -0.7000254148
 C    0.7954995075   -3.0029802905   -0.3103066027
 C    1.9371765249   -3.1920155793    0.0154872485
 C   -1.5917154967   -2.0880319352    0.1905347885
 H    0.7982288823    2.1213842715   -0.1635220903
 H   -0.5272009814    1.6786825020   -1.2487783100
 H   -0.8704327561    2.1501509034    0.4211295495
 H    0.6911671536   -0.3670810831   -0.4268251745
 H    0.3635088229    0.0879398080    1.2363221091
 H   -2.1630203463   -0.0836908731    0.6941391467
 H   -2.8063446741   -1.0650449918   -1.5912013246
 H   -1.0063521467   -3.8209037122   -0.9798567212
 H    2.9475663336   -3.3426861411    0.3065618660
 H   -2.2518063605   -2.5683466753    0.8999119518