20

 C   -0.0138767811    1.5263555762    0.0211491586
 C    0.0190777880    0.0156336422    0.0348913357
 C    0.9628961895   -0.8146809368   -0.8942082417
 C    0.6910008646   -1.9344004303    0.1482027501
 C    0.6495500833   -0.7992101946    1.2086295937
 C   -0.8007498484   -2.2129968711   -0.0778228164
 O   -1.3181923724   -2.9466053690    1.0212511622
 C   -1.3145852046   -0.7372396601   -0.1710955455
 H    0.9867387844    1.9487756026    0.1633338171
 H   -0.4048005131    1.9066679136   -0.9300716780
 H   -0.6563385173    1.9148021128    0.8201905234
 H    0.6526110288   -0.9798892143   -1.9319356983
 H    1.9966673425   -0.4610097421   -0.8648918874
 H    1.3367340195   -2.8059482354    0.2514295566
 H    1.6471862520   -0.4376225667    1.4707596893
 H    0.0517612089   -0.9654287907    2.1075285443
 H   -0.9675018049   -2.7644463969   -1.0145259519
 H   -2.2666674821   -3.0448349615    0.8936978425
 H   -2.0390465525   -0.5275640492    0.6230667029
 H   -1.7789568453   -0.5037301589   -1.1351443271