22

 C    0.0049527171    1.4995947237   -0.0378027157
 C   -0.0325207919   -0.0049180873    0.0499465548
 C   -1.3143087078   -0.7375561787   -0.3367869335
 C   -1.1540265223   -2.1688962993    0.2222383641
 C   -0.2096248409   -2.0256301318    1.4424104897
 C    0.5993729728   -3.2790263720    1.7495341433
 O   -0.3135296046   -4.3329665404    2.0242645562
 C    0.6369298894   -0.8028287213    1.1155226557
 N    1.2368374610   -0.7014546527   -0.2294620774
 H    0.9725428960    1.8801657227    0.2983129231
 H   -0.1454408884    1.8348553396   -1.0707174487
 H   -0.7827326124    1.9495551433    0.5771735851
 H   -2.1643199326   -0.2302840585    0.1368279755
 H   -1.5005867906   -0.7228246157   -1.4172683356
 H   -2.1061238744   -2.6281640494    0.4920930250
 H   -0.7009457666   -2.8311888641   -0.5243922293
 H   -0.8057862559   -1.7920820813    2.3353318186
 H    1.2419792953   -3.5238765608    0.8872689258
 H    1.2638941485   -3.0934149137    2.6086658712
 H    0.1917264173   -5.1318554691    2.2001871027
 H    1.2204089038   -0.3405219727    1.9080859047
 H    1.0885325371   -1.5530953405   -0.7659026052