17

 O    0.1544388190    1.0399112994    0.8141072058
 C   -0.0196640189    0.3497787016   -0.4312128901
 C   -1.3533498392   -0.3816886979   -0.4010963937
 O   -2.3576213764    0.4908949770    0.0494221992
 C   -1.9487820787   -1.3448971677   -1.3844318174
 C   -1.0060329971   -2.4637359775   -1.9099347003
 O    0.3128330679   -2.3170086165   -1.3609214820
 C   -0.7171454134   -2.9124218798   -0.5514611549
 C   -1.6350043662   -1.8118842698    0.0548113182
 H    0.3997050379    0.3815463746    1.4733621037
 H   -0.0679396046    1.1346512980   -1.1931274826
 H    0.8128197640   -0.3142459110   -0.6495815974
 H   -1.9146133015    1.0448911200    0.7090467048
 H   -2.9244690153   -1.1440529976   -1.8074171113
 H   -1.0982628779   -2.9961045331   -2.8489249484
 H   -0.5173990468   -3.8945340824   -0.1392393246
 H   -2.3516587728   -1.9970079273    0.8435836009