19

 C    0.1929229156    1.6125535556   -0.2379556136
 C    0.1063933115    0.1644488819   -0.1173766546
 C    0.0447206443   -1.0349510924   -0.0280339451
 C   -0.0595007524   -2.4808903838    0.1118280561
 C    0.0717399819   -3.0687612965    1.5743247020
 C   -1.1210338514   -4.0107330255    1.2805946527
 C   -1.5159163604   -3.0975449279    0.0946577124
 C    0.8238400538   -3.1751479409   -0.8224752667
 C    1.5399592338   -3.7749112504   -1.5791737578
 H    1.0010122949    1.9055989519   -0.9172775818
 H   -0.7387189696    2.0363196246   -0.6291649987
 H    0.3885959489    2.0827903874    0.7321684633
 H    1.0362686109   -3.5110601497    1.8263173937
 H   -0.1790647887   -2.2965732311    2.3045213065
 H   -0.7867554679   -4.9937529968    0.9410411827
 H   -1.8582113108   -4.1444737394    2.0741735543
 H   -2.2415319267   -2.3339353973    0.3823079403
 H   -1.8263243368   -3.5629771721   -0.8415399737
 H    2.1781709391   -4.2893745975   -2.2539638520