17

 O   -0.0568380072   -0.0436147277   -0.1422678551
 C   -0.0339994582    1.1568058653   -0.0373387974
 C   -1.2862840410    2.0813978814   -0.0862972922
 C   -0.8233624684    3.3367879223   -0.8811643872
 C    0.6627467255    3.3841423806   -0.5850389748
 C    1.1817891481    3.3229549543    0.7954129704
 C    1.1616175178    2.0444261709   -0.0503765520
 C    2.2174052103    2.1686638533   -1.1541221989
 O    1.6991505154    3.4756522042   -1.5670843903
 H   -2.1178637246    1.5477536228   -0.5488222334
 H   -1.5962833605    2.3400390686    0.9331618587
 H   -0.9572235248    3.1730133029   -1.9546543600
 H   -1.3647766095    4.2469376233   -0.6078711048
 H    2.1578515794    3.7444755562    1.0101094326
 H    0.4701323613    3.3745423057    1.6109931228
 H    3.2657696110    2.2270480973   -0.8445376655
 H    2.1021354556    1.4317402286   -1.9544024430