16

 O   -0.0487691070    1.3385523933   -0.0271525252
 C    0.0452331254   -0.0331766911   -0.0421628819
 C    0.8701710400   -0.9077636902   -0.9838711572
 C   -0.0490287741   -2.0648992559   -0.5009043174
 C   -1.1121209995   -0.9871511915   -0.0453506261
 C   -0.2733149111   -0.8748505380    1.2143298635
 C    0.3586123641   -2.2558592279    1.0024303558
 C   -0.3686871452   -3.3302709269    1.6652358493
 N   -0.9428385290   -4.1868234544    2.1883456591
 H    0.6802058678    1.6944667351    0.4934519537
 H    0.6689725281   -0.6506366317   -2.0269351030
 H    1.9498944305   -1.0126352939   -0.8241415949
 H   -0.2424632361   -2.9319161930   -1.1254977502
 H   -2.1693591250   -0.8622591156   -0.2211560032
 H   -0.5419674384   -0.4001403082    2.1485674772
 H    1.4303883993   -2.3699003302    1.2023125306