17

 C    0.1098500886   -1.1822136841   -0.0146826802
 C    0.1051043500    0.0135789227    0.0940882469
 C    0.0681829419    1.4606800016    0.2417096920
 O    1.2830329569    2.0182303691   -0.2562963088
 C    1.3631568748    3.4073457811   -0.0917946118
 C    1.8385993999    3.9165132633    1.2616919429
 C    2.7695391512    3.9197493579    0.0768768326
 C    0.4038346338    4.1836212222   -0.8375349967
 C   -0.4135387641    4.8110085326   -1.4583848559
 H    0.1178282901   -2.2393792937   -0.1148165269
 H   -0.7902378146    1.8753550921   -0.3065353823
 H   -0.0647441302    1.7283860366    1.3015719686
 H    1.4443214100    4.8594028639    1.6213261169
 H    1.9997956408    3.1577988284    2.0191107877
 H    3.5426613986    3.1612557463    0.0425523039
 H    3.0192873650    4.8644343105   -0.3902303273
 H   -1.1263434325    5.3694352096   -2.0133048514