14

 O    0.0068089781    1.4238930171   -0.1108509872
 C    0.0155383824    0.0271997056   -0.0073810790
 C    0.9786036204   -0.5608781608   -0.9510901062
 N    1.7733132726   -0.9695894058   -1.6853116609
 C   -0.0847147678   -0.6886167017    1.3954830296
 C   -1.5089904539   -0.0923833908    1.5282899091
 C   -1.3790988683   -0.6634552461    0.0914123353
 N   -0.7333740771   -1.8790802592    0.7248126613
 H    0.9110960736    1.7517808128   -0.0462043202
 H    0.6969659100   -0.7965509136    2.1478570753
 H   -2.1740948165   -0.6590925107    2.1780305257
 H   -1.5958416461    0.9861583697    1.6323297631
 H   -2.1296187617   -0.7402652786   -0.6947380383
 H   -0.0827654258   -2.3245719580    0.0693041625