22

 C   -0.5026470250    1.3848429740   -0.0893797666
 N   -0.0242415542    0.0190445432    0.0300850013
 C    1.3322647707   -0.3995480409   -0.3169703278
 C    2.4377477632    0.5816681017   -0.7052294918
 C    3.2797140531    1.0505507932    0.4925719948
 C    2.3862348898    1.5576375602    1.6280963984
 C    1.4695879218    0.4444787746    2.1618139304
 O    0.4092145635    0.9608890923    2.9662449135
 C    0.8374459443   -0.4425709634    1.1033119843
 H    0.2662995218    2.1692346697   -0.0746427493
 H   -1.0502895801    1.4781722027   -1.0337398201
 H   -1.1923407607    1.5835426264    0.7340757555
 H    1.3521733384   -1.3370809755   -0.8707327411
 H    3.0851991232    0.0980296101   -1.4433313022
 H    2.0073582258    1.4552611512   -1.2110776142
 H    3.8902539658    0.2135015755    0.8569372307
 H    3.9795042186    1.8335671282    0.1798411717
 H    2.9983120056    1.9357699093    2.4572841237
 H    1.7748164321    2.3980442068    1.2839144525
 H    2.0969696312   -0.2314452777    2.7693871325
 H    0.8034345793    1.4771190282    3.6773296579
 H    0.5191696617   -1.4002804198    1.5147705059