9

 O   -0.0116922208   -0.0213139376   -0.0002317775
 C    0.0087315577    1.1805975914    0.0083117113
 C    1.2563167289    1.9856776747    0.0014877328
 N    1.3279889995    3.2870714971    0.0098727364
 C    2.6821923045    3.4877680513   -0.0020866750
 N    3.4007490798    2.3934893889   -0.0173884160
 O    2.4500656981    1.3819995824   -0.0148020193
 H   -0.8989720908    1.8128768079    0.0219107622
 H    3.1458831130    4.4630484340    0.0000679252