21

 C    0.0006766914    1.5092385141    0.0565851983
 C    0.0146201525    0.0132420193   -0.0061695189
 C    0.0258532992   -0.7525260002   -1.1050504317
 C    0.0544141680   -2.2329550794   -0.7893673491
 C    0.0031324356   -2.2778783767    0.7388209414
 C   -0.0002588538   -0.8272283136    1.2290771015
 C   -1.1965164050   -1.7508291627    1.4680216000
 C   -2.5530341499   -1.5460000518    0.8380978379
 O   -1.2592097726   -2.2832838348    2.7711075985
 H    0.8548312110    1.8876146426    0.6325412017
 H    0.0411618907    1.9558651848   -0.9405729553
 H   -0.9011217152    1.8789880859    0.5609486316
 H   -0.0059888787   -0.3741146094   -2.1215362994
 H   -0.7832460613   -2.7725820104   -1.2523648995
 H    0.9678165981   -2.7104926796   -1.1688807828
 H    0.5726715294   -3.0318738413    1.2686791580
 H    0.5540100291   -0.5188899216    2.1104765980
 H   -2.4797099151   -1.1020567367   -0.1559231220
 H   -3.0812407066   -2.5019532415    0.7600320602
 H   -3.1641905109   -0.8771453086    1.4577393465
 H   -1.7077943258   -1.6374206383    3.3286409550