20

 C   -0.0419363285    1.5329676101   -0.0446449590
 C   -0.2527705225    0.0268539090    0.0160193160
 O   -0.9184178714   -0.4939403236    0.8935276702
 N    0.3591647001   -0.6858128337   -0.9769540356
 C    0.2778061657   -2.1340566554   -1.0861003271
 C   -0.4555328299   -2.6258139871   -2.3671600739
 C    0.3217432067   -3.8783817856   -2.8419669752
 C    1.6522217861   -3.7436003609   -2.1385931227
 C    1.6285472642   -2.8094779652   -1.1908180962
 H    0.5486820794    1.8643191866   -0.9029064002
 H   -1.0190580669    2.0218871989   -0.0734782644
 H    0.4555793253    1.8545149906    0.8743682891
 H    0.8948229824   -0.1931759871   -1.6736083952
 H   -0.2486819259   -2.4459954869   -0.1778129847
 H   -1.5163979382   -2.8154963161   -2.1897853780
 H   -0.3905468974   -1.8398148995   -3.1274277842
 H   -0.1809664510   -4.8054930176   -2.5342555778
 H    0.4173958386   -3.9320282364   -3.9324267436
 H    2.4996817811   -4.3811103021   -2.3663149163
 H    2.4433054020   -2.5567880178   -0.5214031613