23

 C   -0.1123340293    1.5581433623   -0.0620408522
 C   -0.0208276025    0.0417486921   -0.0433582972
 O   -1.3293028330   -0.4889612941    0.0032097936
 C   -1.3617309350   -1.8975371064    0.0270202022
 C   -2.8154539427   -2.3485897206    0.0920270401
 C   -2.9595443088   -3.8731054492    0.1184776337
 C   -4.4269538228   -4.3283654961    0.2030255618
 C   -4.5558872573   -5.8314539630    0.1178435943
 O   -5.0991606498   -6.5295600685    0.9342089450
 H    0.8876920266    2.0006091655   -0.0961050107
 H   -0.6728984398    1.8979279877   -0.9375501362
 H   -0.6234432878    1.9224237464    0.8336438077
 H    0.5071663280   -0.3253423206   -0.9403548411
 H    0.5594796969   -0.3005136313    0.8307557013
 H   -0.8717751766   -2.3104081217   -0.8728939098
 H   -0.8020870143   -2.2819357453    0.8982688812
 H   -3.2779359583   -1.9106454105    0.9843616900
 H   -3.3498164154   -1.9352724673   -0.7719758836
 H   -2.4972523272   -4.3031677096   -0.7804533057
 H   -2.4070635912   -4.2830234751    0.9737273809
 H   -4.9024574079   -3.9867847326    1.1270429859
 H   -4.9834058975   -3.9009819005   -0.6443287888
 H   -4.0859302745   -6.2768961417   -0.7920053124