18

 C    0.0299563849    1.3540006278   -0.0955488288
 O   -0.0407571849   -0.0401158143    0.1341149398
 C    0.6695091768   -0.4927725684    1.2250419879
 C    0.5170269419    0.0289286459    2.6839393766
 C    1.8691938024   -0.6938414453    2.9093061616
 C    1.6654302750   -2.1708058765    2.5128689360
 C    0.8079583327   -2.0251192913    1.3073758881
 N    2.3021633730   -2.0575599626    1.1550400994
 C    2.2380751229   -0.5431298858    1.3971603150
 H    1.0693533046    1.6938417649   -0.2059854967
 H   -0.5062146810    1.5478778168   -1.0267545620
 H   -0.4436496517    1.9274970992    0.7126487847
 H    0.6342406372    1.1153877600    2.7501085465
 H   -0.3535842065   -0.2927533878    3.2628770795
 H    2.5382069925   -0.4433310612    3.7283569591
 H    1.7514564158   -3.0681337889    3.1137680466
 H    0.1615135559   -2.7808001489    0.8792851157
 H    2.9839240287    0.1231291564    0.9699043409