18

 C    0.0237802346    1.4320551563    0.0511617998
 C   -0.0026103651   -0.0551856507    0.0113553586
 C   -0.0291527691   -0.9209155722   -1.0124444561
 C    0.0286114424   -2.3048746890   -0.3442462145
 C   -0.9789034170   -2.0776918570    0.8420758193
 C    0.0692364988   -0.9790837670    1.2494789917
 C    1.0948071356   -1.9897854633    0.7226092749
 N    2.2190211476   -2.3793489640    1.1336910841
 O    2.7378611920   -3.4103152416    0.3106447835
 H    0.9410745490    1.7990559436    0.5294163268
 H   -0.0254531867    1.8561562112   -0.9558299195
 H   -0.8144991315    1.8354570718    0.6332761940
 H   -0.0330240458   -0.7271792644   -2.0759117914
 H    0.0435271089   -3.2036186434   -0.9539477589
 H   -1.9735524849   -1.7187218760    0.5657102939
 H   -1.0261413986   -2.9150572915    1.5447554139
 H    0.1216766149   -0.5394340427    2.2433679111
 H    3.5768618149   -3.6008026901    0.7429896288