18

 C    0.3514980422    0.9306340764   -0.2910702851
 O   -0.3374969129   -0.0993915388    0.4072502664
 C    0.4236736873   -0.6945579258    1.3857660811
 C    0.0903701509   -2.1076858553    1.7288806708
 C    1.3903868709   -1.8141552367    0.9778762047
 O    1.4544769417   -2.0904394059   -0.3776583858
 C    1.6595703715   -3.4648364239   -0.6854202205
 C    2.6393021451   -1.9307667781    1.6984177687
 N    3.6417209043   -2.0215524061    2.2697435647
 H    1.2148471685    0.5292406959   -0.8335931205
 H   -0.3601630966    1.3572783615   -1.0003257315
 H    0.6899121482    1.7191494445    0.3960979718
 H    0.7756178984   -0.0339647310    2.1796562691
 H    0.1397286168   -2.4329683122    2.7609582557
 H   -0.6814808510   -2.5646077267    1.1196809423
 H    0.8500236812   -4.0876911281   -0.2829629696
 H    1.6678216993   -3.5392345106   -1.7740664314
 H    2.6179171544   -3.8239282091   -0.2892971809