21

 C   -0.6360551721    1.3354349746   -0.0309193403
 C   -0.0664873056   -0.0755991021   -0.0887840831
 C    1.1522224675   -0.3849203773   -1.0149044674
 C    2.3131870845    0.6291911043   -1.0187488684
 O    2.9553582770   -0.0051054643    0.1123841947
 C    1.9160921836   -1.0023954875    0.1921165787
 C    0.7552179242   -0.6145396317    1.1080240654
 C    0.9032749837   -0.0299391767    2.4806373449
 C    0.2586368701   -1.3821793601    2.2990522668
 H    0.1263020745    2.0739979404    0.2352165828
 H   -1.0678344636    1.6255340072   -0.9952785146
 H   -1.4328214476    1.4030210191    0.7183644613
 H   -0.8750825889   -0.7756240180   -0.3311370844
 H    0.9523459916   -0.9076781658   -1.9493590563
 H    2.9497549481    0.5814378933   -1.9111312573
 H    2.0619502312    1.6783907209   -0.8227027227
 H    2.3184989572   -2.0178816469    0.2538068883
 H    1.9040733020    0.0223586537    2.8958883151
 H    0.2645389371    0.8051717095    2.7504088765
 H   -0.8150321504   -1.4617293890    2.4425079429
 H    0.8141945959   -2.2641933534    2.6032728872