20

 O   -0.0501620429    1.4070508143    0.0100022222
 C    0.0211821964   -0.0098145622    0.0019591447
 C   -1.4042117575   -0.5466192723    0.0124972876
 C   -1.4586078275   -2.0765552327    0.0051430728
 C   -2.8860032332   -2.6011126052    0.0158090008
 O   -2.8415261405   -4.0206362960    0.0080366609
 C   -4.1208311423   -4.5966536764    0.0171677269
 C   -3.9953582190   -6.0576849929    0.0083139684
 N   -3.9292714585   -7.2101459287    0.0015000901
 H    0.8464142278    1.7543134039    0.0029824833
 H    0.5504170389   -0.3792118038   -0.8918195920
 H    0.5670014973   -0.3884369862    0.8817990033
 H   -1.9151727408   -0.1501227662    0.8985339865
 H   -1.9315845873   -0.1410846152   -0.8597229538
 H   -0.9494355370   -2.4735343833   -0.8811493306
 H   -0.9329627978   -2.4825731939    0.8776159737
 H   -3.4244988343   -2.2456397771    0.9104149929
 H   -3.4411466130   -2.2364435054   -0.8648119808
 H   -4.6958200849   -4.3006421945    0.9106239136
 H   -4.7126790340   -4.2913397964   -0.8620354105