17

 C   -0.0622248047    1.5310323129    0.0361365364
 C   -0.0270152583    0.0275023406    0.0570000568
 C    1.0885929499   -0.8117190339   -0.6870675844
 N    2.0658230238   -0.4444639860    0.3962436064
 C    0.7905728741   -0.7946236819    1.1210826000
 C    0.4925146837   -1.9837795580    0.1674578567
 N   -0.9499272323   -2.0622923116    0.0116587691
 C   -1.3302620642   -0.7373797341   -0.1866229032
 O   -2.4126419330   -0.3135543941   -0.5084829989
 H    0.9416824528    1.9368057885    0.1775650282
 H   -0.4651475731    1.8905218248   -0.9153474055
 H   -0.7144555427    1.9116076710    0.8283197507
 H    1.3480838695   -0.7823099428   -1.7478848892
 H    2.7483118089   -1.2010136411    0.5150413152
 H    0.6936290156   -0.7518197954    2.2077599684
 H    1.0203088834   -2.9306711269    0.2748531800
 H   -1.4093056736   -2.7995623020   -0.5019835867