18

 C   -0.5308425407    1.4466270109   -0.0048501492
 C    0.0899882395    0.0595204953    0.0156255060
 C    1.3801876725   -0.1553159277   -0.8361465055
 N    2.0405003948   -0.6630432198    0.3743772878
 C    0.9315786903   -0.3275766721    1.2699340985
 C    3.3538690385   -0.7299867398    0.7107434024
 N    3.7461923810   -0.7649690880    1.9318257359
 C    4.2596230880   -0.7822710442   -0.4294372707
 N    5.0130016867   -0.8131022955   -1.3063821736
 H    0.2148018127    2.2171425467    0.2197971376
 H   -0.9620310426    1.6720659902   -0.9859198618
 H   -1.3311639128    1.5288128682    0.7379330014
 H   -0.6632096669   -0.6992377819   -0.2097323429
 H    1.3170319610   -0.8831503912   -1.6506166814
 H    1.8196948723    0.7730143673   -1.2217390642
 H    1.1684823348    0.5075446415    1.9405355295
 H    0.5753350332   -1.1690586610    1.8710312445
 H    4.7566141878   -0.8634462388    1.9896541057