20

 C    2.1190590083   -0.4268073345    0.9863798233
 C    0.6957890207   -0.0492933671    0.5604847785
 C    0.4370084676    1.4521425742    0.7164420810
 C    0.3720403975   -0.5273005764   -0.8889357328
 C    1.2502592927    0.0582073905   -1.8964448131
 C    1.9809381092    0.5337224904   -2.7268014025
 C    0.3012966907   -2.0763925480   -0.9183926404
 N    1.0375126556   -2.6927742003   -1.8743378279
 O   -0.3950253671   -2.6705280012   -0.1182895417
 H    2.2828446563   -1.5071595865    0.9254759870
 H    2.8652543920    0.0678555154    0.3555030132
 H    2.2994706544   -0.1219946361    2.0218216619
 H   -0.0111167205   -0.6004619146    1.1886522116
 H    1.1010984903    2.0388564665    0.0725645607
 H   -0.5957995088    1.7095548920    0.4579495594
 H    0.6110718494    1.7646276508    1.7508946248
 H   -0.6565289156   -0.2087046813   -1.1062901605
 H    2.6153968481    0.9694921471   -3.4589148789
 H    1.6112635600   -2.1678146891   -2.5122253145
 H    1.0094650691   -3.6973845418   -1.9267494492