23

 C   -0.0465291070    1.4832052287    0.1137221229
 C   -0.1864682910    0.0021814368    0.4201919951
 O   -1.0988800724   -0.5628312176   -0.5081416342
 C   -1.3042036813   -1.9265275300   -0.3226975850
 C   -2.2975930988   -2.3854471105    0.7201771550
 C   -2.6278079054   -2.4812403551   -0.7605706599
 C   -3.6665273815   -1.5932076353   -1.3686411390
 C   -4.0764265970   -1.7820533950   -2.8081482055
 C   -5.0341633145   -2.1396585306   -1.6974427818
 H    0.6557998049    1.9516168827    0.8097375208
 H    0.3219856655    1.6319636877   -0.9052296300
 H   -1.0131331545    1.9871968584    0.2043183347
 H    0.7898524882   -0.5038841696    0.3414650298
 H   -0.5488957853   -0.1539606481    1.4481889402
 H   -0.4117474442   -2.5358557597   -0.4784527489
 H   -2.1004326130   -3.2924081495    1.2816214810
 H   -2.8046290787   -1.6051013488    1.2786027322
 H   -2.5926309584   -3.4802985443   -1.1892784247
 H   -3.6265817247   -0.5674831056   -1.0188144326
 H   -4.2806654590   -0.9006517461   -3.4059118818
 H   -3.6184522691   -2.5950574288   -3.3624221981
 H   -5.2180220610   -3.1922173742   -1.5067965857
 H   -5.8976599818   -1.5040889655   -1.5336020142