18

 C   -1.2244379677   -0.1861028845   -0.3722583514
 O    0.1437664213   -0.0204903533   -0.0406708257
 C    0.5223987742   -0.5451338253    1.1970062545
 C    1.8860336211   -1.1822486341    1.2119445226
 C    0.6455247758   -2.0363647449    1.3322155282
 O    0.3469205574   -2.6611780836    2.5610849999
 C    0.0820963553   -1.8423552844    3.6116414767
 N   -0.0392175255   -0.5868047428    3.6552234204
 C    0.0554347980    0.2064251813    2.4356416091
 H   -1.8886082453    0.3862920904    0.2891355746
 H   -1.3453685490    0.1855291761   -1.3920181697
 H   -1.5249282030   -1.2422864113   -0.3366269211
 H    2.4221842414   -1.2229788394    0.2710920170
 H    2.4975467228   -1.0480277861    2.0981267024
 H    0.3722602812   -2.6792609862    0.5044862218
 H   -0.0228651468   -2.4404965741    4.5144005359
 H    0.7067963921    1.0673300889    2.6329405552
 H   -0.9400639432    0.6232647533    2.2409210597