23

 C   -0.2794073860    1.4815782234   -0.0572881431
 C    0.1298287236    0.0023041445    0.0525120443
 C    0.7964964814   -0.5271249322   -1.1815437885
 C    2.0429360232   -0.9848640988   -1.3093113912
 C    2.3722398847   -1.4233567260   -2.7148044725
 C    0.9834258588   -1.4575406358   -3.3984491387
 C    0.0738623720   -0.5668078467   -2.5151377884
 O   -1.2405886653   -1.0717597644   -2.3314864557
 C   -2.0629527801   -0.9410773134   -3.4666836534
 H    0.5891744009    2.1190114224   -0.2521156264
 H   -0.9986801486    1.6320945850   -0.8680294080
 H   -0.7488725095    1.8226125219    0.8704934999
 H    0.7978470268   -0.1340471636    0.9103078794
 H   -0.7696259023   -0.5942022962    0.2474884352
 H    2.7694685984   -1.0163542873   -0.5032550131
 H    3.0433582259   -0.7036430250   -3.2044687004
 H    2.8859650056   -2.3909449738   -2.7524605513
 H    1.0147055949   -1.1469234210   -4.4457991502
 H    0.5745114516   -2.4727144252   -3.3593436278
 H   -0.0060416547    0.4523319853   -2.9371729206
 H   -2.1360045923    0.1076953244   -3.7975960106
 H   -1.7033009372   -1.5422319586   -4.3151077321
 H   -3.0599419618   -1.2928827191   -3.1891297467