21

 C    0.1071272823    1.1163524421   -0.1323170221
 O   -0.4192410966   -0.0296676372    0.5110396322
 C    0.4658035241   -0.6312055392    1.4097393169
 C    0.1469126241   -2.0741591258    1.6769222165
 O   -0.9278871157   -2.6479184372    0.9993686934
 C    1.4002037969   -1.7084439508    0.9089072344
 C    1.6440585380   -2.1725676267   -0.5305667365
 C    3.0048394613   -2.7657158855   -0.0505663385
 C    2.8450117742   -2.0236518005    1.3116585029
 H    1.0201336123    0.8847738120   -0.6954128165
 H   -0.6593210938    1.4794747742   -0.8208823635
 H    0.3365972022    1.9080244422    0.5957207595
 H    0.7902520040    0.0143942698    2.2285002671
 H    0.2502485844   -2.4540599392    2.6910065343
 H   -1.3458652266   -1.9352068935    0.4981626207
 H    0.9069631343   -2.8807320268   -0.9164157162
 H    1.7588219632   -1.3587008400   -1.2523983830
 H    2.9716140935   -3.8521487642    0.0570146029
 H    3.8843320486   -2.5039558151   -0.6425535646
 H    3.4760347423   -1.1316204775    1.3888504617
 H    2.9821512869   -2.6219961814    2.2174077484