19

 C   -0.3713439336    1.3424368065    0.8295049384
 O   -0.1771352942   -0.0355791699    1.0458985570
 C    0.8429026508   -0.5805000117    0.2397117884
 C    0.9304094350   -2.0533993180    0.5301402041
 C   -0.2716000744   -2.9293281706    0.8226674874
 C    0.8137189149   -2.7076058623    1.8648825919
 O    1.8616838626   -3.6438562195    1.9529494701
 C    2.3486126302   -3.8211234404    0.6373406904
 O    2.0343250013   -2.6558418746   -0.1078967279
 H   -0.6568780986    1.5541653798   -0.2126029720
 H   -1.1786519854    1.6652309755    1.4909059027
 H    0.5346872424    1.9229120385    1.0625658202
 H    0.6269209627   -0.4144717400   -0.8295069135
 H    1.8168457939   -0.1109669852    0.4557087781
 H   -1.2013531121   -2.4008514513    0.9992491012
 H   -0.3682318715   -3.8939978740    0.3370607918
 H    0.6206018518   -2.1982859225    2.7991848353
 H    3.4351000830   -3.9530034541    0.6646824491
 H    1.8780563213   -4.7022643163    0.1714803372