18

 O   -0.0518812002    1.3270687617   -0.4906508055
 C   -0.0048525614    0.0502390131    0.1290095108
 C   -1.3924231522   -0.5335259244    0.1006333152
 C   -1.8899476470   -1.2298758646   -1.1379197069
 C   -1.5851116529   -2.0246664694    0.0988930264
 C   -0.5902594718   -3.1797401631    0.3307534820
 N   -1.6526341321   -3.8051739910    1.1292400626
 C   -2.5841193765   -2.8054317346    0.9393513237
 O   -3.7185906891   -2.6524118415    1.3066179002
 H    0.8027219896    1.7511760197   -0.3677859825
 H    0.6911558395   -0.6237394062   -0.3983893720
 H    0.3442266719    0.1281653607    1.1709985818
 H   -2.1300521503    0.0269354882    0.6685116814
 H   -2.9338746692   -1.1187666374   -1.4102993245
 H   -1.2038550280   -1.3180402163   -1.9745313805
 H   -0.3116881562   -3.7424477562   -0.5665168958
 H    0.3086560774   -2.9297062454    0.9044252900
 H   -1.7077024315   -4.6959588933    1.5979111136