20

 C   -0.1527553220    1.5086690943   -0.0130144559
 C   -0.0274156529    0.0042059785    0.0815820042
 C    1.3148293373   -0.6812133111   -0.1586469800
 C    0.7089155405   -0.6450429598    1.2051696414
 C    1.3326498785   -0.1449261706    2.4800274716
 C    0.3781305850   -0.6236658585    3.6006081567
 C   -0.7439805850   -1.3546631385    2.8830197367
 N    0.2821031576   -1.9018804463    1.9005799654
 C    1.3561959967   -1.5648281008    2.9665374638
 H    0.7337629162    2.0041442144    0.3969466878
 H   -0.2610588693    1.8344296123   -1.0534597908
 H   -1.0221957072    1.8744476313    0.5447076750
 H   -0.8898305755   -0.5539207098   -0.2771113769
 H    1.3153716588   -1.6314912100   -0.6813004910
 H    2.1778663583   -0.0509805244   -0.3534538119
 H    2.0640640960    0.6354120634    2.6480433972
 H    0.4097280922   -0.1874324233    4.5916126074
 H   -1.1553487316   -2.1786824479    3.4717563035
 H   -1.5549669377   -0.7855657146    2.4156017398
 H    2.1272772340   -2.2323207786    3.3229194560