17

 O   -0.0806843538    1.3927013729   -0.0011666651
 C   -0.0135679767    0.0104297579    0.0078908244
 C   -1.3397142667   -0.7624650442   -0.0162318755
 C   -0.8521321937   -2.0497360328   -0.5810893345
 O    0.2435097435   -1.8970398461   -1.4519079532
 C    0.9924776937   -0.8043653325   -0.9423995040
 C    1.7972355533   -1.2403087219    0.3138300694
 C    0.5506999757   -0.8940871896    1.1580239405
 C   -0.6751237612   -1.8097020939    0.9054780097
 H    0.8064896198    1.7502199256    0.1124640813
 H   -2.3394156511   -0.3523938569   -0.0637180218
 H   -1.5329358311   -2.8275985154   -0.9035628288
 H    1.5040366756   -0.3032245396   -1.7672916329
 H    2.1641823043   -2.2689181979    0.3054254855
 H    2.6271030084   -0.5573890304    0.5262782068
 H    0.6380084464   -0.5308589635    2.1829423461
 H   -1.1325517165   -2.4604629918    1.6416351421