14

 N    0.0126898960    1.3765790592    0.2314665227
 C    0.0426791438    0.0044751927    0.0502294388
 N   -1.0290399563   -0.7819553751    0.1123115695
 N   -0.5224313146   -2.0101126315   -0.0421838870
 N    0.7916630579   -2.0911653231   -0.2177881261
 C    1.1692798645   -0.8224573433   -0.1540452137
 O    2.4382593293   -0.3680371881   -0.3114178718
 C    3.4719833093   -1.2040091584    0.0042151401
 N    4.6431153017   -0.8383447870   -0.2721089712
 H    0.7610209037    1.8597629405   -0.2455193799
 H   -0.8891096155    1.7850861942    0.0284196768
 H   -1.1064345505   -2.8276738383   -0.0349971889
 H    3.1400876965   -2.1272723001    0.4852399996
 H    5.3082589342   -1.5427576816    0.0408911411