18

 O   -0.4052858463    0.5739210894    0.8434979180
 C    0.0819574134    0.9924785680   -0.1737603440
 C    1.3827996371    1.7606616958   -0.2584303882
 C    1.2063734135    3.1084955397   -0.9823672112
 C    2.5193957704    3.8435420557   -1.1444241637
 C    3.4385763651    3.5455391629   -2.2904796095
 C    2.7117930175    4.8835904785   -2.2435808003
 C    1.6562913814    5.1454162044   -3.1811265732
 N    0.8008567130    5.3524770533   -3.9325661063
 H   -0.4194828937    0.8337762149   -1.1577630051
 H    1.7757472770    1.8914433269    0.7541332801
 H    2.0961285849    1.1430688049   -0.8232772232
 H    0.7525620947    2.9440298103   -1.9667683041
 H    0.5040078154    3.7365928588   -0.4214796555
 H    3.0029047887    4.1117263200   -0.2087473200
 H    4.5106790896    3.5645995741   -2.1340179025
 H    3.1017013410    2.8380391751   -3.0402658135
 H    3.3024765074    5.7579208073   -1.9928196478