16

 C    0.0819182531    1.4618492759    0.0283550284
 C   -0.0748404559   -0.0150156283   -0.0022466092
 C   -1.1709929703   -0.8199130680   -0.1566062908
 C   -0.6595177437   -2.1526543247   -0.0947439747
 C    0.7042240256   -2.0549150696    0.0916858514
 O    1.0840124490   -0.7485985256    0.1512796201
 C    1.2801251047   -3.3435116305    0.1627239046
 C    0.2106219465   -4.2081502687    0.0119007911
 N   -0.9633875334   -3.4895644326   -0.1450869913
 H    0.7469538573    1.8135613692   -0.7693367398
 H   -0.8909890651    1.9412387789   -0.1017435804
 H    0.5075074642    1.8027986063    0.9796389779
 H   -2.1842427472   -0.4761505125   -0.2924035566
 H    2.3109721659   -3.6251371994    0.3008317749
 H    0.1939977685   -5.2860529245    0.0026283230
 H   -1.8731280992   -3.8959253059   -0.2657636485