20

 O    0.3539346073    1.2886324312   -0.0435607549
 C    0.0527887951   -0.0916407657    0.1115912988
 C   -1.4482049920   -0.3738314332    0.1362794823
 N   -2.0997744725    0.0217056178   -1.0996327716
 C   -2.4882839829    1.4461763102   -1.2777297357
 C   -3.8435035610    0.9707933706   -1.7973221737
 C   -5.1196492725    1.6543062032   -1.9742092727
 O   -4.3186780912    1.2529809518   -3.0981910137
 C   -3.4928519933   -0.4382080956   -1.3194170606
 H    0.2182930881    1.5098990465   -0.9695462350
 H    0.5210436813   -0.6897973689   -0.6827864803
 H    0.4935080556   -0.3967264844    1.0672289184
 H   -1.5914327651   -1.4542060691    0.2648336690
 H   -1.8976286976    0.1258143683    1.0166525041
 H   -2.5464866017    2.0098357782   -0.3350085174
 H   -1.8800389060    2.0090470840   -1.9948786759
 H   -6.0523454325    1.1058721765   -1.8460340596
 H   -5.1875427207    2.7291129357   -1.8093055848
 H   -3.5977980930   -1.2417042753   -2.0564075271
 H   -4.0193074753   -0.7220732317   -0.3946309197