16

 C   -0.0487790715    1.4874189119    0.0732977873
 C    1.3698281965    2.0983444593    0.0050024798
 C    2.2115121004    1.3851742452   -1.0064673495
 C    3.2922716253    1.6571164608   -1.8085710631
 N    3.6639501435    0.5125278265   -2.4577741372
 N    2.8760179482   -0.4582542967   -2.1027948634
 N    1.9878908594    0.0596054876   -1.2194858458
 C    0.9446223245   -0.6724080009   -0.6359867877
 C   -0.0258300297   -0.0223878863    0.0063239511
 H   -0.5473439663    1.8224904689    0.9876624387
 H   -0.6566616684    1.8677500308   -0.7607554850
 H    1.3208702908    3.1670482588   -0.2186742111
 H    1.8481091951    2.0051671685    0.9898556363
 H    3.8200187734    2.5853972271   -1.9566456043
 H    1.0154537794   -1.7426692486   -0.7723852719
 H   -0.8397610605   -0.5848570628    0.4481711459