16

 C    0.1148689339    1.3877439090    0.1000984623
 N    0.0954990250   -0.0616887215   -0.0113300673
 C    0.4968269817   -0.6419624479   -1.0454946638
 O    0.9978028052   -0.0439773142   -2.1871651976
 C    1.6457163475   -0.9886938391   -2.9823501035
 O    2.1179236209   -0.6891205967   -4.0310467794
 C    1.6251453106   -2.3271386005   -2.2624341949
 C    0.5355869833   -2.1515742614   -1.2022506079
 O    0.8042320349   -2.8057874595    0.0066568639
 H    0.5838298703    1.8911390465   -0.7515869295
 H   -0.9140728656    1.7485664239    0.2031117075
 H    0.6436801118    1.6632235772    1.0180134992
 H    1.4714861017   -3.1420313838   -2.9691783733
 H    2.5934868437   -2.4726259152   -1.7705297243
 H   -0.4346312990   -2.4731222019   -1.6177031019
 H    0.4634838041   -2.2233362947    0.7011276803