19

 O   -0.0403716667    1.2799765406   -0.9518333821
 C   -0.0629873213    0.0605247056   -0.2727695905
 C   -0.0756677057   -1.2260084780   -1.0621476659
 C   -1.3139851290   -0.7737836913   -0.3040962875
 C   -1.5530126886   -1.3398536549    1.0843896633
 C   -0.1737948216   -1.2102459327    1.8039660535
 C    0.4952138625    0.0286233347    1.1423961729
 C   -0.2699081607   -1.1297151435    3.2532281469
 C   -0.3594257214   -1.0513121196    4.4497882288
 H    0.8539025533    1.4216108805   -1.2810071455
 H   -0.1202346016   -1.1095170119   -2.1394274769
 H    0.4885885425   -2.0908926417   -0.7261279607
 H   -2.1636822881   -0.4452835280   -0.8912694997
 H   -2.2988999553   -0.7319098717    1.6070451171
 H   -1.9088627893   -2.3747977201    1.0903209981
 H    0.4247195181   -2.0947872267    1.5554418759
 H    1.5880328093   -0.0272782717    1.1916288196
 H    0.1831204702    0.9458420513    1.6522756610
 H   -0.4354376767   -0.9861499609    5.5067063516