21

 C    0.0095012070    1.4172180706   -0.1294042008
 C   -0.0059930939   -0.0829329919    0.0468815112
 O   -0.0789322308   -0.6656095366    1.0992128862
 O    0.0740119564   -0.7035793214   -1.1485300451
 C    0.0667157579   -2.1433516531   -1.1110617045
 C    0.1919800381   -2.6442687925   -2.5429173088
 C    0.2073490677   -4.1563833279   -2.6123353650
 C   -1.0868413511   -4.9341189964   -2.6242280332
 C   -0.2316984630   -4.8681536473   -3.8656084624
 H   -0.0517486016    1.8977144614    0.8462021203
 H    0.9252545950    1.7259052395   -0.6414915372
 H   -0.8322891247    1.7304659329   -0.7534999923
 H    0.8966999569   -2.4892528472   -0.4856950176
 H   -0.8602779371   -2.4877536488   -0.6417360347
 H   -0.6457338674   -2.2533289783   -3.1331613203
 H    1.1070511223   -2.2324618000   -2.9862659569
 H    1.0291016746   -4.6205763434   -2.0718565201
 H   -1.1358802861   -5.8700092528   -2.0790414150
 H   -2.0147685043   -4.3709787978   -2.6206549414
 H   -0.5860913048   -4.2621928875   -4.6931589810
 H    0.3075599090   -5.7587643112   -4.1683991813