22

 C   -0.0447845774    1.4294767807   -0.0061482790
 C    0.0755993208   -0.0928432009   -0.1666825986
 C    0.8882198526   -0.4728448585   -1.4154952334
 C    0.7383752470   -0.6986861949    1.0628987275
 N    0.0324397999   -0.5968605839    2.4433357579
 C   -0.8291029466   -1.7852724970    1.9886220857
 C    0.5902084581   -2.1697152612    1.4986645467
 O    1.0209182941   -3.2522092252    0.7471487879
 C    1.0458075312   -1.6601528278    2.8907163710
 H    0.9452804480    1.8920433960    0.0846729245
 H   -0.5410973532    1.8753796539   -0.8742053642
 H   -0.6154832224    1.6855900262    0.8907016293
 H   -0.9331855062   -0.5007387626   -0.2932809453
 H    1.9049755265   -0.0658284953   -1.3599022757
 H    0.9674951542   -1.5587650091   -1.5213096209
 H    0.4203878950   -0.0709247058   -2.3200081915
 H    1.7621158016   -0.3101129095    1.1379578422
 H   -1.2503433558   -2.3497572013    2.8253795855
 H   -1.6006270905   -1.5348086433    1.2615813183
 H    0.8099724622   -4.0650286221    1.2200417297
 H    2.0650478737   -1.2796277590    2.9944917817
 H    0.7239672872   -2.2120800394    3.7780677408