19

 C   -0.0144579182    1.3710527740   -0.2828134430
 C    1.4461714053    1.6118949214    0.1913270558
 C    1.2951586697    0.2757142738    0.9049969859
 C    2.1514104254   -0.9128001051    1.3333529089
 N    1.0867092992   -1.3475057374    2.3155176278
 C   -0.0997082086   -1.9483692312    1.5984503629
 C   -0.6482566754   -0.5649455934    1.1981624857
 C    0.4227992989    0.0227159401    2.1698341508
 N    0.1187924643   -0.0989417580    0.0063457967
 H   -0.7500294374    1.8760673350    0.3571663805
 H   -0.2511478596    1.5842130206   -1.3278260446
 H    2.1596436749    1.5591013062   -0.6359320704
 H    1.6584188836    2.4950685682    0.7970876855
 H    2.4093760951   -1.6447538295    0.5618430244
 H    3.0530826538   -0.6320460295    1.8886695389
 H    0.1442155991   -2.6311205899    0.7792342444
 H   -0.7320241378   -2.4620987467    2.3293095193
 H   -1.7239267762   -0.3748472327    1.1888265056
 H    0.3035845741    0.6551247340    3.0502560648