23

 C   -0.3326301592    1.4653901519   -0.1078394478
 C    0.1804553330    0.0246194633    0.0206836779
 C    0.8728093076   -0.4851378202   -1.2151195427
 C    2.0118986466    0.2104721679   -1.9698532982
 C    1.7142103988   -0.7726709837   -3.1301695938
 C    2.1218897725   -2.1513477223   -2.5535905940
 C    0.9449955528   -1.9873586162   -1.5877453656
 C    0.3345622201   -3.0825368630   -0.7628645162
 C    0.2726664286   -0.9927717258   -2.5157000882
 H    0.4870339472    2.1687757348   -0.2857643796
 H   -1.0367842470    1.5583737685   -0.9413181945
 H   -0.8462304082    1.7800950489    0.8059866398
 H    0.8703334021   -0.0385329231    0.8742342826
 H   -0.6624432676   -0.6310206077    0.2684149532
 H    1.7408863671    1.2381736531   -2.2295052233
 H    3.0225224099    0.1960714776   -1.5414053197
 H    1.9405279016   -0.5059113608   -4.1604773619
 H    1.9287862683   -2.9654373373   -3.2599947220
 H    3.1375287257   -2.2514842811   -2.1492742674
 H    1.0013381975   -3.3892897802    0.0524976740
 H   -0.6170733328   -2.7818054244   -0.3143645524
 H    0.1388940304   -3.9679831032   -1.3788533306
 H   -0.7295864550   -0.9470854071   -2.9193790198