21

 C    0.7885244139    1.5087782711   -0.3778105420
 C    0.1231233210    0.1763593310    0.0012681533
 C    0.2936673987   -0.8782221543   -1.0678256523
 C    1.1107923436   -1.8626411166   -0.7016896128
 C    1.6656742984   -1.6820383060    0.6924697825
 C    3.1678772147   -1.3577364164    0.6883768083
 C    0.7227151786   -0.5565516909    1.2577909984
 C    1.3122308973    0.3081311282    2.2669208019
 C    1.7910347454    1.0193913201    3.1110011940
 H    1.8571558077    1.3810603083   -0.5741188077
 H    0.3290415588    1.9172192591   -1.2841766798
 H    0.6769722541    2.2437869345    0.4238835164
 H   -0.9387324563    0.3808556947    0.1874401041
 H   -0.1782582020   -0.7856282845   -2.0406415434
 H    1.4075784789   -2.6961416285   -1.3300631103
 H    1.5274341079   -2.5902687589    1.2924912004
 H    3.3809525490   -0.4547138145    0.1087464660
 H    3.5372878351   -1.2022120891    1.7056014725
 H    3.7322300452   -2.1827089476    0.2407480059
 H   -0.1190380951   -1.0811370663    1.7259252178
 H    2.2133364153    1.6472443766    3.8557424367