22

 C    0.0430621837    1.5795951289   -0.1040270200
 C    0.0346712221    0.0495872695   -0.0502492100
 C    0.7184946174   -0.5922708346   -1.2625382925
 C    0.7023910348   -2.1107644992   -1.1951780440
 O    1.3626390070   -2.6084853086   -2.3689902529
 C    1.4480464348   -3.9462483412   -2.4875763436
 N    0.9824047142   -4.7502972471   -1.6297561501
 C    2.1692545706   -4.2923702716   -3.7747274748
 O    2.2456937259   -5.6983523297   -3.8753917871
 H    1.0668101286    1.9684757226   -0.1360745972
 H   -0.4772362383    1.9467322517   -0.9955508325
 H   -0.4505330795    2.0118558392    0.7717802188
 H    0.5313008048   -0.2877730953    0.8688789542
 H   -1.0007091739   -0.3093447208    0.0161255420
 H    0.2219324898   -0.2696001630   -2.1862309645
 H    1.7580286070   -0.2479582687   -1.3312159344
 H    1.2209249106   -2.4859847171   -0.3057172651
 H   -0.3185165181   -2.5076295887   -1.1624522333
 H    1.1671548902   -5.7047694945   -1.9368374586
 H    1.6161046704   -3.8423319504   -4.6131001574
 H    3.1630316816   -3.8198443225   -3.7523945658
 H    2.7027616763   -5.9208519391   -4.6906937713