18

 C   -0.5778279758    1.3496353152    0.1294142311
 C    0.1898526652    0.0512448188    0.0042570384
 C    0.9066763219   -0.2532646269   -1.3330730070
 C    2.1888128429   -0.2571719523   -0.4823846215
 O    1.4678771632    0.0955873364    0.7066217429
 C    2.8758956066   -1.6273081866   -0.3499508322
 O    3.4242230516   -2.0555561922   -1.5820294441
 C    3.8938582533   -1.5988380493    0.7180797496
 N    4.7289023745   -1.5549839861    1.5153915187
 H    0.0088432685    2.1893806676   -0.2556395972
 H   -1.5168950574    1.2917772860   -0.4319211290
 H   -0.8180054393    1.5502988399    1.1779735273
 H   -0.4144439614   -0.7845042729    0.3805429678
 H    0.6624196436   -1.2002985710   -1.8165023553
 H    0.8502456042    0.5509236608   -2.0683610927
 H    2.9445037558    0.4973211110   -0.7415242524
 H    2.1182099371   -2.3708739797   -0.0807347654
 H    4.1787958457   -1.4928819288   -1.7920371291