19

 O   -0.6687028347    0.5675794645    0.5278416454
 C    0.1948296398    0.8883673903   -0.2474358725
 C    1.2216541554    1.9767414003   -0.0030273630
 C    1.2197960584    3.0073464992   -1.1162111493
 C    1.9596126465    2.7457024941   -2.4198176630
 C    2.4300014059    3.8481097738   -1.5061890952
 C    1.9449516263    5.2715701132   -1.7776405253
 C    0.4398490173    5.1616611337   -1.6435899200
 C    0.0576641113    3.9422416558   -1.2599633180
 H    0.2898524906    0.3893687550   -1.2398598688
 H    1.0230603532    2.4291602698    0.9734723831
 H    2.2075078061    1.4927062027    0.0371215841
 H    2.5859735013    1.8601077029   -2.4752465716
 H    1.4608922139    3.0043393835   -3.3482571338
 H    3.3770154448    3.7067665805   -0.9977964346
 H    2.3593107559    5.9848425152   -1.0524871230
 H    2.2467634991    5.6324551828   -2.7695525270
 H   -0.2267636075    5.9886863424   -1.8599477699
 H   -0.9651820037    3.6263415703   -1.0853202875