21

 C   -0.0548160170    1.3811897371   -0.2920884570
 O   -0.0417763300    0.0035553478    0.0436517556
 C   -1.3353860332   -0.5755637691    0.0815718433
 C   -1.6702691998   -1.2858060357   -1.2758075503
 O   -1.0078306876   -0.8095565621   -2.4166017771
 C   -1.2170929873   -2.6337891801   -0.6475516778
 C   -1.3038580788   -1.9721891936    0.7559129182
 C   -0.2061718288   -2.2565902515    1.7614816061
 O   -0.3214999135   -3.6241559509    2.1356570999
 H    0.9845974506    1.7192996338   -0.2971702327
 H   -0.4978538670    1.5556038911   -1.2804179819
 H   -0.6149219550    1.9641563881    0.4539716539
 H   -2.0605385190    0.1506231284    0.4715795299
 H   -2.7407788410   -1.2672111170   -1.4977615337
 H   -0.0855373485   -0.6956842703   -2.1546466236
 H   -1.8322900613   -3.5148843583   -0.8367847868
 H   -0.1821611037   -2.8650374624   -0.9199655579
 H   -2.2721518476   -2.1768435025    1.2235214573
 H    0.7726437180   -2.0426215512    1.3110034330
 H   -0.3172507241   -1.5922168188    2.6340724197
 H    0.4198663444   -3.8402972929    2.7084839518