20

 C    0.4958378954    1.4072688107   -0.0482261374
 C    0.0972578729   -0.0320580857    0.2789651825
 O    0.2811815598   -0.3296734438    1.6522831197
 C   -1.3657081846   -0.3328704711   -0.1604172417
 C   -1.6187872934   -1.7750145137   -0.2432177339
 C   -1.8423914374   -2.9550100332   -0.3121701399
 N   -2.2739564962    0.4203877524    0.7236411815
 C   -3.7050545503    0.1452402903    0.6519067992
 C   -2.9187693596   -0.2649120924    1.8454160579
 H    1.5018821501    1.6046947240    0.3307061892
 H    0.4915972158    1.5838743897   -1.1290547800
 H   -0.2034277316    2.1111793751    0.4134147567
 H    0.7533143993   -0.7262445442   -0.2559743912
 H   -0.2643479468    0.2940126766    2.1451032444
 H   -1.4993245116    0.0906125552   -1.1646029602
 H   -2.0230321557   -3.9996575168   -0.3783717706
 H   -4.3495485405    1.0191732115    0.6801898812
 H   -4.0341898861   -0.6536180664   -0.0089707886
 H   -2.7309644795   -1.3270875417    1.9718126484
 H   -2.9761791599    0.3109748833    2.7651341928