17

 C   -0.2697535557    0.9290579379    0.3260055164
 C    0.4934074111    0.2291222298   -0.7721397081
 O    1.7044444349    0.2717619236   -0.8577860710
 C   -0.3296714333   -0.6136992342   -1.7560392570
 N   -0.4688317805   -1.9742524287   -1.2410769685
 C    0.5615326232   -2.7445170524   -1.3199616924
 N    1.8074341047   -2.4877913876   -1.7964524293
 C    0.3394285256   -4.1595434623   -0.8666737245
 O    1.2073574307   -4.9979255876   -0.8846860487
 H    0.4163841787    1.3924226875    1.0354393465
 H   -0.9265334786    1.6924437530   -0.1076362405
 H   -0.9178948150    0.2073218435    0.8352083267
 H   -1.3315012911   -0.1910428894   -1.8754478439
 H    0.1871992735   -0.5927512390   -2.7264881518
 H    2.1537406140   -1.5375916657   -1.7676272186
 H    2.4706439423   -3.2409686858   -1.6822453476
 H   -0.6930730743   -4.3522883127   -0.5215893378