20

 C    0.2286992936    0.0146204933    1.0230333678
 C   -0.3593288873    0.2130408745   -0.3816062903
 O   -0.0758189171    1.5164154944   -0.8875793378
 C    0.0859286006   -0.8357863617   -1.3057736908
 C    0.4943357731   -1.6759269282   -2.0668172157
 C    1.0078253795   -2.6847705924   -2.9904195203
 C    2.5077052073   -2.5707118184   -3.2201925249
 C    3.0867383985   -2.9557585138   -4.5292226706
 N    3.0468336348   -1.5403805936   -4.1149561981
 H   -0.0767335070   -0.9490475974    1.4412076561
 H    1.3226250022    0.0379518226    0.9858248758
 H   -0.1188057623    0.8166901097    1.6794402190
 H   -1.4535644272    0.1824005629   -0.3102628697
 H    0.8597174237    1.5360645210   -1.1186601586
 H    0.7776690092   -3.6866805925   -2.6029739183
 H    0.4887642825   -2.6063528510   -3.9559626878
 H    3.1051655688   -2.7164347853   -2.3228449376
 H    4.0806718476   -3.3902234026   -4.5845424975
 H    2.4035904691   -3.2929675539   -5.3053932913
 H    2.2842296203   -1.0610861275   -4.5889974291