23

 C   -0.1362744099    1.5824748113   -0.0981801954
 C   -0.0461154597    0.0828001113    0.0525670616
 N    1.2667665421   -0.5422652250   -0.1780613720
 C    0.6587091450   -0.6189403644    1.1646259453
 C    1.3813554931    0.0849781514    2.2670107690
 N    0.7892887672   -0.0162416590    3.6179777084
 C    2.1211998708   -0.6028364528    3.3675452182
 C    2.1871713078   -2.1139998465    3.4649430244
 C    3.3316499307    0.1071627615    3.9427204156
 H    0.7756471815    2.0741407282    0.2474138663
 H   -0.2771065868    1.8527675674   -1.1503538456
 H   -0.9844741773    1.9814041784    0.4687484175
 H   -0.9138474108   -0.4498522728   -0.3369387986
 H    1.1697050679   -1.4281091915   -0.6659068420
 H    0.2182659168   -1.5670397742    1.4631960251
 H    1.7949320977    1.0473078235    1.9734488026
 H    0.8751832692    0.8715535924    4.1071082838
 H    1.2548568285   -2.5790985997    3.1409329353
 H    3.0070673660   -2.5094875551    2.8551060479
 H    2.3640384647   -2.4194927637    4.5026320835
 H    3.4389599656   -0.1118072450    5.0120714873
 H    4.2529261938   -0.2166448368    3.4458579523
 H    3.2518115763    1.1928028012    3.8243495195