15

 C   -0.0129300848    1.4211438307    0.0066703977
 O    0.0198183377   -0.0073748118   -0.0344234581
 C    0.6151199794   -0.6020017377   -1.0760379510
 C    0.6441605594   -1.9739062843   -1.1103533334
 C    1.2691476778   -2.6582176424   -2.2031556071
 O    1.3890048078   -3.8523149845   -2.4003751692
 N    1.8047230246   -1.7356325077   -3.1586607181
 C    1.7245381630   -0.3999196839   -3.0336521342
 N    1.1551854687    0.2088755959   -2.0376431958
 H    0.9963424070    1.8403145756    0.0238376057
 H   -0.5496620293    1.8300932911   -0.8531625241
 H   -0.5384448122    1.6671224511    0.9301904770
 H    0.1988152350   -2.5595595993   -0.3184709228
 H    2.2605292495   -2.1573079085   -3.9569125524
 H    2.1725633965    0.1893239658   -3.8304942641