14

 O   -0.0764335297   -0.0429405025    0.4258128202
 C    0.1132721309    0.9470471278   -0.2436491916
 C    1.2974677122    1.7621723368   -0.1774632310
 C    2.2725847415    2.4751403483   -0.1582979459
 C    3.4404057732    3.2972994181   -0.0837947578
 N    3.7440599308    4.1627895488   -1.2410328609
 C    3.3441986888    4.8074561932    0.0175003078
 C    2.0865023461    5.4962963142    0.0552500386
 C    1.0439676020    6.0891386521    0.1242147326
 H   -0.6373936190    1.3044530054   -0.9772436094
 H    4.2783065081    2.8572165010    0.4525871945
 H    4.7527901303    4.2285146563   -1.3569178722
 H    4.1285025953    5.2609223422    0.6208098510
 H    0.1187315297    6.6084286884    0.1736914141