19

 C   -0.2353630858    1.4659536573   -0.0163576221
 N    0.0748366706    0.0515211943   -0.0216472502
 C    0.7733391409   -0.4447253036   -1.2257169529
 C    1.7340258895   -1.4884613650   -0.6624462840
 C    1.2437078293   -1.9049997884    0.7432617281
 C    2.6868966478   -1.5970651168    1.2514240028
 C    2.3389201032   -0.1585745901    1.1851549028
 C    0.8196174782   -0.4581126771    1.1103019597
 N    2.9457148486   -0.8485791869   -0.0116781701
 H    0.6573408845    2.1150402678   -0.0895704095
 H   -0.8907267081    1.7064364657   -0.8601408181
 H   -0.7699242919    1.7247610958    0.9039043266
 H    0.0600547319   -0.8550520590   -1.9521486902
 H    1.3535441870    0.3441873758   -1.7313296169
 H    2.0543810449   -2.2712228641   -1.3500172987
 H    0.6029682955   -2.7590671570    0.9459115795
 H    3.4406758544   -2.1478482208    1.7958051603
 H    2.8715149952    0.7025803788    1.5673239256
 H    0.2942892241   -0.3268651367    2.0583393272