19

 C   -0.0296614941    1.4195751445    0.0834551472
 N   -0.0430741350   -0.0207530469   -0.0801933279
 C    0.6229208734   -0.6163081489   -1.1057583701
 C    1.2188257163   -0.0780802692   -2.1901217729
 C    1.7283561911   -1.1528219833   -3.0255990556
 N    2.3433704497   -1.0612480380   -4.1306691582
 O    1.4346287536   -2.3606510461   -2.4063866927
 C    0.7343151075   -2.1259955709   -1.1845871923
 C    1.4882292354   -2.7731496764   -0.0235946153
 H    0.9851005163    1.8183011008    0.2245683668
 H   -0.4621176344    1.8984068790   -0.8014369009
 H   -0.6385475953    1.6898144710    0.9482945302
 H   -0.1775108733   -0.5684599460    0.7535351174
 H    1.3289576526    0.9618741756   -2.4513498707
 H    2.5783390616   -1.9906538793   -4.4806602497
 H   -0.2661010457   -2.5756373714   -1.2693862713
 H    2.4778535998   -2.3214690507    0.0871158174
 H    0.9400449005   -2.6587690703    0.9183749305
 H    1.6099210800   -3.8429084134   -0.2111290119