18

 O    0.1292658688    1.4009907064    0.1502836673
 C    0.0574126806    0.0010585104    0.0277101599
 C   -1.3624867758   -0.5285902601   -0.2724072456
 C   -1.6865005004    0.0627350848   -1.6496574092
 C   -0.3467945720   -0.2489836088   -2.3436455810
 C   -1.4544677122   -1.2853502189   -2.2419859369
 N   -1.1775545621   -1.9163840516   -0.9261168777
 C    0.3006791414   -2.0973686285   -0.9740442345
 C    0.6859330013   -0.6264308472   -1.2441831859
 H   -0.2174871345    1.7782147609   -0.6674003299
 H    0.4934176659   -0.4024647793    0.9457247484
 H   -2.1054275168   -0.5029458779    0.5221026778
 H   -2.3867962775    0.8404190672   -1.9254641086
 H   -0.0867860192    0.2149333120   -3.2853908250
 H   -1.9273513448   -1.8131962796   -3.0611546878
 H    0.6894905158   -2.4896487324   -0.0292436946
 H    0.5589781861   -2.7865935436   -1.7823410965
 H    1.7270505354   -0.3782917237   -1.4447806903