19

 C   -0.0207818731    1.5367060200   -0.3968480662
 C    0.0556025659    0.0619620599   -0.0771648545
 O    0.4283387288   -0.6809930441   -1.2227182820
 C    1.1887720993   -1.7960555937   -0.7776654589
 C    2.7098157483   -1.6958174629   -1.0809448089
 C    3.0018257449   -1.6038135424    0.4535316435
 O    3.7562982424   -0.5317232150    0.9366282625
 C    1.4683663684   -1.5331669984    0.7254832578
 O    1.0586990255   -0.1840973252    0.9018313531
 H    0.9462448304    1.8854285397   -0.7679210685
 H   -0.7791050806    1.7094698988   -1.1643381833
 H   -0.2910687647    2.1014684174    0.4988530215
 H   -0.9097900255   -0.3138826483    0.3068133779
 H    0.6965819704   -2.7341131044   -1.0474870102
 H    3.1563390743   -2.5497591060   -1.5946989526
 H    2.9539548450   -0.7795207597   -1.6214170951
 H    3.4452466195   -2.5243496954    0.8437678828
 H    3.1593581308    0.2291076823    0.9376379478
 H    1.0348103399   -2.1860634924    1.4899082332