18

 C   -0.0023244958    1.5956934038   -0.1014245448
 C   -0.0213650063    0.0701545769    0.0946693737
 C   -1.4019444788   -0.5195876342    0.0549407365
 C   -2.0819395484   -1.0792738407    1.1106122721
 N   -3.3179160338   -1.4885756099    0.6575511010
 C   -3.4387503152   -1.2035938248   -0.6784480334
 N   -4.6523884480   -1.4971547420   -1.3381325185
 C   -2.2666439970   -0.6051526613   -1.0836010168
 H    1.0209030087    1.9854365419   -0.0750246908
 H   -0.4442586760    1.8739977252   -1.0635365567
 H   -0.5800043539    2.0953576277    0.6826175799
 H    0.6071328508   -0.3937394283   -0.6773544466
 H    0.4473930700   -0.1769482821    1.0546829483
 H   -1.7868508710   -1.2271068499    2.1372989200
 H   -4.0686308713   -1.8486017930    1.2203504592
 H   -4.7324102810   -0.9510956861   -2.1872935049
 H   -4.7193222021   -2.4769674258   -1.6008026769
 H   -2.0405638908   -0.2844762574   -2.0902380613