21

 C    0.4518640095    1.1939313126    0.3033534157
 C    0.2204277983   -0.2806157071    0.1129867459
 C    0.6765587771   -1.1713297796   -1.0868747888
 C   -0.0997621327   -2.1260921361   -0.1375955230
 C    0.6849427789   -1.4584714345    1.0258129534
 C   -1.1948941394   -1.0008227701    0.0055977937
 C   -2.1454788589   -1.0045059542    1.2111719349
 C   -1.9772140979   -0.6898137260   -1.1863318847
 C   -2.6790470073   -0.4143130133   -2.1247603020
 H    1.5228245436    1.4242697294    0.3122999463
 H   -0.0109846701    1.7659884381   -0.5078908918
 H    0.0261246904    1.5446731671    1.2500143208
 H    0.2307667990   -0.9620183549   -2.0594547468
 H    1.7526682224   -1.3469026404   -1.1629002900
 H   -0.2945031618   -3.1893290997   -0.2839001769
 H    1.7618956799   -1.6455006426    1.0315625098
 H    0.2820095410   -1.5240932422    2.0360417765
 H   -1.6483253258   -1.2423932936    2.1522510234
 H   -2.6226581591   -0.0251310785    1.3163889468
 H   -2.9420043583   -1.7383546587    1.0549224490
 H   -3.2859486587   -0.1788695956   -2.9636610524