21

 C   -0.2406180618    1.4064941617   -0.5399151785
 C   -0.0117064012    0.1009660288    0.2318272601
 C   -1.3054257744   -0.6426096006    0.4693968760
 O   -1.8954829274   -1.3156062101   -0.6548706562
 C   -1.4418180184   -2.1080413608    0.4726499248
 C   -0.2550483021   -3.0331817761    0.2054960286
 O   -0.5918573328   -4.4050705424    0.2400455681
 C   -2.6206824135   -2.7500448488    1.1805357113
 O   -3.2914412377   -3.6278353804    0.2741751563
 H    0.7010288462    1.9396802776   -0.6979161786
 H   -0.6855247693    1.2007771340   -1.5179107463
 H   -0.9176162356    2.0746046103    0.0034627524
 H    0.6913556153   -0.5349480263   -0.3135153892
 H    0.4428995628    0.3162911063    1.2075671813
 H   -2.0337974218   -0.0807793521    1.0610462690
 H    0.1880658954   -2.7452962752   -0.7591204378
 H    0.5094116980   -2.8830751736    0.9789118408
 H   -1.4912107908   -4.4976389795   -0.1048185532
 H   -2.2901127907   -3.3671598303    2.0192047500
 H   -3.3074757410   -1.9794153764    1.5541062318
 H   -3.5280633692   -3.0825761360   -0.4873241908