16

 C   -0.1650876455    1.4874027014    0.0678571466
 C    0.1493304808    0.0220484669   -0.0135571570
 O   -0.6548935925   -0.8562924755    0.8346653342
 C    0.7650444779   -0.7895005743    1.0417717096
 C    1.4803187754   -1.9818378697    0.3949041115
 O    0.9645178306   -3.2278064346    0.8328501977
 C    1.2408250924   -1.7387074416   -1.0916270820
 C    0.5069904579   -0.6481189676   -1.3124269231
 H    0.6702031857    2.0826408047   -0.3158382539
 H   -1.0503154855    1.7266989948   -0.5315403078
 H   -0.3630180495    1.7816105439    1.1010458156
 H    1.0827488581   -0.3976542256    2.0041991319
 H    2.5471686954   -1.9924706706    0.6449628167
 H    0.0035889197   -3.1391767205    0.7737513436
 H    1.5738894931   -2.4510116798   -1.8377214423
 H    0.1675872661   -0.2824250720   -2.2748812812