21

 C   -0.1444801655    1.5215132167    0.0915720133
 C   -0.0228912065    0.0279623764   -0.0419724489
 C   -0.0738201595   -0.5665141931   -1.2457841419
 C    0.0622560807   -1.9823558141   -1.5744631075
 C    0.0010294197   -3.0739304586   -0.7966613935
 C   -0.2812744065   -3.1915379159    0.6734927330
 C   -0.7666011670   -1.9422596961    1.4124352750
 O   -0.8300326291   -2.2039030685    2.8144955381
 C    0.1619562199   -0.7319809002    1.2507919707
 H    0.7305123456    1.9432165546    0.6041834541
 H   -0.2411404275    2.0136924481   -0.8796273244
 H   -1.0156959427    1.7931661762    0.7028823235
 H   -0.1887857710    0.0826404953   -2.1118486055
 H    0.2515653714   -2.1655452240   -2.6308788777
 H    0.1730588756   -4.0309462523   -1.2858692296
 H   -1.0310033569   -3.9862569443    0.8139141992
 H    0.6186230973   -3.5566074588    1.1910347858
 H   -1.7630911660   -1.6630873649    1.0367825387
 H   -1.3836473174   -2.9800865270    2.9475544542
 H    1.2047939658   -1.0640857229    1.3490607605
 H   -0.0287211703   -0.0677678266    2.0991386329