18

 C    0.0117714156    1.5210867651    0.1295219627
 C    0.0053896746   -0.0090547523    0.0051042760
 C    0.7141403242   -0.4868249708   -1.2626590574
 N    0.6200117685   -0.6723452765    1.1602618576
 C   -0.0044636753   -0.6892447523    2.3735215285
 N    0.6141435560   -0.9639385565    3.5247448168
 N   -0.4212382654   -0.9160676154    4.3684890264
 N   -1.5805346512   -0.6321089980    3.8184644366
 N   -1.3432049269   -0.4789861815    2.5372106606
 H    1.0378855438    1.9056142237    0.1646772581
 H   -0.4916069242    1.9800663846   -0.7275570094
 H   -0.5091399057    1.8364030860    1.0372320173
 H   -1.0342790454   -0.3494138977   -0.0186960634
 H    1.7689874308   -0.1845673373   -1.2592911481
 H    0.6717110135   -1.5758078732   -1.3480749180
 H    0.2496561234   -0.0475613297   -2.1497216435
 H    1.6260832782   -0.6063840159    1.2204998968
 H   -0.3217253245   -1.0825067923    5.3578262323