23

 C   -0.4790042929    1.4966747812   -0.0261730395
 C   -0.0314331916    0.0352163311   -0.0361574234
 C    0.7723070784   -0.4215603436   -1.2881582015
 C    1.9218029360   -1.2714162088   -0.6855047014
 C    3.2277935526   -0.4827042494   -0.5140382854
 C    2.9749064522    0.7974446393    0.3056971899
 C    2.0366225010    0.5290124527    1.4999558881
 C    0.8872335637   -0.4223706102    1.1255593413
 O    1.4483081638   -1.6366838896    0.6182729092
 H    0.3616403346    2.1878605794   -0.1420682155
 H   -1.1799164174    1.6934442238   -0.8440302663
 H   -0.9899671642    1.7473361771    0.9101362778
 H   -0.9276358708   -0.5912192119    0.0305507138
 H    0.1515998486   -1.0179781591   -1.9610271100
 H    1.1535186566    0.4265975931   -1.8652299482
 H    2.0965106899   -2.2002643877   -1.2349305647
 H    3.9409596810   -1.1316538117    0.0067845079
 H    3.6630459698   -0.2368286150   -1.4900464870
 H    3.9225766098    1.2186583669    0.6577311957
 H    2.5322163320    1.5600980470   -0.3450539356
 H    2.5973009235    0.0434336438    2.3071397700
 H    1.6477890455    1.4699740682    1.9056010212
 H    0.3104853378   -0.6807657566    2.0190451336