16

 C   -0.0281500076    1.4254886522    0.0330781299
 O   -0.0044477942    0.0110327030    0.0051752664
 C    0.6058396060   -0.5529615217   -1.0616187843
 C    0.7044110394   -1.9349106581   -1.2179886779
 N    1.3839896347   -2.1384005990   -2.4114455861
 C    1.7010453252   -0.9496623458   -2.9844272207
 C    1.2326791068    0.0670895909   -2.1725750533
 C    0.2532650173   -2.9897895473   -0.4108728585
 C   -0.1264182047   -3.9116665719    0.2688134369
 H    0.9868123678    1.8441289193    0.0512673651
 H   -0.5666012418    1.8355522040   -0.8316023396
 H   -0.5502450685    1.7067499438    0.9488400445
 H    1.5989258455   -3.0487974918   -2.7783688027
 H    2.2328540834   -0.9043605295   -3.9210314736
 H    1.3339326214    1.1225674898   -2.3636339216
 H   -0.4673481808   -4.7108780479    0.8786178254