17

 C    0.0173384256    1.3894586922    0.1753026177
 N   -0.0393362976   -0.0610483479    0.3031796664
 C   -1.1093480311   -0.6578401764    0.0489544652
 O   -2.3408082860   -0.2039551503   -0.3729762271
 C   -2.8069617638   -1.5850114736   -0.6239949490
 C   -3.0603573502   -1.8429968603   -2.0895664410
 C   -1.4788471416   -2.1231980872   -0.0173015380
 O   -0.6795408995   -2.9318599700   -0.8411885439
 H    0.9122494749    1.6621183188   -0.3932861699
 H   -0.8622274233    1.8260610484   -0.3119152881
 H    0.1218452651    1.8362301990    1.1705427117
 H   -3.6925016527   -1.7756184263   -0.0116109682
 H   -2.1515637176   -1.6877291386   -2.6746700079
 H   -3.3838344810   -2.8785164021   -2.2337902400
 H   -3.8458761446   -1.1787833196   -2.4608589912
 H   -1.6193535245   -2.5846187939    0.9686112142
 H    0.1968679078   -2.5302460922   -0.8602790209