20

 C   -0.2538404294    0.9803953186   -1.7880026891
 C   -0.0083810607   -0.2152133205   -0.8929985448
 C    1.3406655452   -0.6256247951   -0.3890079117
 C    2.6267878265    0.1040700613   -0.7118511567
 C    0.3130231206   -0.0543223435    0.6025098761
 C    0.4816799001    1.3011984805    1.2550431622
 C   -0.3223522382   -1.0758202559    1.4709499258
 O   -0.6904495309   -0.8911337242    2.6057333822
 H    0.4378330453    1.8035287538   -1.5997790841
 H   -0.1444920441    0.6934609209   -2.8395826603
 H   -1.2700721239    1.3650373143   -1.6533184923
 H   -0.6798110297   -1.0443661095   -1.1095962769
 H    1.4810393543   -1.7017385648   -0.3023539313
 H    2.4879163443    1.1797444792   -0.8344547926
 H    3.3682079828   -0.0455388820    0.0798117951
 H    3.0549403442   -0.2801780211   -1.6441292254
 H    0.9502492116    2.0323073402    0.5951090198
 H   -0.4899870064    1.6960482551    1.5660793463
 H    1.0942749967    1.2143777514    2.1572573122
 H   -0.4441826884   -2.0742431688    0.9845084254