21

 C    0.8138989451   -0.4116608671    1.3993643917
 C    0.1367266892    0.0827372000    0.1177741731
 C    0.7625736565   -0.3786638362   -1.2010662221
 C    0.6004253933    0.5901221394   -2.3673524892
 C    1.4763279968    1.8452391033   -2.2500707929
 N    2.0133215105   -1.1417509371   -1.1126033267
 C    0.7921378353   -1.8384258285   -1.5669608104
 C    0.2555293936   -2.8775945582   -0.7218520361
 N   -0.2169547852   -3.7130507688   -0.0765423979
 H    0.7896602556   -1.4996840470    1.4852231409
 H    1.8601429895   -0.0989483338    1.4345567904
 H    0.2980184434    0.0049195853    2.2698730481
 H   -0.9197712711   -0.2140336084    0.1111082692
 H    0.1357682367    1.1786055699    0.1225249904
 H    0.8422461455    0.0719541486   -3.3038594417
 H   -0.4548466728    0.8806826555   -2.4409263161
 H    1.2331424469    2.4328135509   -1.3602429828
 H    2.5388750548    1.5857776621   -2.1947349166
 H    1.3363165130    2.4913609275   -3.1213511622
 H    2.6131613799   -0.9630742376   -1.9154185144
 H    0.6989523234   -2.0713273098   -2.6248900550