20

 C   -0.0390572966    1.6144915758   -0.0369864641
 C   -0.0048901500    0.0871774571    0.0095033586
 C    0.7653736737   -0.5135320408   -1.1964992358
 C    1.8977587738   -1.3296862544   -0.5500320996
 O    2.0975671716   -0.7350171917    0.7283757359
 C    0.8028527345   -0.4624193896    1.2216081480
 O   -1.3426401510   -0.4512786672   -0.0435198657
 C   -2.1509315064   -0.2573140632    1.0153033974
 N   -3.3413334707   -0.6792392192    0.9819832327
 H    0.9837621870    2.0021546678   -0.0099837806
 H   -0.5193032072    1.9583919663   -0.9575776587
 H   -0.5835058286    2.0360397732    0.8137767621
 H    0.0914954620   -1.1195768354   -1.8035531189
 H    1.1684753149    0.2845203973   -1.8241111157
 H    1.6073961563   -2.3860685023   -0.4378155995
 H    2.8443223384   -1.2857389380   -1.0927586459
 H    0.9004559382    0.2450622851    2.0491402424
 H    0.3149867768   -1.3806044678    1.5879906707
 H   -1.6802236127    0.2702584112    1.8547183465
 H   -3.8095589241   -0.4619668940    1.8593427002