19

 O    0.1142762054   -0.0303827094   -0.4056868657
 C    0.0161505213    1.1327833377   -0.0849248665
 C   -1.3537127805    1.6835173555    0.3345140901
 C   -1.4490114162    2.7593572115    1.3892462528
 C   -0.5260116510    3.6536680191    1.7463949105
 C    0.8601161900    3.7726826622    1.1715135345
 C    0.9190977364    3.5525910800   -0.3703386334
 C    1.2246185254    2.0479454146   -0.1212760301
 C    1.6893399112    2.4564681630    1.3179627249
 H   -1.8239553088    2.0481361799   -0.5939632030
 H   -1.9484873791    0.8128011950    0.6259878739
 H   -2.4101677058    2.7892125050    1.8976095814
 H   -0.7801180752    4.3554214939    2.5369217053
 H    1.3427931435    4.6792892839    1.5414634126
 H    0.0309729446    3.8130730505   -0.9507702004
 H    1.7866918569    4.0495264807   -0.8112448835
 H    1.9746549867    1.5686618568   -0.7516273199
 H    2.7653571911    2.6478983072    1.3265419680
 H    1.4347933443    1.7928876728    2.1466949485