18

 O   -0.0281952083    1.4231092034   -0.1421944289
 C    0.0483596845    0.0114683974    0.0197541377
 C    0.6949061708   -0.4494450116    1.3579335171
 C   -0.5094404205   -0.8196362095    2.2302024068
 O   -0.2410487301   -1.5674743497    3.3821276341
 C   -1.4912564936    0.3800934249    2.3154698525
 N   -2.2997306888   -0.1520488561    1.1617011888
 C   -1.3605944942   -0.5629356449    0.0770283985
 C   -1.5372600496   -1.4424676341    1.2492354942
 H    0.8617060567    1.7528621316   -0.3017154470
 H    0.5789678484   -0.4332724207   -0.8340328493
 H    1.3188900858   -1.3367762824    1.2046587424
 H    1.3131625875    0.3432569229    1.7961157784
 H    0.3777709944   -1.0718582100    3.9291301783
 H   -2.1112794170    0.3271131991    3.2136825184
 H   -1.0960212023    1.3891161006    2.1713527070
 H   -1.8843399490   -0.7502754628   -0.8538838266
 H   -2.0034280747   -2.4192220981    1.2955466976