22

 C   -0.0239231945    1.6513877898    0.0818765744
 C    0.0080301693    0.1255879095   -0.0363127228
 C   -1.3859764019   -0.5033660098    0.0561661856
 C   -1.3656597867   -2.0364697692   -0.0228350532
 O   -0.6228952027   -2.5034587527    1.0704809422
 C   -0.3668018086   -3.8935414666    1.0606752434
 C   -2.8126495935   -2.5807232915   -0.0056408497
 N   -3.4276721932   -2.5780778969   -1.2259270665
 O   -3.3600366517   -2.9664155820    1.0061755577
 H    0.9826681262    2.0757388160    0.0152065981
 H   -0.6281342442    2.1022742848   -0.7138155122
 H   -0.4541526003    1.9645740087    1.0394618746
 H    0.4712228034   -0.1605772789   -0.9905466391
 H    0.6367671377   -0.3002504528    0.7513427103
 H   -1.8621241618   -0.2287213333    1.0050437059
 H   -2.0279355314   -0.1152450588   -0.7445799728
 H   -0.8854966191   -2.3499237612   -0.9696234822
 H    0.2720153862   -4.1030820510    1.9216619942
 H   -1.2908151184   -4.4761552591    1.1510942022
 H    0.1648046962   -4.1967167231    0.1444584144
 H   -2.9836832900   -2.2188775299   -2.0527091376
 H   -4.4030539811   -2.8243382221   -1.2705198671