16

 N   -0.0448759919   -0.9966244835   -0.8563084551
 C   -0.0358195666    0.0391684650   -0.3454298605
 C   -0.0092095940    1.3448474387    0.3139062080
 C    1.3836670746    1.9515503662    0.3427307425
 O    1.8098009643    2.6243840401   -0.8495915121
 C    1.5801340141    3.3990439016    0.3080154785
 C    0.6077123930    4.5716557335    0.4110482987
 O    1.5977059847    5.3303440467    1.1381024438
 C    2.6049772607    4.3049717160    0.9813707045
 H   -0.6947614591    2.0215896037   -0.2058906334
 H   -0.3788856806    1.2251957189    1.3396521239
 H    2.1487106062    1.3273701353    0.8047883116
 H    0.3527603253    5.0267438634   -0.5542862012
 H   -0.3068836039    4.4158930068    0.9966343927
 H    3.0108048156    3.9704208962    1.9430499031
 H    3.4244919474    4.6173384115    0.3223038850