17

 C   -0.0202309394    1.6977485756    0.0634901285
 C    0.0421123932    0.1817429710    0.0820518737
 O   -1.2613973889   -0.3748861986   -0.0779527633
 C    1.0149774319   -0.6072991801   -0.8477981705
 O    0.8544800998   -0.8711684991   -2.0165349509
 C    1.8002699146   -1.2246065569    0.2265596055
 C    2.1432320713   -0.2574983496    1.3648728192
 C    0.7171399941   -0.5548116352    1.2506520639
 O   -0.0089958870   -1.1482390605    2.2286786327
 H    0.9541728486    2.1510909671    0.2660053988
 H   -0.3539048655    2.0381709025   -0.9216038757
 H   -0.7351669069    2.0559755533    0.8103498546
 H   -1.3321943141   -0.6694176498   -0.9957057929
 H    2.2515528031   -2.2086267489    0.1870878950
 H    2.6375897957   -0.7630061560    2.1898314461
 H    2.5462675107    0.7296703044    1.1537221740
 H   -0.8671722112   -1.3510702293    1.8233082114