19

 N   -0.3282730839    1.0137991710   -0.6366213299
 C   -0.2335721671   -0.2806836647   -0.2257480014
 O    0.6297333894   -1.0393564672   -0.6263322400
 C   -1.2738644203   -0.7119866867    0.8254774287
 N   -1.3759810991   -2.1438174661    1.0152504043
 C   -2.1454220766   -2.8564382805    0.0208255930
 C   -1.5558746272   -3.3183669891   -1.3459962038
 O   -2.0353834965   -4.6624476425   -1.1200993764
 C   -2.3464806395   -4.3672379039    0.2542119592
 H    0.3739584451    1.3766279412   -1.2606590129
 H   -1.0273759672    1.6413389967   -0.2797375599
 H   -0.9808983549   -0.2371609027    1.7730758608
 H   -2.2604146291   -0.3073534121    0.5697656043
 H   -0.4356826847   -2.5276264183    1.0610463742
 H   -3.1001594383   -2.3366822863   -0.1080183781
 H   -1.9760365930   -2.8819790411   -2.2597286945
 H   -0.4616192182   -3.2631689354   -1.3858917960
 H   -1.6083266625   -4.7947183668    0.9496413129
 H   -3.3462294065   -4.7114362154    0.5419536356