17

 C   -0.1784589156    1.3318402512    0.0737518710
 O   -0.1566507229   -0.0827280751    0.1646110120
 C    0.7191631875   -0.6052061011    1.1321540276
 C    0.2965269300   -2.0773322196    1.3270685486
 O   -1.0595820168   -2.1498703380    1.6904369130
 C    2.1801676085   -0.4982694237    0.7110797118
 O    2.5493375181   -0.1658414083   -0.3902316537
 C    3.2510112751   -0.8252107541    1.7627088481
 O    3.0032403512   -1.1413663256    2.8968192128
 H    0.7765320504    1.7280565253   -0.2891759608
 H   -0.9631305818    1.5892738318   -0.6406252178
 H   -0.4159008472    1.7885392856    1.0458103215
 H    0.5989467738   -0.0901467449    2.0994153712
 H    0.5004656842   -2.6234066509    0.3923931806
 H    0.8812447078   -2.5244029671    2.1335812227
 H   -1.5338917993   -1.6173841635    1.0398419969
 H    4.2823133769   -0.7282332520    1.3623834345