17

 C   -0.0114487057    1.4991424254    0.0102293861
 C    0.0101361549    0.0475439905    0.0022213492
 C    0.0290537136   -1.1626671875   -0.0044635786
 C    0.0492266461   -2.5226048438   -0.0119655871
 C    0.0728370459   -3.7333576314   -0.0186978080
 C    0.0671733590   -5.1871078170   -0.0264553911
 C   -1.3714776866   -5.7747061726   -0.0158783404
 C   -1.3684979561   -7.2312162585   -0.0237314711
 C   -1.3310254160   -8.4325056963   -0.0305439373
 H    1.0044300408    1.9102821430    0.0027247881
 H   -0.5360839572    1.8932812283   -0.8675512830
 H   -0.5191624285    1.8837705445    0.9020670493
 H    0.5965719122   -5.5620406726   -0.9106390530
 H    0.6133181624   -5.5714662806    0.8433795570
 H   -1.9014200723   -5.4032813960    0.8684369744
 H   -1.9181675959   -5.3938564578   -0.8858740774
 H   -1.3159534067   -9.4941597575   -0.0363918270