21

 C    0.3302789411    1.4551320183    0.0443994695
 C   -0.0281662901   -0.0396303251   -0.0110214381
 C   -1.5476197131   -0.2185058735    0.0077226107
 C    0.6347554589   -0.7302540427   -1.2412690909
 C    2.1093553514   -0.9862266181   -0.8498062748
 C    2.1080120770   -0.9060686141    0.6714202757
 O    3.0543502598   -0.8395999576    1.4184998039
 C    0.6654257556   -0.7958503748    1.1485394179
 O    0.5668708510   -0.2181956451    2.4178891192
 H    1.4106895066    1.6251094578   -0.0224327863
 H   -0.1424689306    1.9925583926   -0.7838929392
 H   -0.0108912404    1.8928608508    0.9853538359
 H   -2.0110383960    0.2656067428   -0.8591951888
 H   -1.8218396050   -1.2791104360   -0.0128577060
 H   -1.9801497833    0.2237388228    0.9107636823
 H    0.1281549875   -1.6805226041   -1.4416795776
 H    0.5391547382   -0.1207961160   -2.1435839902
 H    2.4935467494   -1.9539382267   -1.1865954451
 H    2.7983268947   -0.2278200357   -1.2343259443
 H    0.2589963575   -1.8270099920    1.1581751429
 H    1.4669307397   -0.2312483336    2.7792120332