23

 C    0.0818804507    1.5379723648    0.0237378190
 C   -0.0088119388    0.0283658635    0.0042837909
 C    0.4564363145   -0.7145010066   -1.2776257252
 C   -0.6950835354   -1.7382946802   -1.1303957744
 C   -0.4289441068   -2.8023903516   -0.0384587920
 C   -0.7501265108   -1.7632410976    1.0626610847
 C    0.3919778114   -0.7437181761    1.2906946342
 C   -1.3566754323   -0.8105813874   -0.0390876880
 C   -2.7512423916   -0.2557821323   -0.0677926480
 H    1.1293588921    1.8648961391    0.0537487959
 H   -0.3739920196    1.9820634000   -0.8687594522
 H   -0.4184373897    1.9619111381    0.9021148453
 H    0.3079834661   -0.0841947400   -2.1611054162
 H    1.4820733314   -1.1006399042   -1.2982387038
 H   -1.1977366351   -2.0632413578   -2.0431638416
 H   -1.1902470287   -3.5883091316   -0.0665082239
 H    0.5585407185   -3.2772166632   -0.0190736316
 H   -1.2977396961   -2.1085648233    1.9414484517
 H    1.4155090299   -1.1308145533    1.3539382895
 H    0.1990438344   -0.1335734030    2.1797167561
 H   -2.9589018873    0.3558046045    0.8185935827
 H   -2.9146216650    0.3756147909   -0.9495446759
 H   -3.4983288718   -1.0582468629   -0.0954939871