18

 C   -0.4325398584    1.4015985306   -0.0149534129
 C    0.0307228056   -0.0500535414   -0.0102306271
 C    1.3200063676   -0.3616919981   -0.8822013198
 C    2.1569475870   -0.4285255596    0.4234671084
 N    2.6027799777    0.7892534697    1.1875080004
 C    1.9415121979   -0.0471250739    2.2382225933
 C    2.3286569114   -1.4511334687    1.5881147582
 O    0.9673781687   -1.9410763336    1.5131838002
 C    0.8453631151   -0.5046299656    1.2336457358
 H    0.3970895405    2.0750209116    0.2129510479
 H   -0.8352864020    1.6669213439   -0.9984412550
 H   -1.2204735768    1.5616958103    0.7280814408
 H   -0.8064240547   -0.7271541247   -0.2003789721
 H    1.2680777246   -1.3171018734   -1.4065813530
 H    1.6273523919    0.4205726533   -1.5792819825
 H    3.6182292408    0.7944363506    1.3067870408
 H    1.8945768317    0.2417277692    3.2936842766
 H    3.1181400115   -2.1648781901    1.8507332899