21

 C   -0.2417202960    1.4677581366   -0.0114911818
 C   -0.0179195176   -0.0452098578    0.0612837532
 C    0.7847494515   -0.4255565492    1.3115415484
 O   -1.3272016919   -0.6279533351    0.1267414700
 C    0.6978600713   -0.5359344288   -1.2137835888
 C    0.7955326096   -2.0708419562   -1.4980810361
 C    0.1916972537   -1.8699254954   -2.9197358715
 C   -0.0606738325   -0.3997107215   -2.5542981987
 O   -0.6473551095    0.4959560275   -3.0887552909
 H    0.7136334253    1.9982535693   -0.0703433660
 H   -0.8315215739    1.7204156035   -0.8944714535
 H   -0.7746608625    1.8054631558    0.8816720409
 H    0.2457454277   -0.1115270046    2.2106638443
 H    0.9434643186   -1.5094617686    1.3660763864
 H    1.7688061499    0.0531329950    1.3142207365
 H   -1.2441737825   -1.5133722050    0.4941059436
 H    1.6762243179   -0.0457321901   -1.2923769955
 H    1.7998466393   -2.4944073412   -1.4645983818
 H    0.1455244964   -2.6665555379   -0.8530303620
 H    0.9089235218   -1.9768908521   -3.7397446387
 H   -0.7043551268   -2.4443921745   -3.1691678580