18

 C   -0.2057268419    1.4756364754    0.0046708785
 C   -0.0188256620   -0.0032196858   -0.0234111604
 C    0.1883201181   -0.8304629269   -1.0738669664
 O    0.3008359435   -2.1139808056   -0.5973944032
 C    0.1517665580   -1.9897181622    0.7470729396
 N   -0.0389643586   -0.7695077237    1.1432501208
 C    0.2207096397   -3.2006423258    1.5684535629
 C   -0.3228312927   -4.5192538810    1.0484956564
 C    1.1572495815   -4.3355380296    1.1950966620
 H    0.5655863245    1.9546165110    0.6170854355
 H   -0.1579824729    1.8985106445   -1.0021441956
 H   -1.1741625367    1.7380811843    0.4436056921
 H    0.2782326794   -0.7044700100   -2.1388880024
 H    0.0897497483   -2.9859248125    2.6214473545
 H   -0.8443231319   -5.1535761617    1.7560883670
 H   -0.7351637021   -4.5185757789    0.0463798749
 H    1.7427675442   -4.2110129270    0.2918149411
 H    1.6699577416   -4.8414896144    2.0051269429