19

 O   -0.0182111861    0.0167078623    0.0639122190
 C   -0.0344484469    1.2113202893    0.0025014150
 C   -1.0855763761    2.3298803017    0.0557676580
 C   -0.0047710553    3.0329272686    0.9879630676
 C    1.0077375024    2.3351691120    0.0222038633
 C    2.4481043749    2.0792815713   -0.4458023967
 C    1.8733725173    2.1791100689   -1.9122888217
 C    0.6979187423    3.0176701549   -1.3180549119
 C   -0.8576612076    2.9070765043   -1.3793113368
 H   -2.1042332940    2.1578010647    0.3975256163
 H    0.0208943071    4.1249253047    0.9794003120
 H   -0.0483926912    2.6508598761    2.0097218904
 H    3.1315984954    2.9041744528   -0.2275444929
 H    2.9015597648    1.1345625378   -0.1389116367
 H    2.4997739677    2.6577744194   -2.6673110637
 H    1.5537486263    1.1984933139   -2.2740121623
 H    1.0075772093    4.0674153575   -1.2823356176
 H   -1.2372146080    2.2202322851   -2.1423386381
 H   -1.3374561124    3.8775686746   -1.5301234332