13

 N   -0.0213248773   -1.1181954519   -0.0048135711
 C    0.0048512177    0.0356178930    0.0025324040
 C   -0.0118803892    1.4973580581    0.0119394159
 O    1.3408680235    1.9557664717   -0.0007130800
 C    1.4786591699    3.2898647584    0.0058878845
 N    0.4528494947    4.1087182610    0.0227411093
 O    1.0165186583    5.3841534424    0.0240891734
 C    2.3527782985    5.2682798141    0.0079628260
 C    2.7306200758    3.9674858493   -0.0043334722
 H   -0.5535036588    1.8741906300   -0.8634434704
 H   -0.5331813688    1.8630114653    0.9042382861
 H    2.9020628172    6.1971355570    0.0073306289
 H    3.7189129186    3.5426006815   -0.0183025846