19

 C   -0.0530541000    1.3937806840   -0.0629388071
 N   -0.0234410623   -0.0445609667    0.0100363091
 N    0.0620588722   -0.7892748828   -1.1326763433
 C    0.0639595871   -2.0461836657   -0.7068486336
 N    0.0431257061   -3.1112968044   -1.6127677351
 C    0.0240445098   -2.1456646456    0.7078996133
 C    0.0204951234   -3.3843254273    1.5457272105
 C   -0.0233145257   -0.8225496084    1.1217683904
 N   -0.1389855931   -0.2481850528    2.3980012397
 H    0.9531467967    1.8260269978   -0.1413437431
 H   -0.6242053232    1.6856563679   -0.9461354597
 H   -0.5400441030    1.7821406172    0.8345135457
 H    0.2857289135   -2.7981123199   -2.5448943508
 H    0.6451308555   -3.8770050717   -1.3371554876
 H    0.8379901447   -4.0659163463    1.2762847469
 H    0.1523926766   -3.1481263710    2.6078109812
 H   -0.9121684620   -3.9547445286    1.4521398879
 H   -0.3283071837   -0.9531158247    3.0990748171
 H    0.6878436175    0.2689989689    2.6788536683