20

 O   -0.3012425582    0.0743277465    0.5300299075
 C   -0.1572934222    1.1949744581    0.0788702670
 C   -1.2128267619    1.9176198221   -0.7520811186
 C   -1.3298195022    3.4067235923   -0.4125756200
 C   -1.6941177336    3.7544514110    1.0622863880
 C   -0.3573924848    4.5324621564    1.2148355658
 C    0.0437182220    4.1399284512   -0.2373671517
 C    1.2442267734    3.2045849800   -0.3738461850
 N    0.9814539147    1.9294809681    0.2802149938
 H   -0.9386048675    1.8010848947   -1.8101330967
 H   -2.1595919864    1.3917093464   -0.6063736976
 H   -1.9863054657    3.8945518071   -1.1376311478
 H   -2.5991149565    4.3544756366    1.1809174604
 H   -1.7795535396    2.8796512829    1.7126025016
 H   -0.4724769308    5.6082153866    1.3657382827
 H    0.3111309679    4.1463881836    1.9886889891
 H    0.1854430313    4.9927505318   -0.9065486677
 H    1.4829260549    3.0601880692   -1.4392337626
 H    2.1292325040    3.6503965015    0.0918338173
 H    1.7293942211    1.4429919341    0.7509259145