16

 C   -0.0076161892    1.4396908948   -0.0906456199
 O    1.0233681956    1.9326111787    0.7680577651
 C    2.0879671172    0.9868458453    0.8086525462
 C    1.4053888958   -0.3468721410    0.6477922290
 N    2.0718903838   -1.5968087952    0.4287663313
 C    1.2637799437   -2.4818346862    0.8602542413
 O    0.0913981976   -2.0843507023    1.4244843242
 C    0.0981616699   -0.6619315477    1.3592908552
 C    0.0605050148   -0.0757250137   -0.0203764370
 H   -0.9491294040    1.8706280501    0.2661275598
 H    0.1497480868    1.7624737521   -1.1315118179
 H    2.8121045749    1.1380995747   -0.0071217251
 H    2.6045129266    1.1182589965    1.7642489129
 H    1.4110621654   -3.5538234200    0.8270785099
 H   -0.3233458739   -0.1848619822    2.2366583020
 H   -0.2851508049   -0.6754541938   -0.8550053272