17

 O   -0.0309054998    1.3295607977   -0.2417991203
 N    0.0168800752   -0.0801194515   -0.2357426455
 C   -1.1273248909   -0.5888945806    0.0727576756
 C   -2.3485638909    0.1248350707    0.3740058875
 C   -3.4119287586   -0.5251956338    0.8996808765
 N   -3.4270132302   -1.8576363510    1.2252747691
 C   -2.3826737452   -2.7259688042    0.7618660771
 C   -2.1086595911   -2.8757382240   -0.7163741706
 C   -1.1577118652   -2.0769025267    0.1578264831
 H    0.8706899905    1.5543784300   -0.4910685798
 H   -2.3859349054    1.1927445201    0.2235235848
 H   -4.3293788961    0.0034138997    1.1381185890
 H   -4.3350360597   -2.2824696474    1.3336423352
 H   -2.2373799069   -3.5917735596    1.3997202237
 H   -1.7708818002   -3.8398340134   -1.0792017550
 H   -2.7416536183   -2.3209717238   -1.3999295913
 H   -0.1957271173   -2.5283362122    0.3695757110