12

 O    0.0549411258    0.0803088512   -0.5931714103
 C    0.1377873589    1.0269326241    0.1441785738
 C    1.2920972758    1.9617436237    0.1815267753
 C    1.6795994956    3.0017270289    1.2473227648
 C    2.0912935773    3.9270809094    0.0610931731
 O    2.3766232232    5.0803955959   -0.0276407737
 C    1.7546956447    2.8363830323   -0.9586665929
 O    2.4722454132    1.6738310529   -0.5472537545
 H   -0.6661652280    1.2906711612    0.8657251837
 H    0.8430924098    3.4413402951    1.7986630395
 H    2.4623688113    2.6840597894    1.9376719853
 H    1.4195488025    2.8878654459   -1.9885135040