19

 C    0.3111378731    1.2648683431   -0.4204525520
 C   -0.0481113672   -0.0229516714    0.3278800100
 O    0.1960999487    0.1611001127    1.7100552015
 C   -1.4752096480   -0.4459069469    0.0800637348
 N   -2.2837848963   -0.6251759876    1.1224776883
 N   -3.4672729169   -1.0074406976    0.6034002294
 C   -4.5853721365   -1.2787610948    1.4797539948
 C   -3.4232885313   -1.0734801792   -0.7491185505
 C   -2.1471770293   -0.7178418952   -1.1322573757
 H    1.3453515389    1.5401392847   -0.1962436650
 H    0.2129427105    1.1347794511   -1.5030415536
 H   -0.3431804090    2.0816762136   -0.1025276462
 H    0.6104500117   -0.8266614079   -0.0443199776
 H   -0.6045168398   -0.1180821038    2.1736025080
 H   -5.4378402435   -1.5939179568    0.8760244575
 H   -4.3296264894   -2.0743074944    2.1847657944
 H   -4.8554175400   -0.3814521063    2.0435274660
 H   -4.2897499660   -1.3627416865   -1.3233805406
 H   -1.7607762696   -0.6662465469   -2.1370008533