18

 C   -0.1248312454    1.5123055107    0.1026289492
 C   -0.0753340468    0.0278140703   -0.0565936846
 C    0.1053597324   -0.7595406644   -1.1752578100
 C    0.3623936562   -0.7852165408   -2.6503624528
 C    0.0889602133   -2.2825160414   -3.0038845005
 C    0.2699788792   -3.0723477616   -1.6802589366
 N    0.0525482775   -2.0224039017   -0.6969449601
 N   -0.1403081547   -2.0641530489    0.6236882011
 N   -0.2241672947   -0.8134888698    1.0137131163
 H    0.8346022880    1.9833400882   -0.1396430174
 H   -0.8841714715    1.9681533036   -0.5421267590
 H   -0.3674043462    1.7526359858    1.1399686438
 H   -0.2822019514   -0.1082541471   -3.2171276169
 H    1.3983224259   -0.5040715304   -2.8764429044
 H   -0.9428751040   -2.3903584620   -3.3487745481
 H    0.7426077417   -2.6547661315   -3.7948182003
 H   -0.4512807271   -3.8818782301   -1.5530216340
 H    1.2783425679   -3.4863358989   -1.5709187058