17

 C   -0.0965013843    1.4544660369   -0.1401889572
 C    1.2839890770    0.8253930999    0.0194368867
 O    1.8161239019    0.8048267407    1.3182231515
 C    1.3657343983   -0.3908516842    1.9717664589
 C   -0.0056786388   -0.7383945845    1.3498761417
 O   -0.1766895430   -2.1035328111    0.9762355998
 C    0.0566476885   -2.1802758172   -0.4189732789
 O   -0.3420633918   -0.9410285704   -0.9717758589
 C    0.0445922188   -0.0197784841   -0.0018444875
 H   -0.5076065654    2.0279202960    0.6845337536
 H   -0.3373220567    1.8247388705   -1.1318333487
 H    2.0034608944    0.8760530685   -0.7912075084
 H    2.0599864601   -1.2245171758    1.7918445917
 H    1.3281157650   -0.1873165692    3.0444667769
 H   -0.8466488752   -0.4601755361    1.9913742225
 H    1.1263626856   -2.3599733959   -0.6231820299
 H   -0.5555240444   -2.9781163740   -0.8455495938