23

 C   -0.0909065663    1.5225249357   -0.2654440564
 C   -0.0572598444    0.0408914104    0.0089906769
 O    1.2211970552   -0.6102395653   -0.1022840198
 C    0.5823619559   -0.6050248434    1.1651822205
 C    1.1825237454   -0.0434181659    2.4692347986
 C    1.0355683255    1.4135628948    2.8844863559
 C    0.3398079821   -1.1153477246    3.2243777531
 C    0.1333284343   -1.8855269159    1.8879543278
 C   -1.2237280418   -2.4994245983    1.5805574155
 H    0.7671103963    2.0284220470    0.1790310817
 H   -0.0709656596    1.7019880522   -1.3458201799
 H   -1.0087854626    1.9711609483    0.1299827679
 H   -0.8651189584   -0.5186900438   -0.4689033751
 H    2.2414188820   -0.3288823046    2.4948787402
 H   -0.0040070067    1.7494753361    2.8096632665
 H    1.3505122336    1.5403627020    3.9263837527
 H    1.6530967325    2.0799099684    2.2743883292
 H    0.8274312939   -1.6485657985    4.0429380826
 H   -0.6018116099   -0.6927368656    3.5914349800
 H    0.9212823488   -2.6389063805    1.7678414063
 H   -2.0269049125   -1.7625737683    1.6918895270
 H   -1.2618951850   -2.8886668639    0.5571393513
 H   -1.4398176283   -3.3328941063    2.2577794375