19

 C    0.0567149659    1.5438064122    0.1451087009
 C    0.0281307779    0.0285293915    0.0430455693
 O    0.6961646572   -0.5123483263    1.1659289632
 C    0.7251095868   -1.9218118484    1.1664885694
 C    1.4670796718   -2.3652610940    2.4192602699
 C    1.5700646893   -3.8711067081    2.5436279393
 O    1.1081409437   -4.6396625186    1.7268432542
 C    2.2703498790   -4.3513162615    3.7254387035
 C    2.8523300826   -4.7300495775    4.7086192339
 H    1.0878553143    1.9079611306    0.1656636066
 H   -0.4534433956    1.9930825977   -0.7121185715
 H   -0.4420605195    1.8767312120    1.0597976455
 H   -1.0116274344   -0.3386026123    0.0076033788
 H    0.5175121809   -0.3071346949   -0.8869979795
 H   -0.2938184343   -2.3393377939    1.1598091344
 H    1.2306530450   -2.3083746699    0.2678392474
 H    2.4794763177   -1.9416498156    2.4359767124
 H    0.9736264299   -1.9716928503    3.3171769704
 H    3.3629639019   -5.0828945929    5.5717100819