15

 O    0.7299970082   -0.0909559870   -0.6971351511
 C   -0.1778122262    0.2839442199    0.3343825584
 C   -1.5474382998   -0.3967341197    0.2023892595
 C   -2.0571672359   -0.8377217286   -1.1765640396
 C   -1.5959199623   -1.8772506575   -0.2011076845
 O   -0.4316798554   -2.6025046083   -0.3641489349
 C   -2.5122735471    0.0742009639    1.1554207358
 N   -3.2776461203    0.4598890723    1.9339793322
 H    0.5472037435    0.4411732038   -1.4776571523
 H    0.2876001361   -0.0281362290    1.2738770468
 H   -0.3041936387    1.3724779796    0.3690648168
 H   -3.1162957549   -0.7309702807   -1.3794390453
 H   -1.4073573124   -0.6267174606   -2.0190091296
 H   -2.3584484071   -2.4803140803    0.2797011842
 H    0.2488665824   -2.0028431680   -0.7055746364