15

 C   -0.2974990193    1.5208762406   -0.0724102318
 C    0.0061523609    0.0326181696   -0.0627900350
 C    1.3204530922   -0.4389717917   -0.7206981230
 O    1.7784846382   -1.0544387247    0.5016820683
 C    0.6089458612   -0.6093701241    1.2323531246
 C    0.9243787636    0.2708061688    2.3464790504
 C    1.1732595234    0.9957144227    3.2729439974
 H    0.5551936522    2.1018233822    0.2903242706
 H   -0.5330151601    1.8549996310   -1.0885985240
 H   -1.1556450368    1.7551739015    0.5653081208
 H   -0.8612871890   -0.5355241468   -0.4073918510
 H    1.2247422226   -1.1681554376   -1.5335650651
 H    1.9887400589    0.3703791290   -1.0431742365
 H    0.0374809364   -1.4701892448    1.6033778865
 H    1.3989770858    1.6305141642    4.0941088677