20

 C    0.3580843903    0.8320250952   -0.8106048892
 C   -0.0440719988    0.0785223203    0.4638729516
 O    0.0551130679    0.9175868825    1.5868522315
 C   -1.4527058422   -0.4816792766    0.3574094959
 N   -2.3365945126   -0.1122758251    1.1891234104
 C   -3.7028266900   -0.6027009173    1.0528673707
 C   -3.9913283799   -1.1454774453   -0.3504074300
 C   -2.8353645860   -2.0433652172   -0.7693020298
 O   -1.5803875540   -1.3482470605   -0.6725387974
 H    1.3697107570    1.2269212284   -0.6883657364
 H    0.3359316171    0.1730157126   -1.6823350106
 H   -0.3205546535    1.6737093137   -0.9797972866
 H    0.6319494586   -0.7842480211    0.5842797156
 H   -0.8382608773    0.9284127516    1.9703702081
 H   -3.8740872496   -1.3808926924    1.8091930569
 H   -4.3860013443    0.2169894073    1.2994128074
 H   -4.9305659294   -1.7068057017   -0.3777177053
 H   -4.0796976885   -0.3161381758   -1.0611569941
 H   -2.7831094301   -2.9356358817   -0.1318078155
 H   -2.9113715847   -2.3683716969   -1.8092247633