15

 N    0.1014090271   -1.1629264544    0.3421596965
 C    0.0889478661   -0.0102558880    0.2462036580
 C    0.0380197695    1.4177501430    0.0983922877
 C    0.6605770078    2.3261676705    1.1475124221
 C    1.3008353858    2.2209486034   -0.2010915373
 C    2.6247182729    1.5356948570   -0.3529821696
 C    3.8096769515    1.9996186964    0.3825531870
 O    3.1146302564    0.8137746545    0.7736901289
 H   -0.8744765951    1.7691753309   -0.3717347881
 H    0.1129627257    3.2240309998    1.4073582229
 H    1.1759812987    1.8328481506    1.9626286444
 H    1.1492390973    3.0417594905   -0.8968196356
 H    2.7804458287    1.0291530113   -1.3059851851
 H    4.8019580982    1.8413366916   -0.0355946312
 H    3.7150989393    2.8412671830    1.0668469293