16

 O   -0.1750731731    0.1232312385   -0.2759108755
 C    0.0112415334    1.2222355905    0.1802521351
 C    1.2832972191    1.9856654589    0.0313453023
 O    1.5136533097    3.0376869240    0.9652831344
 C    2.5421818017    3.4855406656    0.0324586011
 C    3.6040551205    2.3837840507    0.2100398763
 C    2.6750782770    1.2854703007   -0.3562600736
 N    2.4228062927    1.7072980182   -1.7629026121
 C    1.7183533202    2.8457940786   -1.1876742284
 H   -0.7717099277    1.7711866168    0.7484222553
 H    2.7964312044    4.5389977988    0.1303707672
 H    4.5084610047    2.5041567090   -0.3933436094
 H    3.8683790745    2.2717254160    1.2633231729
 H    2.8727153517    0.2323243580   -0.1712066838
 H    3.2657915998    1.9345045329   -2.2896152103
 H    1.0661567714    3.4692188527   -1.7974559516