19

 C    0.0309016608    1.4413962793   -0.0864966551
 C   -0.0462591078   -0.0577830512    0.0348123939
 C   -1.3396696205   -0.7866795370   -0.3014978640
 N   -1.0634166647   -2.2141738558   -0.0768444612
 C   -0.1625964349   -2.6734831630   -1.1987470794
 C    1.0444855089   -2.2598821753   -0.3774179924
 C    0.1539347626   -2.2378749288    0.8746095800
 C    0.6127948581   -0.7987649338    1.1236352514
 N    1.2568463898   -0.7511198562   -0.2518549037
 H    0.9969056621    1.8105545661    0.2658145317
 H   -0.0863328320    1.7516597848   -1.1301627679
 H   -0.7620363349    1.9179792717    0.5005543310
 H   -2.1349288790   -0.4305971489    0.3676560562
 H   -1.6840589034   -0.6351100172   -1.3298212811
 H   -0.2391522784   -3.7581632675   -1.3302152643
 H   -0.3335029166   -2.1797061664   -2.1609901708
 H    2.0128302674   -2.7570954136   -0.4545108734
 H    0.1058895810   -2.9893110932    1.6600004777
 H    1.0785783416   -0.3814834840    2.0099519314