21

 C    0.2502293602    1.5178575231   -0.0154488545
 C    0.0478391806    0.0122272543    0.0067783470
 O   -1.3299754257   -0.3293313965   -0.0882150944
 C    0.9320628403   -0.8572145195   -0.9552677731
 C    1.4542862249   -1.6906606661    0.2441645812
 C    2.6913507398   -1.0908174956    0.9197158531
 O    1.8849494836   -0.1580317962    1.6765656882
 C    0.6497082249   -0.7728498772    1.2201763129
 C   -0.2423686215   -1.1981159789    2.3543022025
 H    1.2908050608    1.7741770619    0.1918201935
 H   -0.0192496635    1.9261164047   -0.9979439781
 H   -0.3820421572    1.9969311409    0.7386663709
 H   -1.6740917158    0.0630007667   -0.8980592815
 H    0.3166110215   -1.4289004113   -1.6531498665
 H    1.7039360567   -0.3203225338   -1.5149572777
 H    1.3573467527   -2.7742797822    0.1988583461
 H    3.2312892676   -1.7765270849    1.5858648683
 H    3.4151434724   -0.5848891386    0.2678016287
 H   -0.5364810562   -0.3252018560    2.9476971120
 H   -1.1487932332   -1.6731561362    1.9744813082
 H    0.2848728871   -1.8938055286    3.0141609532