19

 C   -0.0156754523    1.4978116160    0.0345568951
 C   -0.0095749905   -0.0021384953   -0.0589629313
 C   -0.8592853627   -0.8798599817    0.7953520620
 O   -1.8062244511   -1.7952667888    0.3110987389
 C    0.6356779623   -1.0519529079    0.8915104390
 C    1.3546582761   -1.6765718077   -0.3391163245
 O    2.7044019064   -1.9758640097   -0.2712898954
 C    0.4511328186   -2.1824821672   -1.4280235090
 C    0.7008645844   -0.6897540231   -1.2632144193
 H    0.9836905106    1.9096193654   -0.1473903546
 H   -0.6935775348    1.9346006610   -0.7097571151
 H   -0.3425929589    1.8340047248    1.0235122238
 H   -1.2284435636   -0.3242045293    1.6632548235
 H   -1.8791326601   -2.5058251261    0.9582854053
 H    1.1763340865   -0.8710788724    1.8142051491
 H    2.7934920970   -2.8912417976    0.0184724034
 H    1.0134515239   -2.5928657490   -2.2632578141
 H   -0.5163463413   -2.6266791914   -1.2455596954
 H    1.1536545594   -0.1019756998   -2.0510820513