17

 O   -0.1902754852   -0.0082070907   -0.1658466722
 C   -0.0173788295    1.1619053018    0.0496837161
 C    1.3181710390    1.8668706520    0.0194477140
 C    1.4051335272    2.9141672087   -1.1319962643
 N    2.3664086380    3.9297618269   -0.6996207314
 C    2.0959062489    4.0990123930    0.7375440713
 C    1.5741398309    2.7198289728    1.2884585748
 C    3.2675060429    4.5987543343    1.4542235481
 N    4.1984388923    4.9697305355    2.0291610582
 H   -0.8758237753    1.8395670934    0.2795332111
 H    2.0962888641    1.1107993356   -0.1097834944
 H    1.7048114235    2.4758221950   -2.0852446478
 H    0.4281841180    3.3944946607   -1.2764753767
 H    3.3101668115    3.5713757012   -0.8171376912
 H    1.2986094487    4.8447069591    0.8451881018
 H    0.6615074766    2.8706025175    1.8732551735
 H    2.3063500485    2.2444053132    1.9423625793