18

 N   -0.1181127892   -1.1703164546   -0.1365621306
 C   -0.0582164280   -0.0178954193   -0.0574871054
 C    0.0000203403    1.4325120507    0.0254115815
 C    0.0871910820    2.1113534134    1.4405158042
 C    1.5552978736    1.5924054840    1.5353663355
 C    1.4045605530    2.1361627053    0.0809773272
 C    0.6585157468    3.3348143253    0.6981953087
 C    0.0261229278    4.5452072627    0.1075302426
 C    1.1213231581    4.6642839695    1.1709241996
 H   -0.7187395671    1.8826698578   -0.6628397673
 H   -0.6862344424    2.0898251276    2.2081177028
 H    2.2205100490    2.1569266641    2.1902469485
 H    1.6885787368    0.5147241858    1.6448465179
 H    2.1475526109    2.1431910445   -0.7163786506
 H    0.2806826788    4.8271100825   -0.9094089254
 H   -0.9872204836    4.8031983774    0.3990974780
 H    0.8268669899    5.0002201884    2.1602354544
 H    2.0945118438    5.0241078949    0.8519794984