13

 N   -0.0529432232    1.3748647535   -0.1140780065
 C   -0.0170040616    0.0123615602   -0.0535584495
 N   -1.1630427428   -0.6628977389    0.0242206010
 C   -1.0819599243   -1.9969874919    0.0354725181
 N    0.0166367193   -2.7382502638   -0.0140573159
 C    1.1698463382   -2.0492988900   -0.0829594135
 C    1.2181594702   -0.6734048733   -0.1070288521
 O    2.3536773237    0.0851721187   -0.1709104284
 H    0.7951966603    1.8778761440    0.0856195803
 H   -0.9249596003    1.8077199532    0.1437447838
 H   -2.0280550192   -2.5292009518    0.0954790466
 H    2.0917884355   -2.6308457900   -0.1190053924
 H    3.1245860741   -0.4925433198   -0.1827556113