22

 C   -0.4574749083    1.4226855589    0.1234455234
 C   -0.0723716441   -0.0317940478   -0.0250146488
 C    0.6173339054   -0.5862535795   -1.2247556722
 C    1.0857484587    0.2449835808   -2.4177133742
 C    2.2261713215    1.2344824147   -2.1047545644
 C    3.1776385546    0.6662412783   -1.0518646230
 O    4.2250760083    1.5692923756   -0.7268160448
 C    2.4205286553    0.4040381717    0.2497100028
 N    1.3060105467   -0.5356895485    0.0770157823
 H   -1.5109319073    1.5474877775   -0.1490604816
 H   -0.3484844550    1.7536248784    1.1630046230
 H    0.1256762686    2.0975638405   -0.5047728219
 H   -0.7769882458   -0.6959240519    0.4769385159
 H    0.3475968185   -1.6035355043   -1.5078338188
 H    1.4441569799   -0.4610880758   -3.1753219500
 H    0.2400891522    0.7716002081   -2.8760686372
 H    2.7740151405    1.4585683798   -3.0288942829
 H    1.8466941490    2.1922859382   -1.7314615787
 H    3.5910913044   -0.2899824374   -1.4156221194
 H    4.7167583594    1.7581169754   -1.5322881380
 H    3.1123385951   -0.0198303305    0.9851118748
 H    2.0930820422    1.3738291777    0.6475085936