14

 C    0.0682330728    1.4061793292    0.0269870935
 N    0.0519318888   -0.0446300782    0.0214197870
 C   -1.0890099211   -0.6222266440   -0.0319153131
 N   -2.3305305779   -0.0694705841   -0.1058160865
 C   -1.1472707758   -2.1457200076   -0.0445427082
 N    0.0675076156   -2.7255017024   -0.0742348132
 O   -2.2185177864   -2.7323842548   -0.0264062285
 H    1.1007035571    1.7634275496    0.0305556597
 H   -0.4344637103    1.8303961992   -0.8564781797
 H   -0.4281752779    1.8243675020    0.9182226698
 H   -2.4776887025    0.8945596545    0.1343782409
 H   -3.0943149683   -0.7219616812   -0.0014856034
 H    0.8754270666   -2.1217276816   -0.0538772993
 H    0.1461715294   -3.7269814705   -0.0504049489