19

 C    0.0740658097    1.6927091690   -0.0399798007
 C    1.5412004686    1.2067415189   -0.1486312392
 C    2.3236367024    1.0870281456    1.1701672127
 C    1.6109610644    0.2852794916    2.2724646286
 C    1.0770194418   -1.1135123372    1.8740408092
 C   -0.2005890710   -0.3148068723    1.5411347412
 O    0.2388754508    0.7417532667    2.4409597040
 C   -0.2128928001    0.1802992338    0.0663829604
 O    1.0590886863   -0.0955620087   -0.5856116257
 H   -0.2102618747    2.3316909378    0.7918286911
 H   -0.2724220698    2.0988812628   -0.9917225941
 H    2.1636030077    1.6786782272   -0.9156656090
 H    3.2934826579    0.6149468534    0.9659514081
 H    2.5334244900    2.0972290936    1.5451999244
 H    2.1709572022    0.3527071587    3.2107122725
 H    1.5689904092   -1.6577652162    1.0722930974
 H    0.9369251886   -1.7416573485    2.7553190089
 H   -1.1742999634   -0.7094118173    1.8450674186
 H   -1.0449638706   -0.2488422687   -0.4990337185