18

 O   -0.0151883726    1.3885117650   -0.1017737036
 C    0.0467526823   -0.0202102963   -0.0283365564
 C    0.1172794653   -0.6193666643    1.4140370499
 C   -1.3998633145   -0.2782067717    1.5171604469
 C   -1.3784294193   -0.6357562764    0.0005622128
 C   -1.0643991098   -2.1356192514    0.0349537319
 O   -0.6499227237   -2.5674190941   -1.2513666595
 C    0.0788356267   -2.1271959163    1.1148443337
 H    0.8622359593    1.7319611512    0.0927921522
 H    0.7420900253   -0.4291217703   -0.7710706429
 H    0.8465659031   -0.2634104893    2.1444698954
 H   -2.0175363510   -0.8898947985    2.1818990367
 H   -1.5835939636    0.7812466932    1.6841254295
 H   -2.1496072634   -0.3071488124   -0.6949474387
 H   -1.9360801010   -2.7158560460    0.3682852253
 H   -0.4112059358   -3.4974997515   -1.1920207903
 H    1.0121671673   -2.5030554439    0.6828237832
 H   -0.1620123046   -2.7256778567    1.9983642439