19

 O   -0.0561394204    0.8816965151   -1.5247804824
 C   -0.0312213939    1.4253116279   -0.4354485807
 C   -1.4097164416    1.7807139409    0.1568813519
 O   -1.4968072820    2.3595285834    1.4314426397
 C   -0.8964044442    3.6414852821    1.5711594463
 C    0.1144469525    3.5826147846    2.7182088108
 C    0.9338490541    2.2754662409    2.6617631537
 C    1.7084918887    2.0933445852    1.3851211838
 C    1.2958344442    1.7466286619    0.1555756064
 H   -1.8957605029    2.4070597764   -0.6082172889
 H   -1.9762206815    0.8452277317    0.2006448675
 H   -0.3984624074    3.9358922252    0.6396833402
 H   -1.6779626049    4.3852432263    1.7753066733
 H    0.7638243935    4.4650513361    2.6789186701
 H   -0.4102084244    3.6108456927    3.6794245325
 H    1.6305433108    2.2553795409    3.5047795074
 H    0.2341991368    1.4474607548    2.7944238140
 H    2.7811203447    2.2607028819    1.4768212321
 H    2.0589885076    1.6267551820   -0.6104374277