13

 O    0.1800366469    1.2314666377   -0.3383863652
 C   -0.1141531017   -0.1092331485    0.0397611185
 C   -1.6133192797   -0.1797015596    0.2878789864
 N   -2.3519736904    0.2097576777   -0.8985500642
 C   -3.3462650028   -0.5394867733   -1.4389143019
 O   -3.7582624589   -1.5897949151   -0.9910648569
 H    1.1004060262    1.2782144833   -0.6117541499
 H    0.1623314683   -0.8162839086   -0.7560299179
 H    0.4224481994   -0.3956606726    0.9567435229
 H   -1.9196420529   -1.1960856363    0.5432386595
 H   -1.8675786529    0.4779951795    1.1292701494
 H   -2.0562605968    1.0539430221   -1.3629275141
 H   -3.7540499546   -0.0747086162   -2.3587924666