25

 C    0.1589269205    1.5535632209    0.0705604531
 C    0.0116427808    0.0318436016   -0.0313340324
 C   -1.4383144858   -0.4799802048   -0.0317972929
 C   -2.2207163777   -0.0925190130   -1.2967477878
 C   -3.7102656190   -0.4451852400   -1.1605547003
 C   -3.9540106533   -1.8753376658   -0.7127858387
 C   -3.3084015239   -3.0393406404   -1.4178036207
 C   -2.8431323111   -2.6495515658   -0.0322698509
 C   -1.4677730068   -2.0097607015    0.1617451725
 H    1.2138267850    1.8427041968    0.1134870934
 H   -0.2855350390    2.0685649014   -0.7868084622
 H   -0.3266532101    1.9370954685    0.9750849302
 H    0.5171573036   -0.3277156082   -0.9384926968
 H    0.5429137403   -0.4315309576    0.8106263326
 H   -1.9571758785   -0.0233360422    0.8257753881
 H   -2.1296930925    0.9799553305   -1.4970604228
 H   -1.7807004207   -0.6040597925   -2.1644579754
 H   -4.1557265365    0.2312126257   -0.4183643464
 H   -4.2333313716   -0.2501613036   -2.1055249430
 H   -4.9585753169   -2.0562609669   -0.3396896162
 H   -3.8826248962   -3.9519282694   -1.5373920173
 H   -2.6353489897   -2.8319932079   -2.2447522169
 H   -3.1494499140   -3.3168704069    0.7674322314
 H   -0.7464019859   -2.4635732908   -0.5322031088
 H   -1.0999514208   -2.2439191082    1.1671615881