21

 C    0.0198868755    1.6138583264    0.0558779279
 C    0.0129810207    0.0829669952    0.0116259538
 C   -1.4033675615   -0.4992278985    0.0872770122
 C   -1.4615825325   -2.0289578457   -0.0263538669
 C   -0.8157166729   -2.7617117726    1.1690127824
 C   -2.9020651021   -2.5077033537   -0.1941379958
 O   -3.8694730350   -1.7916681117   -0.0522753771
 C   -3.0612918885   -3.9139424615   -0.5466272393
 C   -3.1866120848   -5.0711646207   -0.8546460347
 H    1.0384053291    2.0101581366   -0.0017368114
 H   -0.5511492327    2.0365878959   -0.7780628324
 H   -0.4303218181    1.9840657033    0.9835069112
 H    0.4978141557   -0.2583870324   -0.9131891559
 H    0.6246628993   -0.3030561021    0.8358938050
 H   -1.8840682081   -0.1923767653    1.0242527181
 H   -2.0160193592   -0.0655856685   -0.7113713336
 H   -0.9289827562   -2.3490238469   -0.9346013004
 H   -1.2922068268   -2.4612071230    2.1083266195
 H   -0.9122322201   -3.8459938592    1.0687061168
 H    0.2487293721   -2.5249829399    1.2369823166
 H   -3.3151584235   -6.0911822455   -1.1251196559