17

 C   -0.0643035347    1.5150758973    0.0002360427
 C    0.0111434626    0.0047853493   -0.0158257928
 C   -0.7897709994   -0.7842296866    1.0062014434
 C    0.7049618956   -0.7705908122    1.1315819584
 N    1.4426897838   -1.9601897171    0.8749604757
 C    1.3697222747   -2.4531295152   -0.2938112339
 N    0.6882404345   -1.8938573100   -1.3686255772
 C    0.1636108169   -0.6004340390   -1.3655874470
 O   -0.1087305169   -0.0381779128   -2.4064372338
 H    0.8218577169    1.9615443449   -0.4605089293
 H   -0.9377896079    1.8616864981   -0.5588630990
 H   -0.1410526419    1.8840871738    1.0271709029
 H   -1.3627587281   -0.1985973138    1.7163036434
 H   -1.2602814518   -1.7111197273    0.6969797021
 H    1.1232487932   -0.1660347878    1.9299385286
 H    1.8818757050   -3.3849772112   -0.5263147715
 H    0.8152987376   -2.2902078303   -2.2895264026