21

 C   -0.2083168303    1.5599566685    0.1059119728
 C    0.0156749319    0.0388866318    0.0025092669
 C    0.7513470477   -0.3670811349   -1.2904627751
 C    2.2802603954   -0.1859170627   -1.1701804237
 C    2.8267206157   -1.0585259279   -0.0228590870
 C    1.9653072930   -0.9845195357    1.2100432711
 C    0.7279551694   -0.4922184363    1.2219027896
 C    2.9408647390   -0.5617135809   -2.4773816399
 O    3.5538864458    0.1874958505   -3.1926617551
 H    0.7415221218    2.1037280306    0.1016228896
 H   -0.8143339718    1.9230825411   -0.7307432369
 H   -0.7284233281    1.8158043919    1.0346926755
 H   -0.9796678934   -0.4265094864   -0.0293809785
 H    0.5402935350   -1.4217900189   -1.5095628714
 H    0.3691989663    0.2157819340   -2.1358720677
 H    2.5159536154    0.8658114107   -0.9801566967
 H    2.9066790899   -2.1061007097   -0.3547634369
 H    3.8513914783   -0.7507420362    0.2189054757
 H    2.4060150752   -1.3613178790    2.1300468681
 H    0.1757849181   -0.4501525694    2.1584777814
 H    2.8077197856   -1.6367172612   -2.7543678521