17

 C   -0.1518077829    1.5177574657   -0.0539613705
 C   -0.0140368445    0.0349414512    0.0032274051
 C    0.0715556926   -1.0413848337   -1.0176087676
 N    1.2856027345   -1.6066488936   -0.4612450570
 C    0.9036989345   -0.9608689147    0.8290000621
 C   -0.3782851159   -1.6880310534    1.3238719991
 C   -1.0579831647   -1.0907323223    0.0930858685
 C   -2.4367220643   -1.0300433444   -0.2331527290
 N   -3.5613089247   -0.9734359717   -0.5089300912
 H    0.7845389503    1.9852585222   -0.3762901379
 H   -0.9351626685    1.8011576560   -0.7640363603
 H   -0.4213015835    1.9331353405    0.9228271659
 H   -0.1826901374   -1.0375530535   -2.0700433404
 H    1.3039218341   -2.6269790161   -0.4175652694
 H    1.7099094328   -0.6999329537    1.5111771654
 H   -0.3315192759   -2.7781941502    1.4242512583
 H   -0.7692738065   -1.2445930982    2.2424745289