16

 C   -0.0154241637    1.4873646086    0.0224150818
 N    0.0001635806    0.0303789426    0.0025352952
 C   -0.0317137060   -0.6621024765   -1.1639436088
 C   -0.0192899951   -2.0279473110   -1.2096712663
 C    0.0287188516   -2.8011912079   -0.0031113939
 O    0.0451778989   -4.0376285680    0.1097903861
 C    0.0616577097   -2.0048325917    1.2287685534
 O    0.1066261990   -2.7299328391    2.3547503691
 C    0.0471021920   -0.6481563367    1.2063607751
 H    0.8847506922    1.8757910189    0.5095061072
 H   -0.0492525710    1.8622005893   -1.0007229979
 H   -0.8939720353    1.8564672951    0.5613540756
 H   -0.0678261408   -0.0569790707   -2.0617424960
 H   -0.0457975494   -2.5359735175   -2.1652657355
 H    0.1043059226   -3.6500338425    2.0039485300
 H    0.0708215048   -0.0431150728    2.1028441546