22

 C   -1.1551207014    1.2342812105   -1.1850910241
 O   -0.9141387018   -0.1502765439   -1.1594024264
 C    0.3818761068   -0.4735659252   -0.6885321649
 C    0.5328879260   -1.9801869684   -0.7595559446
 C    0.7264996279   -2.6011457148   -2.1489825167
 N    2.0166045143   -2.0794303257   -2.6643827289
 C    2.0044018432   -3.2381349637   -1.7376816944
 C    1.8976381832   -2.6602561235   -0.3170826122
 C    3.0554552130   -1.8100592486    0.1916372312
 H   -1.0822709877    1.6826519662   -0.1806165987
 H   -0.4475195304    1.7624474548   -1.8441527611
 H   -2.1694750515    1.3855907837   -1.5637178679
 H    1.1490392458    0.0156232921   -1.3061655421
 H    0.5093347575   -0.1193204885    0.3495056937
 H   -0.3087978073   -2.4426445827   -0.2367208408
 H   -0.0404069586   -2.9489635116   -2.8294563188
 H    2.1337514618   -2.4489896381   -3.6069834431
 H    2.4415145352   -4.1844301036   -2.0342685881
 H    1.6760742594   -3.4589994332    0.3973362917
 H    3.3431607442   -1.0604197936   -0.5493818860
 H    2.7971042250   -1.2972816437    1.1243573672
 H    3.9307264954   -2.4376763984    0.3940811250