13

 N    0.0857883909    1.2214186337   -0.3559425075
 C   -0.0474825349   -0.0530845566    0.0563071623
 N   -1.2499124690   -0.5784145679    0.0957990671
 C   -1.4531785609   -1.9071120667    0.2642548615
 N   -0.7087891907   -2.9311048169   -0.0228687313
 C    0.6027142874   -2.8099385618   -0.4243124751
 O    1.1404751514   -3.4647711103   -1.2886755743
 C    1.4120893768   -1.8392768523    0.3964879083
 N    1.1398489343   -0.5967903815    0.5326946440
 H    0.9560385976    1.7013462742   -0.2074040239
 H   -0.7400443786    1.7340832190   -0.6142216326
 H   -2.4497679287   -2.1425995039    0.6401418814
 H    2.3275180644   -2.2148156190    0.8581853401