20

 C   -0.0418633663    1.4869299488   -0.2205517273
 C    0.0467695579    0.0270443111    0.1705718868
 N    1.2245566069   -0.8437635538   -0.0498459640
 C    2.4495963035   -0.0214713296    0.2604637122
 C    2.0247190513    0.1701142477    1.7272969646
 O    2.0122928523    1.5088045289    2.1781062661
 C    0.7069292192   -0.5358534753    1.3709827678
 C    0.1333706220   -1.6538036805    2.1964967048
 O    1.1013258365   -2.6594765930    2.4558666037
 H    0.7310043814    2.1005940518    0.2388456357
 H    0.0103532283    1.5916051069   -1.3101405430
 H   -1.0108146623    1.8830527499    0.1012302245
 H   -0.8457663390   -0.5319332567   -0.1097529767
 H    3.3490179577   -0.6247663516    0.1266089496
 H    2.5433841140    0.8952285955   -0.3268152469
 H    2.6090092869   -0.4689777136    2.3992690184
 H    1.7517488857    1.5174121847    3.1046698404
 H   -0.1905991952   -1.2822801279    3.1765528807
 H   -0.7527281732   -2.0709649474    1.6937629205
 H    1.4327443123   -2.9334190458    1.5916854318