17

 C   -0.0956870754    1.4899449730   -0.1277795493
 C    0.0345775180   -0.0199909787   -0.0251871778
 O    0.7240320068   -0.4906193947   -1.1657593106
 C    0.9045384823   -1.8869702127   -1.1706334657
 C    1.6482121534   -2.2711626563   -2.4197219030
 C    1.5396797540   -3.6200433195   -2.9857512260
 O    0.8693304620   -2.5162230499   -3.5916797981
 H    0.8916617736    1.9579125882   -0.1753561737
 H   -0.6490848248    1.7654937047   -1.0297596196
 H   -0.6273262380    1.8865598469    0.7423332819
 H    0.5808818143   -0.3015837601    0.8918700891
 H   -0.9608866162   -0.4914240972    0.0378128537
 H    1.4822851363   -2.2063736202   -0.2842058751
 H   -0.0627029535   -2.4155801072   -1.1467672720
 H    2.5598307266   -1.7005227219   -2.5989247127
 H    2.3732326025   -4.0365089567   -3.5493511888
 H    0.8922942180   -4.3553535080   -2.5082995623