18

 C    0.5647657558    1.4250118827   -0.0535712278
 C    0.0259099541   -0.0093777625   -0.0383405059
 O   -1.3953795022    0.0134345579   -0.0046132865
 C    0.4801185601   -0.9146722797   -1.2034880522
 N    1.3871724692   -1.9805919163   -0.6890644714
 C    2.5782579095   -1.4630585234   -0.0448051671
 C    1.4070343577   -1.8896641740    0.7898128135
 C    0.4915285106   -0.7996216361    1.2162500344
 O    0.0380339179   -0.6000929923    2.3172545035
 H    1.6540183466    1.4681638240   -0.1513689162
 H    0.1207066547    1.9655653664   -0.8945300267
 H    0.2864118253    1.9358876422    0.8737226099
 H   -1.6384690472    0.1923247935    0.9150859791
 H   -0.4033628965   -1.4020303404   -1.6210749230
 H    0.9887267926   -0.3699936639   -2.0033241036
 H    3.4430720596   -2.1197813042   -0.0686369081
 H    2.8119618294   -0.4040247113   -0.1162820782
 H    1.4451184527   -2.8030174429    1.3728549062