21

 C   -0.0697855725    1.4695892114    0.0833075281
 C    0.0112574607   -0.0384450770   -0.0242942797
 C    0.7622162048   -0.6214654188   -1.2306575105
 C    0.9384346924   -2.0577139710   -0.7122563269
 C    1.4181524089   -1.7504789650    0.7155128682
 O    0.7239379247   -0.5541782569    1.0994108124
 C   -0.4487449762   -2.7305841696   -0.7105617515
 C   -1.4255799742   -1.9284620975    0.1661477457
 O   -1.3283095117   -0.5220531232   -0.0353882204
 H    0.9314232768    1.9054272467    0.0514703180
 H   -0.6655663734    1.8726902868   -0.7391914093
 H   -0.5475697436    1.7432358043    1.0268762625
 H    0.1791802185   -0.5469699680   -2.1503579003
 H    1.7243766006   -0.1173792227   -1.3680381214
 H    1.6669692841   -2.6473808794   -1.2740098210
 H    1.1855000505   -2.5452585855    1.4338952156
 H    2.5010990205   -1.5675329872    0.7432231106
 H   -0.8189534443   -2.7839568337   -1.7408375096
 H   -0.3902026960   -3.7577397808   -0.3320244072
 H   -2.4630303131   -2.1925839713   -0.0563296873
 H   -1.2429907675   -2.1557504813    1.2253378539