21

 C   -0.0452552354    1.6044454599   -0.0707560202
 C   -0.0006583266    0.0756565980    0.0132739604
 C   -1.4002930543   -0.5457309891    0.0790372323
 C   -1.4129515410   -2.0962443021    0.0696217041
 C   -0.7447682313   -2.7144464219    1.3167043973
 C   -2.7792604437   -2.5890289368   -0.0739235059
 C   -3.9179127756   -2.9863017702   -0.1846294529
 C   -5.1974868451   -3.4338329461   -0.3050748052
 C   -6.3330256738   -3.8309018453   -0.4133840961
 H    0.9619853823    2.0296544156   -0.1171752042
 H   -0.5898471449    1.9365621754   -0.9613582103
 H   -0.5483713373    2.0337572105    0.8026358257
 H    0.5328275890   -0.3240929925   -0.8596829187
 H    0.5852393341   -0.2191919385    0.8915063905
 H   -1.9238499168   -0.1957740199    0.9779280546
 H   -1.9900574910   -0.1934570991   -0.7752612374
 H   -0.8473824309   -2.4265609077   -0.8145795328
 H   -1.2495357025   -2.3801741600    2.2283469134
 H   -0.7965188453   -3.8054937446    1.2816560243
 H    0.3073566054   -2.4246102826    1.3764919716
 H   -7.3311520854   -4.1798625731   -0.5063011403