20

 C   -0.1108883808    0.8286508056   -2.0228808785
 C    0.0428589150   -0.3197592486   -1.0503311233
 C    1.3312116589   -0.6179651578   -0.3252751324
 C    2.5920277208    0.1978677622   -0.5015616698
 C    0.1451087688   -0.0563739212    0.4457046631
 O    0.2618509708    1.2687387865    0.9033730789
 C   -0.5700744103   -1.0086921120    1.3679714845
 N   -0.9853800529   -0.4477705155    2.5399813581
 O   -0.7654252168   -2.1744860808    1.0688724503
 H    0.4234466744    1.7234706411   -1.6951473603
 H    0.2766370548    0.5536245030   -3.0093740054
 H   -1.1665577792    1.0944560955   -2.1514417949
 H   -0.5517262568   -1.1992976693   -1.2791116076
 H    1.4903838197   -1.6750097012   -0.1336483212
 H    2.3883699858    1.2699014309   -0.5074973981
 H    3.2921825509    0.0021996201    0.3171433662
 H    3.0954973268   -0.0639614525   -1.4384420790
 H   -0.5163170087    1.7560273337    0.6101474314
 H   -0.6168626585    0.4513545906    2.8022321275
 H   -1.3353472126   -1.0666816602    3.2528046205