20

 C   -0.1466421344    1.5021505501   -0.1170646710
 C   -0.0192726676    0.0094868762    0.0718236041
 N    1.2730086120   -0.6986794056   -0.1520388072
 C    2.4212125523    0.1461105601   -0.1749835964
 O    2.9406027008    0.5511402088   -1.1793076183
 C    2.8647967189    0.4269684716    1.2671567966
 C    1.6044759279    0.1780004072    2.1187031051
 C    0.6888833397   -0.6593048578    1.2035054563
 C    0.1628260716   -1.9627785189    1.7571879700
 H    0.6309906176    2.0705600987    0.3989118864
 H   -0.0887660608    1.7572670846   -1.1799212398
 H   -1.1179672162    1.8390252425    0.2594604766
 H   -0.8515808461   -0.5459194849   -0.3594838563
 H    3.6659109213   -0.2763014456    1.5220765497
 H    3.2846815633    1.4321623429    1.3382442903
 H    1.8278075600   -0.3794150656    3.0308663238
 H    1.1299017924    1.1142509373    2.4272954685
 H   -0.5124148794   -1.7792657300    2.6005476564
 H   -0.3848118355   -2.5205705494    0.9930990782
 H    0.9835524523   -2.5942841422    2.1148941468