22

 C    0.0336538131    1.3356232076   -0.2817274533
 O   -0.1018706426    0.1020555358    0.3865936556
 C   -1.3557931949   -0.4988618802    0.1914109410
 C   -1.5286792440   -1.2858077918   -1.1392208088
 N   -1.2274698500   -2.5383876484   -0.4175553396
 C   -2.0099344786   -3.7165836628   -0.7384145640
 C   -1.4061301503   -4.9888565200   -0.1466036765
 O   -1.3395832688   -4.9619176106    1.2726254234
 C   -1.4243142178   -1.8693614734    0.8892855835
 H    1.0265384562    1.7252393582   -0.0452402195
 H   -0.0515749810    1.2289152834   -1.3736342492
 H   -0.7237764498    2.0625549293    0.0523828127
 H   -2.1610612152    0.2099758347    0.4267589736
 H   -2.5600551288   -1.2318451289   -1.5228593176
 H   -0.8324496128   -1.0485713397   -1.9517839364
 H   -3.0594097170   -3.6191666396   -0.3968264334
 H   -2.0310641872   -3.8228344380   -1.8308371244
 H   -2.0376040897   -5.8455900648   -0.4071806676
 H   -0.4120011018   -5.1555423483   -0.5854953397
 H   -0.6128347724   -4.3800212519    1.5139183562
 H   -0.6369090543   -2.0423675196    1.6308555038
 H   -2.4037161924   -2.0741092310    1.3457172999