16

 O    0.6728012181   -0.2819796933   -0.1347029002
 C    0.3293876023    0.8610587119    0.0114243973
 C    1.2952303427    2.0300350672    0.0616617099
 C    1.0464776296    3.0460592363   -1.0942253355
 O    1.0118069751    4.3461424937   -0.5182641773
 C    1.6295710642    4.2933776136    0.7469894809
 C    1.1942479900    2.9290321418    1.3319633289
 C   -0.1580521994    3.0068284068    1.8892249484
 N   -1.2208878252    3.0765231464    2.3379400506
 H   -0.7421622137    1.1436269393    0.0948343397
 H    2.3057190532    1.6209445162    0.0074231191
 H    1.8478625524    2.9662713572   -1.8391739938
 H    0.0887879408    2.8820748044   -1.6005693892
 H    2.7284302215    4.3168558868    0.6731602752
 H    1.2911606475    5.1498982084    1.3330586023
 H    1.8703514809    2.5767847434    2.1152677536