16

 C    1.0618298789    0.9821605695    0.2646843012
 N    0.5998360342    0.1683370885   -0.8725757170
 C   -0.2595128277    0.3092282217    0.3105517931
 C   -0.5194058043   -0.9478703929    1.1155097972
 C    0.6789378582   -1.9154176623    1.2804213611
 N    1.0752495629   -1.7935914144    2.6960843625
 C    0.1971710187   -1.0563588887    3.2326003121
 O   -0.8188040440   -0.5530617911    2.4886256412
 H    1.9068709485    0.5701690033    0.8083217377
 H    1.0723788761    2.0640766997    0.1667300927
 H    0.2666841521    0.7624641273   -1.6260513773
 H   -1.1302119111    0.9569698008    0.2289195794
 H   -1.4117742584   -1.4491369344    0.7306011940
 H    0.4002347708   -2.9531016163    1.0700151372
 H    1.5065555430   -1.6646153965    0.6129762932
 H    0.1647998320   -0.7740062943    4.2792980716