23

 C    0.0731791371    1.4676796714   -0.0888943225
 C    0.0065169813   -0.0233503946    0.1647112259
 C   -0.9722255897   -0.7688957767   -0.7199950818
 O    1.2759973432   -0.6839218012    0.3273170618
 C    0.3926188406   -0.6242010548    1.4565137512
 C    0.8692820388    0.1223027849    2.6829176680
 C    1.8373353792   -0.7018852552    3.5109910816
 C    3.2851109066   -0.7908803674    3.1026569207
 C    2.8963698400   -0.0271572620    4.3453762903
 H    0.8353690141    1.9532759470    0.5216101012
 H    0.3155327774    1.6567831988   -1.1405604339
 H   -0.8938201440    1.9392488401    0.1181029224
 H   -0.7210171420   -0.6230243163   -1.7765159351
 H   -0.9485672086   -1.8407804016   -0.5091914069
 H   -1.9938718109   -0.4042978058   -0.5662445062
 H   -0.0688801458   -1.5885204826    1.6898095819
 H    1.3527962675    1.0580690148    2.3865338385
 H   -0.0047158579    0.3930758670    3.2919489563
 H    1.4057099536   -1.6068823430    3.9322870096
 H    3.7989940816   -1.7383892430    3.2201313136
 H    3.5895162704   -0.2273842866    2.2278155153
 H    2.9511634064    1.0565127529    4.3155430560
 H    3.1417252112   -0.4542513860    5.3115919123