16

 C   -0.1129610910    1.5432351359   -0.0619666159
 C    1.4479208709    1.6841718120    0.0530499265
 O    2.0518358746    2.1809225583    1.2480877390
 C    2.4820402018    1.0450821280    2.0759274719
 C    1.6851278204   -0.1258686578    1.5414002122
 C    1.3539382206    0.2187142437    0.2691965845
 N   -0.0090028522   -0.0135093564   -0.0156637412
 C   -0.4574317085   -0.7467987915    1.0968831171
 C    0.5432340628   -0.8651114385    2.0317194857
 H   -0.6393863800    1.9150275936    0.8159465793
 H   -0.5688309092    1.8806454206   -0.9925407490
 H    1.9347104724    2.1282421887   -0.8183271409
 H    3.5708182817    0.9428650741    1.9873796964
 H    2.2388981886    1.2761795472    3.1171449365
 H   -1.4468590780   -1.1846875829    1.1083845119
 H    0.4645860752   -1.4120834853    2.9620519361