19

 C    0.0305400901    1.5632362213   -0.0905692593
 C    0.0689996002    0.0462337896    0.0030107235
 O    0.8264875809   -0.4810321668   -1.0966346736
 C    1.2420007515   -1.8098774631   -0.7440524913
 C    1.4944481621   -1.7651722948    0.7502502601
 C    2.2546392028   -0.5506222983    1.2459480351
 O    3.0581041738    0.2463534913    0.4277692236
 C    0.7465980993   -0.5374798609    1.2418151549
 O    0.0072187001   -0.5755729664    2.4226555344
 H    1.0354469027    1.9862035787   -0.0131773026
 H   -0.4181448047    1.8809144620   -1.0357253829
 H   -0.5798096189    1.9649726233    0.7248042921
 H   -0.9583941571   -0.3531285592   -0.0256650929
 H    0.4573029195   -2.5415956501   -0.9860114409
 H    2.1275225754   -2.0368376410   -1.3459450361
 H    1.5123645138   -2.6855440180    1.3220718118
 H    2.7056580040   -0.6608084526    2.2274706908
 H    2.6231017319    0.2900757043   -0.4353380998
 H    0.1423806725    0.2573091508    2.8875414232