17

 O   -0.8936815828    0.8438769253   -0.2938175264
 C    0.0367445939    0.9705410455    0.4696569473
 C    1.1774254020    1.8162011705    0.2347166966
 C    2.1505958134    2.5142355089    0.0701637424
 C    3.2945057719    3.3737222126   -0.1589577463
 C    4.0931873470    3.0520965639   -1.4614742990
 C    4.4309744838    4.4559404181   -2.0294620858
 O    4.0563449390    5.4005521646   -1.0333752914
 C    2.9294805413    4.8674251454   -0.3762360444
 H    0.0698462278    0.4226726128    1.4336296557
 H    3.9727839254    3.3168271584    0.6990399320
 H    4.9857978003    2.4672664603   -1.2328807542
 H    3.4838159194    2.4751779712   -2.1594345417
 H    5.4943457069    4.5977982503   -2.2364192486
 H    3.8700866732    4.6384482011   -2.9577925057
 H    2.0194371215    4.9453923604   -0.9918412977
 H    2.7784832662    5.4156977307    0.5556683273