15

 O   -0.2187307721    1.3943367221    0.0235459382
 N   -0.0126796303   -0.0021502188   -0.0710894505
 C   -1.1121428938   -0.6245964819   -0.0697548737
 C   -2.5919187430   -0.3125454475    0.1190312711
 N   -3.1796992431   -0.8507605466   -1.1686446846
 C   -2.8518068551   -2.1846197451   -0.6105254476
 C   -2.7120177953   -1.7380872707    0.8124443448
 C   -1.4398244517   -2.0723586561    0.0138818249
 O   -0.6257447117   -3.1524339028    0.2210075064
 H    0.6848586005    1.7268403765    0.0229049508
 H   -2.9312880434    0.6477701644    0.4916270855
 H   -4.1925197113   -0.7421211145   -1.0977670335
 H   -3.1928478837   -3.1250618270   -1.0258234044
 H   -3.0302758114   -2.0922376133    1.7833988979
 H   -0.2018712646   -3.3823831289   -0.6139406854