21

 C   -0.1254888441    1.5502806978   -0.0069534766
 C   -0.0863442872    0.0209489073   -0.0497271225
 C    0.8013019117   -0.5115574164   -1.1844256306
 O    2.1259981651   -0.0223964365   -1.1118399402
 C    0.7795729347   -2.0645403283   -1.2570518659
 O    1.4106918269   -2.5644802306   -2.4247082164
 C    0.5970713219   -2.5415766487   -3.5769139427
 C    1.4777601886   -2.6311614137   -0.0999798504
 C    2.0721509893   -3.0342275162    0.8641473713
 H    0.8857954474    1.9547852851    0.0816526037
 H   -0.5686055232    1.9605735363   -0.9213563736
 H   -0.7181657133    1.9064213545    0.8408045590
 H    0.2876775017   -0.3724416651    0.9039699056
 H   -1.1014033638   -0.3790692611   -0.1739042411
 H    0.4110328837   -0.1386857495   -2.1393490157
 H    2.5671258959   -0.4917743078   -0.3918610665
 H   -0.2736858934   -2.3930767830   -1.2339972626
 H   -0.3372069824   -3.1044619007   -3.4241208198
 H    0.3393865562   -1.5219488948   -3.8970262814
 H    1.1701583616   -3.0186607787   -4.3749870894
 H    2.5827777326   -3.4250598397    1.7099087758