20

 C   -0.0326635500    1.5317675852   -0.0084560101
 C   -0.0231417182    0.0125797126    0.0200641951
 C   -1.4021363911   -0.6648832599   -0.0896194041
 C   -1.2352832273   -2.0424575139    0.5825108985
 C   -0.2622556617   -1.7711203689    1.7482304972
 C    0.7199245743   -0.7348094776    1.1924582127
 N    1.6596658971   -1.2334977760    0.1779072964
 C    1.0416157663   -0.6495845607   -0.8999854726
 O    1.2595264483   -0.6712334991   -2.0830885581
 H    0.9710282839    1.9427551104    0.1405948562
 H   -0.3956668962    1.8906264251   -0.9770224193
 H   -0.6880503933    1.9377797097    0.7699091035
 H   -2.1383522572   -0.0637998449    0.4591546493
 H   -1.7418883669   -0.7314265063   -1.1271723683
 H   -2.1844413829   -2.4706052483    0.9143188312
 H   -0.7896774709   -2.7532007272   -0.1213102344
 H   -0.7998978515   -1.3243863263    2.5937175519
 H    0.2352408173   -2.6723639902    2.1204782764
 H    1.1977463529   -0.1135414416    1.9551168721
 H    2.4030010669   -1.9160687221    0.2267885362