12

 O   -0.9822741549    1.6197550474   -0.0440805923
 C    0.0847855816    1.2173489395    0.3346642181
 C    1.3866077349    2.0274089443    0.3032078763
 O    2.3680261055    1.5972518069    0.8717680151
 N    1.3429952714    3.1717921264   -0.4511567839
 C    0.4735378724    4.3162042674   -0.2854302344
 C    1.9636698686    4.4305660277   -0.1163656052
 H    0.2372559129    0.2181450916    0.7917849924
 H    0.0005971897    4.6848152547   -1.1904131259
 H   -0.1457516967    4.3533110326    0.6056300668
 H    2.3650495905    4.5276014469    0.8887724486
 H    2.5581007141    4.8883160047   -0.9012219355