18

 C   -0.0579765061    1.5612144049   -0.1097574173
 C   -0.0292808863    0.0339850078   -0.0445557721
 C    0.7652172353   -0.5207440191    1.1633064474
 O    2.0849875454    0.0013683148    1.0535250638
 C    0.1505142952   -0.0429924120    2.4349376239
 N   -0.3093537155    0.3389568552    3.4238388937
 C    0.7611726046   -1.9890748294    1.1663243948
 C    0.7803359367   -3.1925903832    1.1575908137
 C    0.7966998243   -4.6472154090    1.1519753092
 H    0.9536320671    1.9685362444   -0.1674387443
 H   -0.6114589301    1.8859665243   -0.9952841821
 H   -0.5494501705    1.9880930871    0.7697186803
 H   -1.0420459334   -0.3765553153    0.0058855133
 H    0.4506113988   -0.3847837979   -0.9342901553
 H    2.6308788513   -0.4251159664    1.7240497925
 H    1.5811482963   -5.0354609660    1.8100637630
 H   -0.1604421059   -5.0490236264    1.5008519345
 H    0.9782495927   -5.0375336237    0.1451264511