17

 C   -0.1666263833    1.4515296288    0.0523238820
 N   -0.1603392243   -0.0007113554    0.1144876096
 C    0.6028550988   -0.6128206117    0.9037183045
 C    0.6288837464   -2.1098996945    1.0191790370
 C    2.0757844266   -2.5937795333    1.0849025484
 N    2.7536736101   -1.8402983462    2.1253946134
 C    2.5160741317   -0.5339780785    2.4311518654
 O    3.1493201872    0.1137441515    3.2201712739
 O    1.4618791317    0.0605317679    1.7647516825
 H    0.6197937044    1.9362963734    0.6382987153
 H   -0.0760571988    1.7543997960   -0.9960327475
 H   -1.1406161015    1.8127249066    0.4018174384
 H    0.1120467413   -2.4064954759    1.9402954982
 H    0.0941095735   -2.5329641806    0.1694225253
 H    2.1156852592   -3.6567535956    1.3379518938
 H    2.5656515872   -2.4657019367    0.1089331831
 H    3.5844943096   -2.2106143258    2.5573663066