17

 O    0.4166177802    1.1154085833    1.1710509171
 C    0.2613062172    1.5405287022    0.0456443163
 N    1.2010731715    1.4724269205   -0.9352342570
 C    2.5003456785    0.8561675866   -0.7049759233
 C    3.4817536081    1.7626837198    0.0126115357
 C    4.9568293454    1.5945528037   -0.2293436291
 N    4.2521589503    2.7529227257   -0.7222389392
 C    4.1289199438    3.0987465962   -2.0527743724
 O    4.9936935784    2.9815524416   -2.8867811682
 H   -0.6719057250    2.0256520964   -0.3007501488
 H    0.9974750861    1.8775851612   -1.8344085019
 H    2.3414833392   -0.0338608854   -0.0883753952
 H    2.9103101421    0.5400507735   -1.6690291518
 H    3.1499909414    2.0839409277    0.9967190847
 H    5.6584308381    1.7683266229    0.5810231257
 H    5.2748043945    0.8630292638   -0.9689050542
 H    3.1507983603    3.5774327603   -2.2580446785