16

 N   -0.2227906302    1.1484332494   -0.0104701018
 C   -0.5880983755   -0.0248080672    0.2737405252
 O   -0.8235238717   -0.9092125976   -0.7187216804
 C   -1.0666801965   -2.2430279869   -0.3697493157
 C   -1.8629900319   -2.8069268389    0.7780463363
 C   -3.2365375248   -2.1156220668    1.0355630121
 O   -3.3797559322   -0.9851312120    0.1711827890
 C   -3.6381280913   -2.2925577007   -0.3524157490
 C   -2.3006462727   -3.0125170832   -0.7004624534
 H   -0.1046603439    1.6866905380    0.8453928322
 H   -0.7494956000   -0.4430827660    1.2739177974
 H   -0.1757514277   -2.8474637699   -0.5448044730
 H   -1.4404216350   -3.5347880388    1.4596661784
 H   -3.7957160951   -2.1290955609    1.9626941446
 H   -4.6013132126   -2.4755020363   -0.8111721490
 H   -2.2688650492   -3.9215286622   -1.2876471029