19

 C   -0.0130221033    1.4887786755   -0.0336071196
 C   -0.0124514531   -0.0258857288    0.0133590694
 C   -0.3416083146   -0.7276823870    1.3146311149
 C    1.0697921954   -0.7366594836    0.7917387002
 O    1.5598330596   -1.9575629614    0.3160919688
 C    1.7706769254   -2.0270400828   -1.0816917040
 C    0.5266927471   -1.6692804869   -1.8708092139
 O   -0.7154772558   -2.0739163556   -1.2906821482
 C   -0.3909979584   -0.6803392298   -1.2908736827
 H    0.6210939541    1.8666276584   -0.8443914029
 H   -1.0258769887    1.8776303739   -0.1918345974
 H    0.3607245578    1.9102616698    0.9039284418
 H   -0.5739579824   -0.1148167490    2.1790030138
 H   -0.8708028435   -1.6703400859    1.2436057043
 H    1.8238505531   -0.1315751212    1.2942516280
 H    2.5944064307   -1.3685557888   -1.4076888308
 H    2.0703040620   -3.0608183947   -1.2815786599
 H    0.6004414025   -1.7864759910   -2.9522482461
 H   -1.0151047479   -0.0775960511   -1.9512485257