18

 O    0.1066908457    1.4646169895   -0.2565545299
 C    0.0831893780    0.0502952812   -0.1566532280
 C   -1.3394989279   -0.5079872919    0.0337652402
 C   -1.3959233661   -1.9976626978    0.0848024024
 C   -1.4111577893   -2.8572577618    1.1632708041
 O   -1.3950787189   -2.4217907952    2.4620823935
 C   -1.4329661177   -4.1952900677    0.6835066599
 C   -1.4265831434   -4.1211013538   -0.6928394305
 N   -1.3956589464   -2.8012338331   -1.0427272201
 H   -0.1826808734    1.8218505136    0.5891587539
 H    0.5075919820   -0.3209360904   -1.0959924387
 H    0.7292467150   -0.3140320457    0.6558971929
 H   -1.7473602389   -0.1198597436    0.9749905412
 H   -1.9740274320   -0.1136737165   -0.7706830724
 H   -1.5372492964   -3.1783212127    3.0373349297
 H   -1.4501785613   -5.0985743054    1.2750860039
 H   -1.4450811224   -4.8984679318   -1.4391481553
 H   -1.4135924366   -2.4530165366   -1.9849286868