19

 C   -0.4132574047    1.2343232912   -1.3226153409
 C    0.3006738562   -0.0456871591   -0.9528804487
 O    1.7039074002   -0.0274886335   -1.2884508844
 C    2.0868709434   -0.5169485874    0.0151265810
 C    3.2211503693    0.2665866926    0.6360394228
 C    0.6393096511   -0.3052698310    0.5582032626
 O    0.5863708993    0.8466240691    1.3803387576
 C   -0.0206419031   -1.4395451398    1.1849023165
 C   -0.5978939679   -2.3593023674    1.7021518526
 H    0.0163261863    2.0840098246   -0.7884443599
 H   -0.3191000726    1.4076473581   -2.3990256188
 H   -1.4800170876    1.1633525799   -1.0828705236
 H   -0.1932279373   -0.9178654507   -1.4030122386
 H    2.3324364203   -1.5864826449   -0.0329860796
 H    2.9541161384    1.3182646937    0.7482728590
 H    3.4729774522   -0.1403358540    1.6203774876
 H    4.1045703833    0.1891833451   -0.0054365827
 H   -0.2930268583    0.8923602632    1.7701959103
 H   -1.0963106287   -3.1780270400    2.1601636772