18

 C   -0.0753325974    1.0313973312   -0.7373314674
 C    0.1610827994   -0.0600879770    0.2819641744
 O    1.2413805437   -0.2804518215    0.7769898205
 C   -1.0445454062   -0.9395860622    0.6357817995
 C   -0.9634614170   -2.2623994403   -0.1117475948
 C   -2.1987578689   -3.1880624583   -0.1025415125
 C   -2.2270068619   -2.9105906548   -1.5907050375
 N   -2.9514838955   -3.2724812490   -2.5455661928
 O   -1.1214756662   -2.0792230849   -1.5644542448
 H    0.8569136906    1.5507320113   -0.9613393874
 H   -0.4931177768    0.5856193279   -1.6472685578
 H   -0.8183851242    1.7449657496   -0.3621269968
 H   -1.0055990757   -1.1499411296    1.7095913051
 H   -1.9921225321   -0.4438876361    0.4014866559
 H   -0.0104810593   -2.7578573996    0.0909401161
 H   -2.0172834178   -4.2294018269    0.1669994215
 H   -3.0647926836   -2.8142152845    0.4470943932
 H   -2.6375653110   -2.8656339255   -3.4282579547