20

 O   -1.8679151814    1.6932281195    1.2346342683
 C   -1.9645935142    0.2922111923    1.3788763513
 C   -1.4922612769   -0.4227828183    0.1145915850
 O   -0.1520746519    0.0188040702   -0.1018359357
 C   -1.4815713733   -1.9345316345    0.2640770400
 C   -2.6134246768   -2.9072572639   -0.1605793732
 C   -2.2058604088   -2.5757023212   -1.6114067070
 N   -0.8345274509   -2.7071919002   -0.9167199881
 C   -1.4686098130   -3.9426477958   -0.2470314792
 H   -0.9761368635    1.8617395708    0.9068590874
 H   -1.3695414909   -0.0676847195    2.2345682589
 H   -3.0168187224    0.0586013568    1.5740495800
 H   -2.1324862367   -0.0896060097   -0.7139494113
 H    0.2567434122   -0.6062011777   -0.7139052983
 H   -0.9774116397   -2.1877961870    1.2041657081
 H   -3.6148575336   -3.0257474747    0.2658044823
 H   -2.3712088949   -3.3438014037   -2.3712721466
 H   -2.4168751939   -1.5862205727   -2.0161339107
 H   -0.9686901652   -4.2428389917    0.6776208612
 H   -1.5905140342   -4.7866208488   -0.9304712126