14

 O   -0.8994931804    1.2731955690   -0.0804637832
 C    0.2307350396    0.8683003995   -0.1963445658
 C    1.4092957102    1.7757574128   -0.1062401363
 N    2.6141546975    1.3299474713   -0.1455949392
 C    3.4703279274    2.5338211079   -0.0206729234
 C    2.5149065125    3.6974371393    0.4150526622
 N    1.2254057137    3.1295499286    0.0179825743
 C    4.5819642163    2.3267840916    0.9086793258
 N    5.4579197293    2.1999365969    1.6506069442
 H    0.4884895493   -0.1942751733   -0.3566186407
 H    3.8977329537    2.7459771118   -1.0100647349
 H    2.5708279756    3.8761643518    1.4958501355
 H    2.7328282442    4.6299053517   -0.1088255276
 H    0.3570757010    3.4617702611    0.4113479291