17

 O   -0.0484004395    1.4359865305   -0.0646231284
 C    0.0233596781    0.0202577512   -0.0288419505
 C   -1.4018177283   -0.5151997390    0.0087795276
 C   -1.4452558516   -2.0525840334    0.0632959416
 C   -2.8399655239   -2.5818367422    0.0655375093
 N   -3.4765786903   -3.0168250686    1.1496691667
 N   -4.6579485281   -3.3413509763    0.6399281781
 N   -4.7762853948   -3.1370419962   -0.6626728573
 N   -3.6249647095   -2.6514212087   -1.0449313512
 H    0.8475865863    1.7829808429   -0.1004105520
 H    0.5459218604   -0.3775425302   -0.9147045052
 H    0.5765300905   -0.3303504999    0.8586456844
 H   -1.9139519499   -0.0968210189    0.8823319749
 H   -1.9392797234   -0.1612043836   -0.8771190156
 H   -0.9202178762   -2.4662745716   -0.8048969019
 H   -0.9363314779   -2.4148061181    0.9617961123
 H   -5.4080803418   -3.7240847879    1.1956900370