25

 C    0.0243865582    1.5954076584    0.1007476615
 C    0.0006914572    0.0562864777    0.0237476900
 C    0.8027727537   -0.5138396599    1.2112158085
 C   -1.4585678763   -0.4254444749    0.1407965158
 C    0.6055804658   -0.4943303527   -1.2973806485
 C   -0.0455565294   -0.0097622692   -2.6277715286
 C    1.1592847597    0.3976193982   -3.5026294737
 O    2.2897587393   -0.2501226345   -2.9399286789
 C    2.1055593104   -0.2001064621   -1.5356133910
 H    1.0411672148    1.9971873839    0.0595356356
 H   -0.5519288330    2.0577418271   -0.7065313167
 H   -0.4184460016    1.9283618820    1.0456262245
 H    0.3585760743   -0.2038040311    2.1633790930
 H    0.8156383914   -1.6093206325    1.1910129177
 H    1.8408492126   -0.1657258200    1.2044006574
 H   -2.0784982995   -0.0370413663   -0.6735843553
 H   -1.5165147753   -1.5193140850    0.1130511583
 H   -1.9035435107   -0.0915794018    1.0846275152
 H    0.4977592313   -1.5843183262   -1.2521631169
 H   -0.6163077504   -0.8164138853   -3.0937183775
 H   -0.7312944781    0.8285026735   -2.4839846255
 H    1.0768390677    0.0833342964   -4.5462997581
 H    1.2972321757    1.4914596548   -3.4838807184
 H    2.3842735651    0.7937517441   -1.1481794816
 H    2.7725862873   -0.9396914146   -1.0864822167