19

 C    0.0078557236    1.4690235720   -0.0987086555
 N    0.0134819843    0.0127686057   -0.0178801297
 C   -1.1687790385   -0.6680863137    0.6224429043
 C   -0.8384515812   -2.1336231767    0.2751447010
 C    0.6855864785   -2.1067073593    0.6638409488
 C    0.7593985664   -0.6364399527    1.1217964613
 C   -0.4964089433   -0.5343019956    2.0258561341
 O   -0.5962896028    0.7044321193    2.6887696452
 H    0.9978590667    1.7988594026   -0.4341865920
 H   -0.7095209668    1.7673817516   -0.8723011494
 H   -0.2364868516    1.9966281334    0.8305456607
 H   -2.1680169818   -0.2861889096    0.4032465829
 H   -1.4173587949   -2.8518555424    0.8625912817
 H   -0.9963058714   -2.3372707736   -0.7848131059
 H    0.9385975217   -2.8141455297    1.4580888711
 H    1.3370887605   -2.2878912629   -0.1918906133
 H    1.7217133011   -0.2182996648    1.4183601303
 H   -0.6675673087   -1.3650293880    2.7299135549
 H   -1.5037170416    0.8067817243    2.9937369893