18

 C    0.3158814809    1.4906890785   -0.2424870015
 C   -0.1575073748    0.0687912760    0.0906073437
 C    0.5426618800   -0.5178565190    1.2898036822
 N    1.9689195759   -0.9587842090    1.2240438796
 C    0.9076888745   -1.9379480785    1.5056737515
 C    0.7930816030   -2.2040566746    2.9916692298
 O    0.5080934203   -0.9297105602    3.5976554966
 C    0.2579627755    0.0329105958    2.6682773173
 O   -0.1530612431    1.1191804843    2.9627924120
 H    1.3859987173    1.5065200901   -0.4736176496
 H   -0.2226186462    1.8812858855   -1.1106156862
 H    0.1419492141    2.1554086950    0.6059804170
 H   -1.2369442158    0.0757286374    0.2817366556
 H    0.0034168133   -0.5973405327   -0.7669673948
 H    2.2239899258   -1.0196882246    0.2386737798
 H    0.6702337009   -2.7157954128    0.7887710872
 H   -0.0301344660   -2.8888268803    3.2222233840
 H    1.7207533443   -2.5863958710    3.4258373759