16

 N    0.5816049208   -0.5622222072    0.2067052556
 C   -0.1124625233    0.5762515766   -0.0745682979
 O    0.3893123443    1.6396020506   -0.3759348145
 C   -1.6142703238    0.4313520716    0.0290138205
 O   -2.1513793479   -0.8586183181    0.3433229511
 C   -2.3172989035    0.1926929294    1.3062668879
 C   -1.6315899055    0.0340387590    2.6451031040
 C   -2.2884510153   -1.0478958496    3.4852135037
 O   -2.6149364134   -0.9119502525    4.6347204728
 H    1.5747315379   -0.5651999438    0.0382369718
 H    0.0843588305   -1.4364632736    0.2593826459
 H   -2.1428814216    0.9851661066   -0.7444778438
 H   -3.3423721352    0.5616949807    1.3613989659
 H   -0.5848391503   -0.2539620275    2.4894403408
 H   -1.6543141503    0.9752566761    3.2020299548
 H   -2.4421525233   -2.0113918883    2.9497449911