20

 O   -0.0799359623    1.4500564083    0.2710855879
 C    0.0905342859    0.0775363810    0.1381051886
 C   -0.4649278924   -0.8594463936    1.1841672232
 C   -1.1224589486   -0.7657325357   -0.1800725606
 N   -2.3397369975   -0.0024583029   -0.2525187170
 C   -3.2628906741   -0.0614995223   -1.3696808717
 C   -3.4197627380   -1.4842467737   -1.9362790818
 C   -3.8032573566   -1.9869298737   -0.5067731266
 C   -3.6572445425   -0.5440937904    0.0092399940
 H   -1.0357799816    1.5931707486    0.1826858766
 H    1.0360674291   -0.1740044659   -0.3330708618
 H    0.0744195740   -1.7681054680    1.4294017371
 H   -0.9930234803   -0.3981216909    2.0118632322
 H   -1.0074907086   -1.6080493268   -0.8576287877
 H   -3.5039525276    0.8605523783   -1.8873051004
 H   -4.2602319732   -1.5510960397   -2.6301682242
 H   -2.5410276501   -1.9245299077   -2.4164594923
 H   -4.8314374245   -2.3506599805   -0.4579823109
 H   -3.1462526433   -2.7252170837   -0.0387754870
 H   -4.2668957180   -0.0680605508    0.7694710225