16

 O    0.2324772179    1.4295974933    0.1806162499
 C    0.0265786588    0.0668376458    0.0452830464
 C    0.8453073825   -0.7634081656    1.0965680802
 O    0.5000336185   -2.1497298796    0.7958161991
 C   -0.3735048501   -1.8944159709   -0.2740732430
 C   -1.3127326813   -2.4262116141   -1.3582057245
 N   -1.3805324736   -0.8929056340   -1.5655290733
 C   -1.3087568492   -0.6972877803   -0.0299627559
 C    0.1285250333   -0.7955791603   -1.2269247491
 H   -0.2921286558    1.8845527845   -0.4867513424
 H    1.9237624259   -0.6181566603    0.9804598541
 H    0.5514923425   -0.5243102675    2.1232857649
 H   -0.8777565859   -2.9617647935   -2.2061569258
 H   -2.2648177784   -2.8669076242   -1.0510192321
 H   -2.2062701097   -0.6626879297    0.5865385777
 H    0.8954558745   -0.8748035536   -1.9965623562