16

 N   -0.0250162570   -1.1368234925   -0.4548082505
 C    0.0022710589   -0.0091911209   -0.1995664099
 C    0.0463722334    1.4167967359    0.0823654921
 C   -0.5268980579    2.3575743901   -1.0343260230
 C    0.8247529968    3.1303569272   -1.0812201916
 C    1.3627351190    2.2880448090    0.0969852598
 C    0.9009175868    2.7708042568    1.4949133858
 N   -0.2102605476    1.7843254327    1.4821052106
 H   -0.7861002832    1.8433970229   -1.9614282062
 H   -1.3966009021    2.9286754491   -0.6989869370
 H    1.3704808571    2.9534352935   -2.0104145985
 H    0.7805554424    4.2087418050   -0.9079787410
 H    2.3571663558    1.8528593211    0.0211030290
 H    1.6018993833    2.5959791191    2.3172943553
 H    0.5998952693    3.8262697860    1.5148231196
 H   -1.1417256250    2.1356232151    1.6787603455