17

 C   -0.0755194333    1.6118978054    0.0736245024
 C    1.4462403882    1.3839125547    0.0141759697
 O    1.2557850976    0.1344959595    0.7632383549
 C   -0.0113292303    0.0742062022    0.0221602905
 C    0.5312461535   -0.2398615425   -1.3888234973
 O   -0.3145642938    0.1623083461   -2.4554967244
 C    0.4813497555    0.9716212397   -3.2952802855
 O    1.3759294297    1.6813111800   -2.4647569324
 C    1.6921542749    0.8032784312   -1.3951828831
 H   -0.3866258958    1.9641215407    1.0568679427
 H   -0.5673715023    2.1543630174   -0.7327984044
 H    2.1826179640    2.0615383162    0.4433819014
 H   -0.7609395130   -0.5834100556    0.4595063778
 H    0.8459572580   -1.2822410099   -1.4952089628
 H    1.0382581483    0.3474398092   -4.0169286609
 H   -0.1597452737    1.6818667493   -3.8246341423
 H    2.6944062826    0.3786925465   -1.5053354263