17

 C   -0.0211681977    1.3438237449    0.0490702394
 O    0.0163844586   -0.0712302586    0.0162980723
 C    0.6450785367   -0.5993411229   -1.0584544042
 C    1.2520505130    0.0039905827   -2.1160104167
 O    1.7514196799   -0.9775005932   -2.9627621402
 C    1.4299296278   -2.1707812400   -2.4270437982
 N    1.8910040243   -3.3043182359   -3.0731317951
 C    0.7471548636   -2.0251008007   -1.2542863383
 N    0.2583499396   -3.0998088037   -0.4617016488
 H    0.9934698675    1.7638368041    0.0706292456
 H   -0.5511001181    1.7440120020   -0.8258365377
 H   -0.5526065983    1.6268887623    0.9590457172
 H    1.4199963110    1.0181142103   -2.4262495332
 H    1.7902145480   -3.2597941209   -4.0799819694
 H    1.4351887880   -4.1262159817   -2.6943271629
 H    0.7624742444   -3.1673214130    0.4187147243
 H   -0.7157000783   -2.9488127756   -0.2150103342