16

 O    0.2013885086    0.3904456601   -1.0591635101
 C    0.0630132479    1.2911784565   -0.2842531468
 C   -1.1543272494    2.0523621257    0.2627848360
 C   -0.1708404859    3.1368320064    0.7872788448
 C   -0.2241427903    4.5902461287    0.2713159758
 C   -0.3932848690    4.9585310790    1.7578049147
 O   -0.3323006382    3.5685588780    2.1473053177
 C    1.0359572603    2.2075124627    0.4735605170
 H   -1.9240745742    2.3464108200   -0.4554684356
 H   -1.6262114011    1.5165901848    1.0941442147
 H    0.6921807432    4.9488685775   -0.2008725825
 H   -1.0751527463    4.8236762788   -0.3709559489
 H    0.4213633518    5.5415938306    2.2021253367
 H   -1.3507569301    5.4160534580    2.0315843061
 H    1.4116371006    1.7317784292    1.3864823718
 H    1.8792521322    2.6158225541   -0.0894670114