21

 C    0.0262313726    1.4500248782   -0.1409358231
 C    1.3435041129    0.7370245517    0.0146284340
 C    0.0259303461   -0.0469826566    0.0226623491
 C    0.4200003327   -0.7207307030   -1.2805108556
 C    0.2287640669   -2.1673427092   -1.6157722065
 C   -0.4697944414   -1.0966345913   -2.4293626792
 C    1.7359179006    0.0623609213   -1.2885698425
 C    2.4802607428    0.6590026247   -2.4473983302
 C    3.0955300926   -0.4613073840   -1.6333470359
 H   -0.3027531328    2.0118381982    0.7281430564
 H   -0.2448520529    1.8958276760   -1.0947206575
 H    2.0172961149    0.9336318257    0.8401221790
 H   -0.4608232022   -0.5409252884    0.8552377278
 H    1.0520813099   -2.7049738060   -2.0761206851
 H   -0.3704666840   -2.7715360509   -0.9415464052
 H   -1.5419140140   -0.9758183548   -2.3111257022
 H   -0.1090214907   -0.9114976102   -3.4366261774
 H    2.1363972860    0.4248244425   -3.4503598785
 H    2.8864249229    1.6595606035   -2.3381727063
 H    3.9184217242   -0.2192167150   -0.9678024459
 H    3.1712696228   -1.4438086723   -2.0891693453