21

 C   -0.0360014950    1.4746256427    0.0555163148
 C   -0.0193498790   -0.0330730877   -0.0370290996
 C    0.9600567320   -0.7211093310   -0.9319074838
 C    0.5465975257   -1.9653364649   -1.1936371725
 C   -0.6880166833   -2.2479892130   -0.3729102779
 C   -0.2347773239   -2.3036401857    1.1413034563
 C   -0.4990134804   -0.8095842888    1.2290156684
 C   -1.3015679839   -0.8338703739   -0.0575972086
 C   -2.6789027811   -0.3571274853   -0.4065244211
 H    0.9082527060    1.8547513316    0.4618103541
 H   -0.1821111919    1.9323416333   -0.9295459841
 H   -0.8379318749    1.8303995167    0.7098765015
 H    1.8785908633   -0.2574812055   -1.2732246960
 H    1.0833802276   -2.7191768694   -1.7569356206
 H   -1.3433619897   -3.0489761772   -0.7146684567
 H   -0.9643914748   -2.8531421910    1.7426056692
 H    0.7720728843   -2.6848436387    1.3434949685
 H   -0.6853826981   -0.2489658527    2.1391826712
 H   -2.8639928851    0.6477009656   -0.0136557259
 H   -2.8232654417   -0.3217022355   -1.4931350400
 H   -3.4479569362   -1.0194473796    0.0081426929