17

 C   -0.0905923615    1.5139739431   -0.0949099118
 C    0.0142646415    0.0251179503    0.0436306888
 C    1.2514139709   -0.7926113599   -0.2644758827
 C    0.6699611645   -0.7712487294    1.1339523094
 C    1.3831756839   -0.2760210359    2.3558173816
 O   -0.2323075342   -1.8367628937    1.4025864083
 C   -1.3225707691   -1.7394493885    0.5918879837
 O   -2.2346366334   -2.5010713979    0.5840967753
 O   -1.2080531851   -0.6516775330   -0.2199091779
 H    0.8536648424    1.9899823565    0.1814313236
 H   -0.3173626544    1.7880188705   -1.1297694743
 H   -0.8827851913    1.9095158571    0.5475642693
 H    1.1440820705   -1.6940754590   -0.8583469838
 H    2.1736702459   -0.2420121844   -0.4169487195
 H    2.0125335138    0.5825423783    2.1081349828
 H    0.6689259782    0.0250792226    3.1278167658
 H    2.0265471673   -1.0591651668    2.7683917913