20

 C    0.3660491207    1.4377188009    0.0915743085
 C    0.0741868278   -0.0555069385    0.0041373561
 C   -1.4109719127   -0.3286723601   -0.2438134803
 C    0.9870267520   -0.8927167856   -0.9636687772
 C    1.3928126164   -1.8325342893    0.2155913419
 C    0.5875590031   -0.9279701024    1.1854063274
 O    1.8397818933   -0.4559107810    1.7757626284
 C    2.5853483110   -1.3143735747    0.9801741154
 N    3.8195166284   -1.5321604509    0.9574797349
 H    1.4151834644    1.6237362122    0.3329241860
 H    0.1403655205    1.9274346678   -0.8622928782
 H   -0.2459508329    1.9152730434    0.8651587650
 H   -1.7262175142    0.0939783717   -1.2037190368
 H   -1.6257974555   -1.4031542239   -0.2678749698
 H   -2.0287251342    0.1191772650    0.5426577675
 H    0.4330145470   -1.4006267590   -1.7558556210
 H    1.8234064148   -0.3539289969   -1.4134448814
 H    1.2807152511   -2.9076671333    0.1002542225
 H   -0.1078485005   -1.2612283291    1.9569974173
 H    4.3107949194   -0.9587987963    1.6456460237