17

 C   -0.0140472914    1.5674330761   -0.0727775124
 C   -0.0387676461    0.0415947263    0.0441064381
 N   -1.3830547531   -0.5102404417    0.0418205607
 C   -2.1290065641   -0.9178444015    1.1365938358
 N   -3.2998297897   -1.3743809924    0.9034899331
 C   -3.4553675648   -1.2967772275   -0.5557995690
 C   -2.1501711712   -0.7122378898   -1.1019743769
 N   -1.7297032828   -0.4298056240   -2.2700350146
 H    1.0195701019    1.9271329041   -0.0752937838
 H   -0.4902466923    1.8806664682   -1.0046379821
 H   -0.5384193728    2.0371822754    0.7652651709
 H    0.4962476114   -0.4044235874   -0.7998638433
 H    0.4536849084   -0.2869283627    0.9652827355
 H   -1.6916290514   -0.8389484088    2.1274242945
 H   -3.6518677547   -2.2909172549   -0.9738556861
 H   -4.3121192255   -0.6643942607   -0.8165057559
 H   -2.4312847118   -0.6626364787   -2.9710096745