16

 C    0.0639673356    1.2574850582    0.2717029841
 O   -0.2960192018   -0.0562074026   -0.1544353937
 C    0.4396256185   -0.5497458345   -1.2029257698
 C    1.8328947897   -1.0966073059   -0.9347346601
 C    0.6970583469   -2.0622625840   -1.1728884434
 C    0.1606410369   -2.8259530326   -0.0819948163
 N   -0.2615944066   -3.4678946469    0.7815775831
 C    0.1906134958    0.0225048104   -2.5624798418
 O   -0.5377963720    0.9533159186   -2.7825994917
 H    1.1232424386    1.3034314069    0.5584087916
 H   -0.1393193470    1.9951416746   -0.5093357007
 H   -0.5522070903    1.4690007695    1.1467166958
 H    2.5936756025   -1.0180610333   -1.7030614596
 H    2.1822076555   -0.9928393900    0.0851085385
 H    0.6732056720   -2.5744948563   -2.1297006870
 H    0.7571055858   -0.4875761622   -3.3767108790