21

 C   -0.0472437442    1.5458126412    0.0110541249
 C   -0.0755918374    0.0264448765   -0.1141135114
 C    0.2201048152   -0.8045127735    1.1581787706
 O   -1.0790562928   -1.4263070987    1.1128487350
 C   -1.4570616921   -0.6642090987   -0.0509254709
 C    1.3634435198    2.1146676837    0.1174280240
 C    2.2215535358    2.1522548261   -1.1705503493
 O    2.3381029665    3.5872281518   -1.1091416179
 C    1.5128301061    3.6525175621    0.0709911466
 H   -0.5518029248    1.9925741887   -0.8570446080
 H   -0.6288462445    1.8459083163    0.8939200760
 H    0.5180347903   -0.2929217762   -0.9758124197
 H    1.0299491912   -1.5405186340    1.0840004706
 H    0.3610591629   -0.2160868644    2.0759049445
 H   -2.3014159352    0.0083389833    0.1542636497
 H   -1.7171834649   -1.3099929345   -0.8984793480
 H    1.8899056735    1.6638477094    0.9638981314
 H    3.1998193779    1.6587326335   -1.1206829651
 H    1.7056729312    1.8216315754   -2.0831783830
 H    0.5790441781    4.2026401387   -0.1100241382
 H    2.0383288272    4.1158249833    0.9149371880