23

 C    0.0448204641    1.5891522415    0.0545971272
 C    0.0397720373    0.0603661629    0.0998483394
 O    0.6602887470   -0.4171985276    1.2919393294
 C   -1.3600264806   -0.5377292597   -0.0732051959
 C   -2.0135791695   -0.2395872057   -1.4429990873
 O   -2.7449847884   -1.3977694640   -1.8307206012
 C   -2.6960007888   -2.3820896932   -0.7926854478
 C   -2.7782319643   -3.7619437555   -1.4240028605
 C   -1.4093221956   -2.0727744247   -0.0244573987
 H    1.0599740186    1.9663156231    0.2044430121
 H   -0.3270215123    1.9673720492   -0.9030680374
 H   -0.5940339417    2.0021613294    0.8458787065
 H    0.6765518282   -0.3247310685   -0.7077317031
 H    0.1756261262   -0.0505003252    2.0400679296
 H   -2.0034200873   -0.1357046823    0.7232952902
 H   -2.6823417038    0.6299149536   -1.4001680980
 H   -1.2535525880   -0.0352460432   -2.2117518010
 H   -3.5617404837   -2.2408439684   -0.1213646518
 H   -1.9237482396   -3.9307203882   -2.0867154722
 H   -2.7821750626   -4.5377843832   -0.6517190321
 H   -3.6940934212   -3.8600592745   -2.0136337353
 H   -0.5469672845   -2.4965693711   -0.5540013979
 H   -1.4068304996   -2.4712060749    0.9918091555