15

 O   -0.0308375414    0.0456926059    0.2302429763
 C    0.0383222495    1.2278717194    0.1459085588
 O   -1.0074525581    2.1407891454    0.1147098520
 C   -0.0688557780    3.2226895317   -0.1384257216
 C    0.8242986218    3.3757644047    1.0321946414
 C    1.1117156807    2.2818316980   -0.0144273215
 C    2.3831852197    2.1423647550   -0.7596053663
 C    2.9950531958    0.8226984867   -0.9827746313
 O    2.3063860935    1.5037932754   -2.0350113130
 H   -0.3328793537    3.9415658665   -0.9000177526
 H    1.5301941389    4.2014795137    0.9987342645
 H    0.4673359803    3.1102221568    2.0219705996
 H    3.0338446760    3.0172070994   -0.7319676069
 H    4.0750396054    0.7496499475   -1.1000056074
 H    2.4918267795   -0.0613187459   -0.5982514823