14

 O   -0.0057593434    0.0060342146   -0.1976220645
 C   -0.0362255748    1.1908404152   -0.0014620892
 C   -1.2264636881    2.0828434420    0.1203089308
 C   -1.2576687994    3.1399846635    1.2184231544
 N    0.0780110106    3.2350782749    1.8432148068
 C    0.6472702373    3.4847679870    0.4562769094
 C   -0.7859296974    3.5350170667   -0.1439265754
 C    1.2150911826    2.1281812457    0.0551307972
 O    2.3452811336    1.8138709901   -0.1841185847
 H   -2.1840651062    1.7363104962   -0.2463840499
 H   -2.1754791522    3.3434194102    1.7563202773
 H    0.1426431195    4.1003984201    2.3729821544
 H    1.3190626001    4.3329639851    0.3541501106
 H   -1.1817489023    4.1621612588   -0.9313459570