14

 N   -0.2660232991    1.2283185937    0.0693739693
 C   -0.0840412179   -0.0087728049    0.1206028253
 O    0.9484903574   -0.6844010031    0.6969923106
 C    0.8183686694   -2.0786944845    0.4248144486
 C   -0.6252779260   -2.2037642157   -0.0660494457
 O   -1.4360449984   -2.6344376793    1.0122461280
 C   -2.6952063952   -3.0537910224    0.7073025520
 O   -3.4699015960   -3.3877709040    1.5456611826
 O   -0.9586739517   -0.8931482404   -0.4509725542
 H    0.5031053326    1.7225449794    0.5147937281
 H    1.5369379349   -2.3754224807   -0.3457781978
 H    0.9870442091   -2.6470960552    1.3398312328
 H   -0.7634216586   -2.8589427810   -0.9301403107
 H   -2.8953495706   -3.0574943719   -0.3798815790