21

 C   -0.0184716842    1.5655138714    0.0022142603
 C    0.0300548764    0.0351392229   -0.0104214924
 O   -1.3040410853   -0.4896529926    0.0466768093
 C    0.7400050008   -0.5660350144   -1.2410381101
 C    2.2052243002   -0.3287218467   -1.5084724614
 C    1.7664725550   -1.5737278625   -0.7744454148
 C    1.7556423390   -1.5850417244    0.7453242747
 C    2.1769805415   -0.3478945395    1.5018861893
 C    0.7184145008   -0.5879538529    1.2129897556
 H    0.9842779126    2.0010306004    0.0094809943
 H   -0.5349578507    1.9433534712   -0.8888304292
 H   -0.5574288425    1.9185524647    0.8862152433
 H   -1.7988310011   -0.1049931513   -0.6847568080
 H    0.0976265852   -0.7635173600   -2.0941041160
 H    2.5324709383   -0.4518507231   -2.5360006885
 H    2.7406405841    0.4518473956   -0.9816419782
 H    1.8857197810   -2.5294023347   -1.2714788204
 H    1.8704405968   -2.5473064214    1.2303856363
 H    2.4888684692   -0.4825287430    2.5325619217
 H    2.7167956930    0.4419979914    0.9936298715
 H    0.0536602498   -0.7948997011    2.0437080627