14

 C    0.0111151888    1.4473514285    0.0821307737
 N    0.1524283799    0.0045917635    0.0566152139
 C    0.6004861967   -0.5863822501   -0.9679501954
 N    0.7184570865   -1.9844240994   -0.9434503248
 C    1.1850418160   -2.7443759579   -1.9786400499
 O    1.2976228915   -3.9452613871   -1.9900763468
 N    1.5321161612   -1.9382025251   -3.0694168099
 N    1.4384722359   -0.5876866935   -3.1463725937
 N    1.0024517443    0.0653628618   -2.1673573758
 H    0.5974966438    1.8417098421    0.9199816995
 H    0.3200863778    1.9482380149   -0.8397766423
 H   -1.0364223454    1.6928103603    0.2913781447
 H    0.4356345381   -2.4607077537   -0.0979406479
 H    1.8908678350   -2.3868977342   -3.8983855753