13

 O    0.1068082822    1.2988112406    0.0874247387
 C    0.0700929925   -0.0390616508    0.0541818070
 N    0.0748117628   -0.6087243781   -1.1513278647
 C    0.0375244073   -1.9506905292   -1.1702562849
 C   -0.0036792141   -2.6954645418    0.0122545382
 C   -0.0038094518   -1.9715154072    1.1983138752
 N    0.0327144226   -0.6409656897    1.2433449442
 C    0.0412654421   -2.5985218416   -2.4437421230
 C    0.0433526705   -3.1727180604   -3.5007080839
 H    0.1308269222    1.5922228980   -0.8338903211
 H   -0.0336884261   -3.7761334897   -0.0035079384
 H   -0.0346290584   -2.4820661652    2.1581463292
 H    0.0456333182   -3.6685334449   -4.4403202264