19

 C   -0.3255056765    1.3443441183   -0.1063031133
 N    0.0588179293   -0.0490463176    0.0313835915
 C    0.0905901026   -0.6406702757    1.3594620414
 C   -1.2749679726   -0.8340833117    1.9901046146
 C   -2.1135778420   -2.0262354532    1.6105044613
 C   -1.4801176863   -1.9549330865    2.9778200499
 C    0.3648470365   -0.7773250406   -1.0798425320
 O    0.3418370415   -0.3715537801   -2.2231988849
 H    0.3007262485    1.9786495902    0.5325041750
 H   -0.1879181848    1.6248918046   -1.1506316931
 H   -1.3745409909    1.5032645310    0.1694673426
 H    0.5900856258   -1.6126154473    1.2773214270
 H    0.7167970221   -0.0148032769    2.0110248520
 H   -1.8138651986    0.0855562164    2.1990607929
 H   -3.1869464387   -1.8976457118    1.5302662919
 H   -1.6988340719   -2.7292991735    0.8951307476
 H   -0.6398607899   -2.6108983286    3.1826014210
 H   -2.1172940423   -1.7744992968    3.8361574001
 H    0.6554717583   -1.8144908503   -0.8183308854