24

 C   -1.7092912170   -0.1538211275    3.3642650110
 C   -1.1780428739   -1.4086281046    2.6607488266
 C   -2.2835125471   -2.1981327626    1.9868221026
 C   -2.7213647632   -1.8865396593    0.5775809140
 C   -2.0456992574   -3.2086919427    0.8812281322
 C   -0.6761768401   -3.5036978128    0.3533995764
 C   -0.0949173785   -4.8758234201    0.4473382763
 N   -0.4427521861   -4.3104890242   -0.8510776793
 C   -1.5701759196   -4.8920286350   -1.5636267835
 H   -0.9008121099    0.4022192735    3.8490362437
 H   -2.2018653687    0.5166647241    2.6523137898
 H   -2.4434064161   -0.4143083413    4.1348110975
 H   -0.4218097687   -1.1138620818    1.9247690845
 H   -0.6619472004   -2.0464895971    3.3902853841
 H   -3.0853826116   -2.4722307070    2.6699536267
 H   -3.7780573517   -1.8832197213    0.3332129961
 H   -2.1374468581   -1.1515342453    0.0306222489
 H   -2.7048535963   -4.0701996144    0.9176984837
 H    0.0145125725   -2.6650314850    0.4154828377
 H    0.9640928270   -5.0305076671    0.6402430267
 H   -0.7449608838   -5.6521594317    0.8528050194
 H   -2.3592606205   -5.3105888529   -0.9194613627
 H   -2.0238281864   -4.1324089658   -2.2081803039
 H   -1.1984792845   -5.7002254182   -2.2020249286