18

 O   -0.0017786749    1.3961547450    0.0819088052
 C   -0.0233312958   -0.0163438441    0.0162869309
 C   -1.4368975437   -0.4969394311   -0.0315347103
 C   -2.5413205912    0.2486167439   -0.0133864078
 C   -3.7999072762   -0.5816851398   -0.0164747227
 C   -3.2683525287   -1.9924894174   -0.4182200145
 C   -1.7545437174   -1.9765808645   -0.0486664246
 C   -4.0094531637   -3.0997832136    0.1760684161
 N   -4.5943234616   -3.9750504956    0.6541019444
 H    0.9154807648    1.6823192600    0.1062066937
 H    0.5150640719   -0.3881741772   -0.8741555661
 H    0.4815872978   -0.4706232332    0.8880482424
 H   -2.5479441844    1.3291539429    0.0429198701
 H   -4.2695672545   -0.6013850602    0.9755551022
 H   -4.5623655135   -0.2266760232   -0.7169260866
 H   -3.3497383108   -2.0864156761   -1.5063037257
 H   -1.1580138613   -2.5482951446   -0.7678721451
 H   -1.5791273269   -2.4303097111    0.9357183084