20

 C    0.5129873079    1.3691919775    0.1554803991
 C   -0.0295072643   -0.0156613493   -0.1513510761
 O    0.7312485286   -0.5702288610   -1.2077359069
 C    0.2957718962   -1.8682677553   -1.5614594167
 C    1.1037678633   -2.3957030733   -2.6516336227
 C    1.7612215451   -2.8476468716   -3.5550425327
 C    2.5376206207   -3.4028437951   -4.6258690830
 C    3.9788858564   -3.0310574409   -4.7645243986
 N    3.6152824569   -4.3836225070   -4.3357872399
 H    1.5641727727    1.3119019698    0.4514261648
 H    0.4396017719    2.0132890633   -0.7251848967
 H   -0.0539771201    1.8280388876    0.9709678552
 H    0.0300182661   -0.6628197296    0.7408158026
 H   -1.0941889730    0.0383823560   -0.4370242851
 H    0.3568914917   -2.5445756507   -0.6902633990
 H   -0.7658370462   -1.8498996794   -1.8652177177
 H    1.9852444506   -3.6368659868   -5.5322933132
 H    4.4106061258   -2.9642830392   -5.7590479638
 H    4.3848601555   -2.3356872990   -4.0361896142
 H    3.7195891041   -4.4596934660   -3.3265466355