16

 O   -0.2054429747    1.4575307439   -0.2115038296
 C    0.0224502321    0.0645750517   -0.0244448896
 C   -1.3588880814   -0.5778378131    0.1577205095
 C   -1.3275435111   -2.0942801554    0.0148935598
 O   -1.7124461965   -2.6213987268   -1.2607800580
 C   -0.3273824970   -2.7073675557   -0.8703442401
 C    0.6297296428   -1.8108775206   -1.5710608668
 C    0.7818321514   -0.5451001093   -1.1851134506
 H    0.6461392603    1.9060623091   -0.2093552177
 H    0.6144738125   -0.0928549310    0.8946333623
 H   -1.7700682018   -0.2870107456    1.1284254166
 H   -2.0167370149   -0.1689148818   -0.6150836075
 H   -1.7022658400   -2.6741685739    0.8575189219
 H    0.0082897969   -3.7258160605   -0.6761029111
 H    1.1977434980   -2.2181404928   -2.4027082551
 H    1.4864177134    0.1094367218   -1.6945881440