13

 N    0.0261744648    1.3875313213    0.1581829056
 C   -0.0359884742    0.0282337866    0.0617887289
 C   -1.1907092680   -0.7008322161    0.0367381617
 O   -2.4049320594   -0.0977986228    0.0468394742
 C   -1.1305979555   -2.1225793657   -0.0102006683
 O   -2.1479969448   -2.8227658395   -0.0437727808
 C    0.2443028453   -2.6321261411   -0.0228131752
 N    1.3289729299   -1.9348989619   -0.0051260506
 O    1.1798816322   -0.5534654931    0.0367442240
 H    0.8789334932    1.8204198641   -0.1626615378
 H   -0.8269585466    1.8720678837   -0.0759962159
 H   -3.0332231944   -0.8421771301    0.0095303777
 H    0.4061438075   -3.7059869653   -0.0550556035