15

 O   -0.2299013284    0.2121781596    0.5059418450
 C    0.0489679358    1.1303119473   -0.2168516575
 C    1.3690417245    1.8710649240   -0.1421803434
 O    1.3437450225    2.8817218375   -1.1460743429
 C    2.4480946482    3.6416921836   -1.2103854109
 N    3.5205456666    3.5607949110   -0.4703603124
 C    4.3464830824    4.5679591902   -0.9480026756
 C    3.7517039837    5.2408993343   -1.9731742539
 N    2.5133853811    4.6308426386   -2.1391680845
 H   -0.6436730432    1.5099080737   -1.0004109700
 H    1.5029378120    2.3109199459    0.8534990445
 H    2.2039436535    1.1785377323   -0.3037589867
 H    5.3198661882    4.7386429534   -0.5155913897
 H    4.0640616272    6.0665685066   -2.5892648297
 H    1.7985607059    4.8630735720   -2.8069670922