14

 N    0.0503937630    1.4236923273   -0.1180214138
 C    0.0416115463    0.0256783998   -0.0115097380
 C   -1.0426123244   -0.7931808794    0.0199243380
 O   -2.3581041052   -0.5187496830    0.1050815963
 O   -0.6589418142   -2.1145466762    0.0379504241
 C    0.6856323005   -2.1311204027    0.0196119875
 C    1.1893073233   -0.8574400798   -0.0107854386
 C    2.6053039850   -0.5060356076   -0.0699973764
 O    3.5151000948   -1.3077753454   -0.0556741690
 H    0.6812114588    1.8653836203    0.5399525481
 H   -0.8784678085    1.8066582321    0.0123947542
 H   -2.8128116614   -0.8097753940   -0.6960435541
 H    1.1641709315   -3.0956532631    0.0238211236
 H    2.8113831005    0.5849263316   -0.1403224120