22

 C    0.0481894519    1.6352285735   -0.0414024427
 C    0.0088099899    0.1044201385   -0.0237395315
 C    0.6784180083   -0.4965060837    1.2174853378
 C    0.6890637922   -2.0332113807    1.2566066292
 C    1.5079845410   -2.6129970022    2.4436035691
 C    0.7579753400   -3.8888281052    2.9012771216
 C   -0.6285851210   -3.6799059012    2.3391796210
 C   -0.6644399650   -2.6877772650    1.4517401079
 H    1.0797414451    2.0046287462   -0.0223056509
 H   -0.4331927781    2.0384454762   -0.9379596129
 H   -0.4669098487    2.0543846537    0.8301590690
 H   -1.0342002359   -0.2313690484   -0.0820576132
 H    0.5026657875   -0.2852312363   -0.9240314630
 H    1.7161137788   -0.1379970282    1.2685921258
 H    0.1813167621   -0.1206935969    2.1227011969
 H    1.1170395393   -2.3835096791    0.3028651103
 H    2.5523252876   -2.8016658858    2.1807417903
 H    1.5081022339   -1.8813701039    3.2598569217
 H    1.2092446351   -4.8008336883    2.4844793841
 H    0.7664804711   -4.0158284661    3.9899249137
 H   -1.4713497412   -4.3063322396    2.6119460422
 H   -1.5438579539   -2.3884375373    0.8917347336