16

 O    0.0391573719    1.3992848974   -0.1279929483
 C    0.0780717826   -0.0103482623    0.0023328845
 C    0.6365622050   -0.4216852450    1.3628908507
 O    0.6938929727   -1.8443658554    1.5009676962
 C   -0.3904608901   -2.6047907916    1.1688877823
 N   -0.4753893296   -3.8228861098    1.4972505552
 C   -1.4964395283   -1.9832016457    0.3047202088
 O   -2.4431214590   -2.6444765314   -0.0314828823
 C   -1.3513497610   -0.5233003139   -0.0984475526
 H    0.9377581537    1.7225357139   -0.2502556666
 H    0.6973347533   -0.4679295784   -0.7846628267
 H    1.6659799904   -0.0777809861    1.4955039257
 H    0.0220987610    0.0182523591    2.1600323174
 H    0.3415678032   -4.0921065768    2.0513689564
 H   -1.9685714172    0.0689883768    0.5921446504
 H   -1.7769374286   -0.3910752009   -1.0957575911