20

 C   -0.2632987773    1.4987184773   -0.0712009196
 C    0.1248817546    0.0137337717    0.0469434805
 C    0.7980867589   -0.5282468609   -1.1776673691
 C    2.0447653821   -0.9861746485   -1.2966188451
 C    2.3993038171   -1.4122156844   -2.6983854921
 C    1.0228367673   -1.4738012099   -3.4011953715
 C    0.1010520567   -0.5571246677   -2.5438021887
 C   -1.2858534737   -1.0207206702   -2.4894752208
 N   -2.3812773086   -1.3869674491   -2.4356314398
 H    0.6163683504    2.1218269358   -0.2614800618
 H   -0.9780085175    1.6626573529   -0.8838377598
 H   -0.7331591380    1.8464263505    0.8532285015
 H    0.7881975767   -0.1273085008    0.9068702685
 H   -0.7827899523   -0.5703779185    0.2487183989
 H    2.7579477640   -1.0165841675   -0.4794314555
 H    3.0662465323   -0.6783337051   -3.1725431134
 H    2.9239334218   -2.3729215840   -2.7363363635
 H    1.0493196992   -1.1659843761   -4.4483546423
 H    0.6350325187   -2.4950456824   -3.3656222642
 H    0.0764686276    0.4598904069   -2.9610708822