18

 O   -0.1983430094    1.4755905163   -0.0402705787
 C   -0.0265917138    0.0785127597    0.0022720520
 C    0.3134234285   -0.5998995640    1.3601088330
 C   -0.7348740217   -1.6931193988    1.0119505469
 C   -1.6269696180   -2.2228737815    2.1397600912
 C   -2.6574218516   -3.1399483809    1.6650402181
 C   -3.4948759465   -3.8930771324    1.2445824167
 C   -1.3471928171   -0.7152366833   -0.0287588386
 H    0.6707661577    1.8890967790   -0.0309048026
 H    0.6589937897   -0.2625173257   -0.7869594389
 H    1.3443276116   -0.9095277350    1.5503611278
 H   -0.0332532193    0.0340497211    2.1831017053
 H   -0.2578449616   -2.5382278401    0.5063796779
 H   -1.0051957630   -2.7278867729    2.8913997752
 H   -2.0994950951   -1.3752800720    2.6540393566
 H   -4.2401794606   -4.5580787660    0.8850035993
 H   -2.1444432172   -0.1118219976    0.4169720678
 H   -1.6920671526   -1.1148183460   -0.9837803090