22

 C   -0.0119825819    1.6029400174    0.1652202076
 C    0.0510962004    0.0755274844    0.0622973187
 C    0.7004766856   -0.4524552004   -1.2314500470
 C    2.1814134919   -0.0606579578   -1.3556251651
 C    0.5571803740   -1.9749130256   -1.3250763226
 C   -0.8655183000   -2.5817159596   -1.5412867644
 N   -0.3551520808   -3.1669073582   -2.7835563877
 C    0.9018517223   -2.6229113168   -2.6952000239
 O    1.8555146492   -2.6471100887   -3.4293295462
 H    0.9850756080    2.0519540383    0.1918785107
 H   -0.5483413179    2.0346231318   -0.6874717986
 H   -0.5351735912    1.9106542283    1.0759227064
 H    0.6011900668   -0.3287320952    0.9234520970
 H   -0.9681485699   -0.3247352713    0.1391955889
 H    0.1583016911   -0.0156542735   -2.0842457978
 H    2.7480059624   -0.4104261963   -0.4837567842
 H    2.6257303859   -0.5116826310   -2.2461215078
 H    2.3046983193    1.0237963390   -1.4200325704
 H    1.0984585849   -2.4595091503   -0.5051350921
 H   -1.1908277392   -3.3160474931   -0.7980421088
 H   -1.6564552527   -1.8388562213   -1.6923203220
 H   -0.8073548784   -3.6825332603   -3.5238601404