19

 C   -0.2126566191    1.4039372587   -0.0875061878
 C   -0.0998478044   -0.0715527699    0.1242594640
 C   -1.0439399226   -0.9772850459    0.3733993372
 C   -2.4400786989   -1.3490042518   -0.0915380290
 O   -3.1805115097   -0.4420921854   -0.8597635499
 C   -1.7356801043   -2.5909812075   -0.7767453958
 C   -0.5123245509   -2.3609700437    0.1786622124
 O    0.8173980000   -2.2159522190   -0.2910576677
 C    1.2005605694   -0.8464120356   -0.0808148039
 H    0.2410230466    1.7100280111   -1.0389570695
 H   -1.2582678563    1.7216755262   -0.0783235454
 H    0.3125557545    1.9604261556    0.6993457713
 H   -3.1045464859   -1.6736814233    0.7144841345
 H   -2.6103358167   -0.1327661397   -1.5725241622
 H   -2.2559164377   -3.5503898327   -0.7264444094
 H   -1.4666254692   -2.3562375730   -1.8098983443
 H   -0.5394658275   -3.0392536480    1.0418915397
 H    1.7395225720   -0.4868140449   -0.9687674097
 H    1.8946343805   -0.7740374913    0.7728746157