23

 C    0.0172354921    1.6209425361   -0.1015259899
 C    0.1002720985    0.1043802786    0.0182384165
 O   -1.1807790239   -0.3632555782    0.3977260490
 C    0.5586296599   -0.5501142237   -1.2960540615
 C    0.6672973953   -2.0655977450   -1.2270834302
 O    0.1148694497   -2.7082937464   -0.3541541069
 C    1.5143830693   -2.7523336389   -2.2971091155
 C    2.9780499022   -2.7883774366   -1.8047698994
 C    0.9940439820   -4.1577063377   -2.6115195428
 H    0.9910779457    2.0523718163   -0.3530973145
 H   -0.7024562633    1.9032379428   -0.8769389286
 H   -0.3205244730    2.0494078191    0.8457071472
 H    0.8430662614   -0.1487844830    0.7946499369
 H   -1.0940870271   -1.3250122580    0.4618528310
 H   -0.1710208678   -0.3211780647   -2.0876038927
 H    1.5145284260   -0.1322917124   -1.6356339691
 H    1.4783395393   -2.1299203235   -3.2006187621
 H    3.6211309768   -3.2318511384   -2.5705635335
 H    3.3633819024   -1.7884215690   -1.5819270876
 H    3.0601808402   -3.3944178823   -0.8970258884
 H   -0.0227693412   -4.1247897355   -3.0137820518
 H    1.6372509267   -4.6480315847   -3.3483430670
 H    0.9719343088   -4.7669238349   -1.7047554590