17

 C    0.8923584700    1.4144348926    0.1947949488
 N    0.4927712304    0.0184773255    0.1200995281
 C    0.1600516822   -0.4893071153   -0.9828332745
 C   -0.2928732828   -1.9369048829   -1.0558627041
 N    0.3908640773   -2.8112771470   -2.0026594350
 C    0.7674645673   -2.4838442931   -3.1571979572
 O    0.6336648746   -1.3176363669   -3.8558512659
 C   -0.2648016586   -0.3580176693   -3.3330676118
 O    0.1982613145    0.2398995929   -2.1554853528
 H    1.9871860740    1.4805367878    0.1750934776
 H    0.5003856401    2.0375769075   -0.6164475433
 H    0.5627342148    1.8220377627    1.1548360399
 H   -0.1361627007   -2.3365107891   -0.0531483976
 H   -1.3762676363   -1.9824026293   -1.2348834753
 H    1.3114836370   -3.1975798867   -3.7736122746
 H   -0.3146368448    0.4339532818   -4.0799543318
 H   -1.2527028489   -0.8116666009   -3.1940845606