18

 C    0.0030677086    1.4383480404    0.3443546528
 C    1.5107678158    1.4440614955   -0.1043278448
 C    1.0720987508    0.2803889810   -1.0225248388
 C    0.2938639929    0.7908953702   -2.2863679975
 C   -0.8754172601    0.1594735635   -2.2761962181
 C   -0.8374355650   -0.7700694447   -1.0379245708
 C    0.2908266959   -1.8207239519   -1.3390991816
 C    1.4632722014   -1.1786869497   -1.3282610594
 N   -0.0255268433    0.0104677634   -0.0751797317
 H   -0.2196760295    1.5827700376    1.4038366193
 H   -0.5950211625    2.1276682796   -0.2655967254
 H    1.8854597954    2.3493957066   -0.5851237220
 H    2.1803725259    1.1323280404    0.6988248843
 H    0.6950509985    1.4739942589   -3.0232719529
 H   -1.6796070946    0.2003794079   -2.9984888387
 H   -1.7833006785   -1.1731889979   -0.6770196985
 H    0.0959655060   -2.8590976770   -1.5680851024
 H    2.4493279720   -1.5645476136   -1.5427819137