16

 C    0.1525821327    1.5313882108    0.0149353122
 C    0.0540402159   -0.0061196868    0.0079084004
 N    0.6447784883   -0.6187103473   -1.1734825962
 C    1.9497090691   -0.9874143309   -1.2633584054
 O    2.5050453077   -1.3114021543   -2.2927903440
 C    2.6962739860   -0.9574883232    0.0640772375
 O    1.8886268914   -1.1062074823    1.2385660884
 C    0.6504476690   -0.5752674709    1.2963911701
 O    0.0487140053   -0.5525249562    2.3333168360
 H    1.1958487546    1.8619300102    0.0027321500
 H   -0.3440561802    1.9424385845   -0.8686199573
 H   -0.3322644597    1.9305905756    0.9090685298
 H   -1.0019384108   -0.2869704298    0.0435730940
 H    0.1435932339   -0.5654330333   -2.0496373268
 H    3.4064716537   -1.7843035672    0.0715928516
 H    3.2654353531   -0.0213775589    0.1302083296