15

 N    0.6967767987    1.1953422609   -0.7594272929
 C    0.1403173710    0.0395408843   -0.2751407071
 N   -0.9159235650   -0.5789644164   -0.7064427150
 C   -1.0716541124   -1.6336787211    0.1967397546
 C   -2.2079246772   -2.6009393340    0.0435810751
 C   -2.2204467496   -3.6563709549    1.0504461880
 C   -2.2284397380   -4.5243225172    1.8811186669
 C   -0.0877384712   -1.5889190939    1.1176203210
 O    0.7140071521   -0.4963210053    0.8218800535
 H    1.6886705356    1.2890804231   -0.5981896340
 H    0.4176583858    1.4009883241   -1.7069175079
 H   -3.1550426526   -2.0454877340    0.0748964925
 H   -2.1650082649   -3.0441368662   -0.9604799778
 H   -2.2430394653   -5.2946296364    2.6116681301
 H    0.1923372231   -2.1788491829    1.9703509930