18

 C    0.2401536045    1.4972925202    0.0993922429
 O    1.0550844225    0.4966076745   -0.5235458499
 C   -0.2169882480    0.1063753279   -0.0027624329
 C   -0.3379282439   -0.8050900458    1.1934125433
 C    0.0749888210   -2.2723925113    1.2142374358
 C    1.5161571768   -2.3194018063    1.7590033912
 C    1.9204002436   -0.8783365905    1.9933064489
 N    0.4918235828   -0.5867462101    2.4508154618
 C    0.3550547667   -2.1139345157    2.6809228242
 H    0.6050613737    1.8600853482    1.0582306606
 H   -0.1612733158    2.2541195396   -0.5721101700
 H   -0.9479434901   -0.1263889426   -0.7809738369
 H   -1.3865398375   -0.7298428492    1.5107618747
 H   -0.3649074901   -3.1226775251    0.7072976994
 H    2.1248383510   -3.2063375798    1.6336846441
 H    2.5750107929   -0.7713482629    2.8623147691
 H    2.2756789568   -0.2723526488    1.1602001150
 H   -0.0192861468   -2.5847580723    3.5784301688