11

 O   -0.0238147023   -0.0522936332    0.0031447838
 C    0.0060395452    1.1598586844    0.0101761168
 N   -1.0833450971    2.0075338335    0.0281979381
 C   -0.7238270058    3.4042661325    0.0313316947
 C    0.7827192372    3.3408812226    0.0111258217
 C    1.1920619912    2.0720675883   -0.0014563370
 H   -2.0258440776    1.6585043219    0.0388048223
 H   -1.1148462790    3.9424446055   -0.8451030764
 H   -1.0916104612    3.9325049182    0.9237220085
 H    1.3945450855    4.2333690798    0.0076941518
 H    2.2033796139    1.6924202466   -0.0172839444