13

 O    0.2669074359    1.2861057305    0.4492056757
 C   -0.0158671998   -0.0242444031    0.0548776992
 C   -1.4931600793   -0.3421064719   -0.2042944143
 O   -1.4506356401   -1.4993584618   -1.0466120366
 C   -0.3946052907   -1.3302961864   -1.9778009026
 C    0.5738247523   -0.3592968970   -1.3148672339
 O    1.5582763625    0.1595475034   -1.7745799610
 H    1.0584404789    1.5506211589   -0.0428319327
 H    0.3786262145   -0.7644375033    0.7740882608
 H   -2.0629512232   -0.6063484644    0.6872032567
 H   -1.9747464990    0.5131234026   -0.7028295362
 H    0.0643078971   -2.2998531465   -2.1959889352
 H   -0.7409473389   -0.8928509610   -2.9280535799