21

 C   -0.1042213584    1.7013657561    0.0790121924
 C   -0.0173618318    0.1852172996    0.2849520521
 C   -1.3361881922   -0.5370466766   -0.0090896048
 C   -1.7927516413   -0.5276746878   -1.4810273998
 C   -2.7673789560   -1.7151217488   -1.5553566512
 O   -2.4971266238   -2.5489154787   -0.4201320081
 C   -1.3773185179   -2.0630158627    0.2804023424
 C   -0.0910883043   -2.7571140521   -0.1580067026
 O    0.0477637481   -3.3165247134   -1.2144806140
 H    0.8442768741    2.1859238626    0.3288191606
 H   -0.3412692112    1.9518785640   -0.9597516877
 H   -0.8812534920    2.1420732887    0.7134364161
 H    0.7775003985   -0.2217559963   -0.3534232264
 H    0.2843260303   -0.0187608882    1.3206437771
 H   -2.1259758932   -0.0894996011    0.6082610948
 H   -2.2627970764    0.4137949878   -1.7726750326
 H   -0.9329240374   -0.6940890695   -2.1382684837
 H   -3.8141985028   -1.3930048431   -1.4939961816
 H   -2.6385382202   -2.2986069092   -2.4726738387
 H   -1.5198313363   -2.2656211586    1.3506532442
 H    0.7413148143   -2.7018463127    0.5825215517