21

 C   -0.0582042932    1.4978831979    0.0145293231
 C    0.0372846338   -0.0062077574   -0.0090317053
 O   -0.2309566467   -0.6624268117    1.2418247072
 C    1.1000999513   -0.7370512975    0.7023819484
 C    1.5539085778   -2.0730236877    0.1305679058
 C    0.8024848117   -2.4087937555   -1.1690237152
 C    0.7550162514   -1.1612883819   -2.1016934499
 C   -0.4829612724   -0.7148154385   -1.2638051844
 C   -0.7306861795   -2.2202524608   -0.9808434390
 H    0.4256446429    1.9313333265   -0.8677280490
 H   -1.1071451994    1.8149211980    0.0082284465
 H    0.4172657779    1.9056480173    0.9102123338
 H    1.8344819234   -0.1815385528    1.2861044998
 H    2.6305706064   -2.0119991145   -0.0732931808
 H    1.4156862030   -2.8648333216    0.8773538260
 H    1.1571948129   -3.3512239329   -1.5932766237
 H    1.6262324389   -0.4982470822   -2.1249272700
 H    0.4777452951   -1.4314875943   -3.1237786285
 H   -1.2722704670   -0.1394101925   -1.7540397984
 H   -1.2924187757   -2.6826062981   -1.7966407850
 H   -1.1716055426   -2.4854348097   -0.0200073013