17

 N   -0.3237671386    1.3105389736    0.0907799096
 C    0.0272965354   -0.1113861008   -0.0231862554
 C    0.8037797305   -0.4579881600   -1.3039181170
 O   -0.0047210083   -0.0347272041   -2.3923925132
 C    0.8110524227   -0.5288104572    1.1799941302
 N    2.0481098668   -0.2498371953    1.4530420213
 C    2.2744499871   -0.8344427979    2.6925422629
 C    1.1406147487   -1.4471491994    3.1027694457
 O    0.1907742902   -1.2595539300    2.1388318410
 H    0.5326310751    1.8445015612    0.2214418366
 H   -0.7096352583    1.5993271115   -0.8051046194
 H   -0.9072183927   -0.6833654660   -0.0309404799
 H    1.7724759043    0.0607124208   -1.2854549793
 H    0.9986936675   -1.5410351982   -1.3450290690
 H    0.5149403035   -0.0920769736   -3.1986823554
 H    3.2298871356   -0.7705056823    3.1881757655
 H    0.8454847906   -2.0162891424    3.9669789858