13

 C    0.0172041491    1.3526078298    0.0095552698
 O   -0.0402010812   -0.0832366992    0.0025235822
 C   -1.2674721707   -0.6040267345    0.0093580757
 O   -2.2975890565    0.0246997303    0.0214035622
 C   -1.2518969538   -2.0876770091    0.0026919182
 N   -0.1767809360   -2.8347066091   -0.0091314078
 O   -0.6223107590   -4.1144292736   -0.0113445709
 N   -1.9958771651   -4.1763818839   -0.0005953224
 C   -2.3934572455   -2.9370912147    0.0079885093
 H    1.0773908054    1.6013724824    0.0030655554
 H   -0.4806645055    1.7581772708   -0.8742694785
 H   -0.4676373072    1.7489768767    0.9047181832
 H   -3.4375871140   -2.6695912460    0.0174682836