15

 C   -0.0892722889    1.4891202081    0.0364320827
 N   -0.0533590146    0.0355351855   -0.0094368925
 C   -1.1480116720   -0.7463931442    0.0004044939
 C   -1.1322328468   -2.1353629385    0.0244855330
 C   -2.3788421998   -2.7574922926    0.0199140957
 N   -3.5560678987   -2.1579894797   -0.0124485610
 C   -3.6096145120   -0.8126145955   -0.0461215579
 O   -4.5402679536   -0.0709709004   -0.0877053574
 O   -2.2900725892   -0.0927849843   -0.0245011737
 H    0.8807672925    1.8703316362   -0.2869294156
 H   -0.8616136167    1.8632092165   -0.6369568029
 H   -0.3007875939    1.8636981824    1.0446633233
 H    0.8345511079   -0.4288419342    0.0820331607
 H   -0.2063094598   -2.6917567530    0.0468785631
 H   -2.4157404844   -3.8464506163    0.0451221388