23

 C    0.0402423098    1.5502516057    0.0098459368
 C   -0.0511320283    0.0203374040    0.0024757463
 C    0.6272753702   -0.5509578950   -1.2768199428
 C    0.8133104381   -2.0761338965   -1.2815849243
 C    1.5535704195   -2.5555710925   -0.0264127145
 C    0.8370637277   -2.0896519068    1.2475090236
 C    0.6512880409   -0.5645525714    1.2625586866
 C   -1.5174156359   -0.3939836514    0.0142496543
 O   -2.4493846844    0.3712548545    0.0281093985
 H    1.0877312958    1.8677131666    0.0017900094
 H   -0.4588176215    1.9784788187   -0.8636547922
 H   -0.4424393011    1.9690344642    0.8970118980
 H    0.0660475147   -0.2299601157   -2.1626665449
 H    1.6154309971   -0.0774448818   -1.3539962484
 H   -0.1590019341   -2.5806251980   -1.3463024912
 H    1.3647669831   -2.3667090318   -2.1828757910
 H    1.6492142396   -3.6468405718   -0.0331523537
 H    2.5757893282   -2.1515999822   -0.0338495968
 H   -0.1339480646   -2.5948379619    1.3250566877
 H    1.4053042377   -2.3898803152    2.1351094583
 H    1.6408323464   -0.0918988817    1.3260356038
 H    0.1069916803   -0.2529981412    2.1622280577
 H   -1.7042013792   -1.4905404686    0.0091756290