15

 O    0.0456348211    0.0366341398    0.0268355356
 C   -0.0137179547    1.2340474740    0.1169803367
 C   -1.2636120598    2.1217797499    0.1731757012
 N   -0.8120462263    3.4999065026   -0.0752009614
 C    0.5802939683    3.5643686851    0.4266604133
 C    1.1724751011    2.1882931899    0.1846734816
 C    2.5208425069    1.7096050203    0.4977964522
 O    2.1578278200    2.0129817660   -0.8473653980
 H   -2.0225764531    1.7960109295   -0.5410671601
 H   -1.7036247523    2.0416933930    1.1781883732
 H   -0.7935299833    3.6538855327   -1.0787916822
 H    1.1447906120    4.3516119123   -0.0760999433
 H    0.5585205423    3.7889431763    1.5012324693
 H    3.2309060784    2.3953488382    0.9590375853
 H    2.6616510694    0.6516063004    0.7123575967