20

 C    0.3145807203    1.4816176570    0.3808963852
 C    0.0887174324    0.0157125884    0.0022663461
 C   -1.3808195403   -0.3778181153   -0.0245064156
 C   -1.6599974701   -1.8530761991   -0.4087567926
 C   -2.7880097500   -2.2865928259    0.5783075366
 C   -3.1400447836   -0.9509234017    1.2955769187
 O   -1.9371106543   -0.2219673151    1.2824890558
 C   -3.9361205033   -2.9177534351   -0.0589400620
 N   -4.8562368262   -3.4044387454   -0.5620970875
 H    1.3816950782    1.7211334587    0.4012857003
 H   -0.1649837234    2.1537037856   -0.3392509474
 H   -0.1039949265    1.6943078102    1.3678404993
 H    0.5131625636   -0.1893988409   -0.9883523176
 H    0.6054964948   -0.6431501293    0.7112298850
 H   -1.9268344553    0.2830862004   -0.7192805721
 H   -1.9700271656   -1.9498113995   -1.4505003562
 H   -0.7723342145   -2.4731501055   -0.2627183031
 H   -2.3826372862   -2.9862738293    1.3144718181
 H   -3.9376887774   -0.4283687892    0.7451796180
 H   -3.4566392225   -1.0900583890    2.3309669311