20

 C   -0.0549008261    1.6168321379    0.0566576207
 C    0.0212660521    0.0971111892    0.0055105317
 C    1.0646326398   -0.5939520133   -0.9234761806
 O    1.1810198603   -0.6721440732   -2.1130861413
 C    1.7053058657   -1.3182004021    0.2402617256
 C    2.4164311626   -2.6338094421    0.2389018027
 N    2.0764651635   -0.2065185002    1.1948178339
 C    0.6852403177   -0.6840895738    1.1636621980
 C   -0.0046582138   -1.2560950048    2.3624265524
 H    0.9036232197    2.0352759850    0.3718629910
 H   -0.2993725548    2.0160523259   -0.9325018687
 H   -0.8289587073    1.9537688708    0.7543243489
 H   -0.9565444240   -0.3397175204   -0.2379631991
 H    3.4337930826   -2.5291483368   -0.1530718744
 H    2.4862858461   -3.0485049416    1.2507599693
 H    1.8906356471   -3.3576082135   -0.3913883003
 H    2.5441296508   -0.6712674409    1.9757701164
 H   -0.2803656288   -0.4670981677    3.0715980578
 H   -0.9218009169   -1.7802075259    2.0741250250
 H    0.6405063638   -1.9667213225    2.8910406213