18

 O   -0.1212365129    1.4102170294   -0.0981786840
 C   -0.0396593685    0.0158374150   -0.0463951731
 C   -0.4411395937   -0.7035129109    1.2258599915
 C   -1.3298295952   -0.7189468480    0.0103745615
 C   -2.7259090405   -0.1591606513   -0.1129548540
 N   -2.9932239271   -0.0783121955   -1.5763183549
 C   -3.1787919536   -1.3655598679   -0.8613106147
 C   -1.7614908541   -1.9730319445   -0.8115997607
 O   -1.1309143201   -2.2064035871   -2.0373816411
 H    0.6411868869    1.7681757318    0.3686619381
 H    0.7503618429   -0.4323756408   -0.6495908446
 H    0.0793693871   -1.6157752798    1.5026839539
 H   -0.7500173884   -0.0793790392    2.0591460713
 H   -3.2657077373    0.4633990236    0.5882389406
 H   -3.9145506795    0.3389723089   -1.7009496102
 H   -4.1323578954   -1.8783905058   -0.8663999305
 H   -1.7019137412   -2.8945988886   -0.2268082061
 H   -1.3243322995   -1.4229034594   -2.5718819129