20

 C    0.8027861146    0.0077886040    0.4666304742
 O   -0.3949129279    0.6519963864    0.0975103808
 C   -1.5346108988   -0.1763944728    0.0130996734
 C   -2.2510958032   -0.1200324796    1.3536939225
 C   -2.2838047949    0.0060188312   -1.3462736238
 N   -1.0677940612   -0.6324830282   -1.9979754948
 C   -1.3876659581   -1.5165807192   -0.8034174887
 C   -2.8782300067   -1.4396055724   -1.2190709673
 O   -3.8855235513   -1.8249750320   -0.3195687620
 H    1.5468774858    0.7912804238    0.6326282708
 H    0.6997785400   -0.5720296279    1.3966723495
 H    1.1633120913   -0.6572338525   -0.3295876926
 H   -3.1690931445   -0.7009383811    1.3759433401
 H   -1.5819621396   -0.4897019017    2.1385265136
 H   -2.4728560678    0.9264650205    1.5852729258
 H   -2.7383957518    0.9142273585   -1.7460788290
 H   -1.3600548641   -1.1145918554   -2.8551011996
 H   -0.8004655906   -2.4060449837   -0.5696168567
 H   -3.0508650892   -1.8959557259   -2.2039893961
 H   -4.7378017018   -1.6321877124   -0.7234060603