18

 C   -0.3164019298    1.4976949103   -0.1518709001
 C    0.0291262881    0.0263601885   -0.0429370192
 C    1.3093091734   -0.6001396061   -0.6765104971
 C    2.1594420729    0.0688665890    0.4276390968
 C    0.8945022556   -0.4843665425    1.1576481658
 N    1.1177830206   -1.7774369039    0.2822647786
 H    0.2874906004   -2.3621495918    0.1996370042
 H    1.9236181107   -2.3243608745    0.5805621632
 C    0.5414664139   -0.7055842628    2.6474033558
 O    0.2379347389    0.3448749803    3.2217668821
 O    0.6206081066   -1.9054399720    2.9658596607
 H    0.5566710688    2.1530358450   -0.1523738508
 H   -0.8851585069    1.6933319523   -1.0656624483
 H   -0.9311479788    1.7718107431    0.7098262859
 H   -0.8686905698   -0.5832494568   -0.2040607452
 H    1.5537484287   -0.8104112906   -1.7185219305
 H    3.1129758567   -0.4051924223    0.6732424314
 H    2.2531137298    1.1486544247    0.3904288668