13

 N   -0.0183176394   -1.1712685222   -0.0841843209
 C   -0.0202117567   -0.0159699437   -0.0673568068
 C   -0.0230693795    1.4641010218   -0.0828277916
 N   -0.6417004334    2.0197148707    1.1263167813
 C    0.2015016604    3.0991921559    1.6652237559
 C    1.4879476117    2.9498995536    0.9025976232
 C    1.3776282557    2.0456958476   -0.0622519604
 H   -0.5438197318    1.7577079923   -1.0107053067
 H   -1.5998151162    2.2981539452    0.9740828553
 H   -0.2336906270    4.1006387899    1.5126053583
 H    0.3488210965    2.9834742196    2.7485999909
 H    2.3745727949    3.5268923381    1.1336034270
 H    2.1385234449    1.7310521313   -0.7634556356