17

 C    0.0006370738    1.4539895895    0.0202439809
 C   -0.0060072788   -0.0009184583   -0.0002056463
 C   -0.0254207743   -1.2051997304   -0.0215169705
 C    0.0160609587   -2.6375217863   -0.0226933909
 C   -0.4152153152   -3.4225898836   -1.2137762990
 N   -1.2791116438   -3.4065690987   -0.0078156530
 C   -0.9546602143   -4.5053707194    0.8476663921
 N    0.1827629371   -4.5524308149    1.4113019166
 C    0.9317222861   -3.3621529696    0.9815372674
 H    1.0241497979    1.8447260496    0.0099029452
 H   -0.5203615668    1.8647263311   -0.8514776246
 H   -0.4941994675    1.8411654790    0.9176579801
 H   -0.8283766614   -2.8978071489   -2.0686837202
 H    0.1139667151   -4.3461933340   -1.4366725907
 H   -1.7216319846   -5.2601985356    0.9976809032
 H    1.8963473729   -3.6585346453    0.5566640456
 H    1.1359901950   -2.7214869544    1.8457486541