16

 C   -0.0084025483   -1.1105388070   -0.0859179986
 C   -0.0149839398    0.0903126824   -0.0240076889
 C   -0.0027880586    1.5200083588    0.0555572275
 C   -0.6547141195    2.4395353165    1.1309805049
 C   -0.0468917677    3.3656401754    0.0355515104
 C    1.2315514904    2.4730182908    0.0610506057
 N   -0.6899068742    2.4157851938   -0.9825377419
 C   -0.1273274622    4.7910609426   -0.0749464284
 C   -0.1777546633    5.9892412229   -0.1629589928
 H   -0.0097555327   -2.1710814073   -0.1421274547
 H   -1.7431160241    2.4138936397    1.1650480301
 H   -0.1838484774    2.4614421751    2.1138896387
 H    1.8545983106    2.4976536621    0.9597111242
 H    1.8305022192    2.4774207594   -0.8534048345
 H   -0.1214197790    2.4201035368   -1.8370740936
 H   -0.2296960135    7.0470301780   -0.2423126682