21

 C   -0.1565846887    1.5205280610   -0.0035882313
 C    0.0255112197    0.0056710377   -0.0423771300
 C    0.9003838314   -0.5592349804   -1.2196571296
 C    2.4218729936   -0.4813094579   -0.7577706019
 C    1.8768738834   -1.4515930975    0.3193611462
 C    1.9948942105   -2.2034355547    1.6565110794
 O    0.6942196249   -1.6444963453    2.0415138027
 C    0.9253942752   -0.5594763571    1.0890887392
 C    0.9692337115   -2.0424753291   -0.7884819590
 H    0.8080619252    2.0395626030    0.0236750988
 H   -0.6988626563    1.8764643731   -0.8857892417
 H   -0.7223115548    1.8264916664    0.8828564795
 H   -0.9550474918   -0.4808904941   -0.0696202441
 H    0.6210832596   -0.2630230775   -2.2320444012
 H    3.0755649471   -0.9253933672   -1.5120033964
 H    2.8286486540    0.4751870576   -0.4183695135
 H    1.9797151054   -3.2968100631    1.6323345533
 H    2.7876921394   -1.8492616061    2.3288583413
 H    1.4248000904    0.2604750260    1.6274548201
 H    0.0415871648   -2.5346906522   -0.4868816964
 H    1.5340865756   -2.6724505825   -1.4809016852