21

 C   -0.3823183604    1.5926625745   -0.2514777215
 O   -0.4541107000    0.4474349530    0.5672288674
 C   -1.2953552431   -0.5415903389    0.0581008988
 C   -0.8371329075   -1.4082962566   -1.1461520989
 C   -1.4588268437   -2.6340447850   -0.4272009547
 C   -1.4139128819   -1.8368502642    0.9248457753
 C   -0.2514322668   -2.1324763648    1.7418252448
 C    0.7088473010   -2.4021988552    2.4169877858
 C    1.8701212503   -2.7115046040    3.2386801764
 H    0.2769415571    2.3070832685    0.2471032555
 H    0.0306179228    1.3644947828   -1.2455355003
 H   -1.3719716512    2.0573588278   -0.3889083693
 H   -2.3027184740   -0.1331622466   -0.1270718007
 H   -1.2065000332   -1.1521352181   -2.1414077245
 H    0.2541111218   -1.4726453023   -1.1656745121
 H   -2.4885792683   -2.8233702658   -0.7405180850
 H   -0.8990468647   -3.5688547507   -0.4509699783
 H   -2.3223010360   -1.8907133169    1.5325887933
 H    1.5785235008   -2.9555804291    4.2664864703
 H    2.4261824282   -3.5684923454    2.8418283338
 H    2.5610565889   -1.8621815328    3.2848447239