23

 C   -0.1110237232    1.6049262985    0.0299811735
 C   -0.2774047306    0.0999060031   -0.2120488032
 C    0.6896009236   -0.4974920353   -1.2405086372
 C    0.4909657751    0.0798460154   -2.6457555594
 C    2.2012325151   -0.5435359683   -0.8188587218
 C    2.2717516382   -2.0495071155   -1.2101868662
 C    0.7463006547   -2.0422602844   -1.2897288753
 C   -0.2063135003   -3.0214827546   -0.7628098006
 O   -0.0160391410   -2.8446780062   -2.1747327565
 H    0.9141717475    1.8483572887    0.3298491244
 H   -0.3440400022    2.1912693548   -0.8637246131
 H   -0.7782847324    1.9444009243    0.8282084568
 H   -0.1416509656   -0.4301255655    0.7394106659
 H   -1.3083953145   -0.1046448726   -0.5315325551
 H    0.6756072138    1.1582385025   -2.6621176686
 H    1.1734967687   -0.3845808142   -3.3644151042
 H   -0.5286227887   -0.1032075150   -2.9994046558
 H    2.8708314931    0.1287185277   -1.3594711825
 H    2.3374185530   -0.3843968519    0.2540669092
 H    2.7277687293   -2.2158161495   -2.1900305338
 H    2.7305563192   -2.7329656864   -0.4919739608
 H    0.1584172506   -3.9655247413   -0.3580798260
 H   -1.1733733534   -2.6980366543   -0.3800247697