15

 C   -0.0657027897   -1.2411070582   -0.0797093042
 C   -0.0267013253   -0.0400257474   -0.0387972534
 C    0.0224186589    1.4167781239    0.0169640082
 C   -0.6205302516    2.0235329707    1.3044930508
 C    0.2236174397    3.2796954513    1.6288681690
 C    1.5265165545    3.0075929480    0.9147039149
 C    1.4283367780    2.0025175872    0.0495295316
 H   -0.0999827476   -2.3016354074   -0.1169669474
 H   -0.4980660035    1.8027762113   -0.8736242522
 H   -1.6839913150    2.2346891517    1.1735218008
 H   -0.5241611629    1.2949717405    2.1136921935
 H   -0.2431397222    4.1973422311    1.2432833816
 H    0.3485179121    3.4297591600    2.7068979504
 H    2.4179824579    3.6040497169    1.0752340015
 H    2.2120173368    1.6362627004   -0.6025946552