16

 C    0.0531484401    1.5489400234    0.0778479426
 N    0.0053065364    0.1033482002    0.0642525140
 C    0.6530193453   -0.6181111542    1.0070975509
 N    1.3327525680   -0.0711643840    1.9451815789
 N    0.5195469870   -2.0333344361    0.8739881285
 C   -0.1683839688   -2.7571938416   -0.0676566433
 O   -0.8107460777   -2.2835015963   -0.9909470622
 C   -0.0614466078   -4.1925329815    0.1380104895
 C    0.0129348895   -5.3828051187    0.2883902232
 H    1.0821258752    1.9138960292   -0.0112799955
 H   -0.5330236027    1.9220579504   -0.7642028262
 H   -0.3591714047    1.9522143662    1.0091631610
 H   -0.5096795231   -0.4036191873   -0.6400557093
 H    1.7538546364   -0.7565744078    2.5663220516
 H    1.0046250465   -2.5678622206    1.5780075853
 H    0.0705737606   -6.4374935612    0.4099281111