15

 N   -0.1401274995    1.3391584632    0.0679116164
 C   -0.1212434894   -0.0230606663    0.0286213039
 N   -1.1117403231   -0.7913602025   -0.2341749069
 C   -0.6247559016   -2.1532199425   -0.0581485437
 C    0.8680441714   -1.9835321982    0.4066006100
 C    0.5266766289   -2.5030929500    1.8241999786
 C   -0.9285676228   -2.7421063764    1.3488352805
 O   -1.8911545811   -3.2263149572    1.8599121838
 O    1.0918573676   -0.5670265149    0.3405191515
 H    0.7450535346    1.7962358974   -0.0848859934
 H   -0.9329077862    1.7605259958   -0.3897120914
 H   -0.8726809611   -2.7970768864   -0.9074053404
 H    1.6727752016   -2.4882830413   -0.1257454060
 H    1.0399016148   -3.4213562150    2.1244708003
 H    0.6404863858   -1.7605139355    2.6191143466