18

 C   -0.0150893356    1.5619720504    0.0500909886
 C   -0.0923758205    0.0368601251   -0.0721657619
 C   -1.4899312359   -0.4993518952    0.0346268497
 O   -2.4512310553    0.0535683250   -0.9086974484
 C   -3.4669512789   -0.4360421712   -0.0099290522
 C   -3.2837593563   -1.9715257202    0.1125966709
 C   -1.7995818232   -2.0202844744    0.1422908465
 N   -2.5646307977   -1.9159556631    1.4315175837
 C   -2.5131635272   -0.3977779955    1.2089247346
 H    1.0152088081    1.9097384898   -0.0657503763
 H   -0.6309835671    2.0405128947   -0.7151282503
 H   -0.3739796266    1.8985513068    1.0284754254
 H    0.3215454400   -0.2853085603   -1.0369816690
 H    0.5165254546   -0.4447220046    0.7027320709
 H   -4.4446748108    0.0252604361   -0.1274312060
 H   -3.9360728049   -2.7913949025   -0.1587903980
 H   -1.1908217102   -2.8815467911   -0.1035418470
 H   -2.5133861927    0.3004275702    2.0428556088