14

 C   -0.0473359570    1.4165978089    0.0221378730
 O    0.0033077128   -0.0067642030   -0.0135232022
 C   -1.1884950769   -0.6278535522   -0.0215976757
 N   -2.3721528799   -0.0341595378    0.0176582062
 N   -3.2189977049   -1.0658780236    0.0269228935
 N   -2.6674901438   -2.2844529915   -0.0285659654
 C   -1.3640368283   -2.0335292518   -0.0524343873
 N   -0.3817536290   -3.0103276300   -0.1591718735
 H    0.9891443929    1.7561179897    0.0245240473
 H   -0.5713413821    1.8103808283   -0.8553206645
 H   -0.5624852553    1.7673188697    0.9229404364
 H   -4.2119877661   -0.9333344925   -0.0409406173
 H   -0.7024900239   -3.9177458961    0.1512583107
 H    0.4799892015   -2.7494519082    0.3007743389