12

 O    0.0259328505    0.0067239498    0.0364985891
 C   -0.0199576562    1.2068342992    0.0457876874
 C   -1.2627493159    2.0979249960    0.1255681835
 C   -0.6590121910    3.4619464270    0.4695155186
 O    0.6381564760    3.4635101163   -0.1340702895
 C    1.1769897301    2.1644455137   -0.0019753698
 H   -1.7368305706    2.1108520603   -0.8628519785
 H   -1.9849694217    1.7093515788    0.8456708188
 H   -1.2089661993    4.3130081905    0.0635996379
 H   -0.5766156061    3.5888334944    1.5606587280
 H    1.7603440062    2.0454696607    0.9273950322
 H    1.8357354379    1.9494722436   -0.8482499876