17

 C   -0.0326905993    1.5155578915    0.1483515856
 C    0.0004551370    0.0612766218    0.1230231948
 C    0.0256613251   -1.1430882929    0.0966182406
 C    0.0794423737   -2.5798631150    0.0226229012
 C    1.3394899858   -3.1680254466   -0.6152877005
 C    1.5402239118   -2.7185727222   -1.9931241240
 N    1.7042098518   -2.3635706117   -3.0799733641
 C   -0.6246825678   -3.3770942226    1.0739355598
 N   -1.1537722826   -3.3330824731   -0.2930052826
 H    0.6954220328    1.9339590172   -0.5546011790
 H   -1.0213776487    1.8921750909   -0.1353417540
 H    0.2004404466    1.9051590205    1.1452702823
 H    2.2193128834   -2.8910342975   -0.0243225810
 H    1.2607217020   -4.2592549498   -0.6111949455
 H   -0.2176701639   -4.3382090313    1.3778035156
 H   -1.1311632393   -2.8235717421    1.8584408692
 H   -1.9386458382   -2.6895488571   -0.3505215184