20

 C   -0.6382025631    1.1426819613    0.5641291025
 N   -0.1388372335   -0.2249266950    0.5264878526
 C    1.1294836977   -0.4776143359   -0.1488205761
 C    1.0198467691   -0.6245936366    1.3339739472
 C    1.7370304882    0.3399601021    2.2583892240
 C    0.8503910829   -2.0224166032    1.8951695209
 O    0.0233751005   -1.9991557159    3.0675536150
 C   -1.3036826361   -2.1706743160    2.8870096307
 O   -2.0885050483   -2.0682648512    3.7817467928
 H    0.1433339975    1.9170668972    0.5669656494
 H   -1.2657555930    1.3047762132   -0.3177129146
 H   -1.2619145392    1.2775595629    1.4529325951
 H    1.1646355878   -1.3457227556   -0.8037641228
 H    1.6920013278    0.3822324448   -0.5118143318
 H    1.8324420441    1.3373864266    1.8262468175
 H    1.2086863015    0.4222052071    3.2129579092
 H    2.7475325609   -0.0265360105    2.4688115722
 H    0.4092355233   -2.6789721933    1.1374439138
 H    1.8074085841   -2.4446008682    2.2149361146
 H   -1.5655540923   -2.4206259039    1.8431191977