23

 C   -0.0936930715    1.5271235876   -0.0279738764
 C   -0.0100207733    0.0182762674    0.0585519217
 C    1.2902998876   -0.7077788569   -0.2104541742
 C    0.7064644270   -0.6856816800    1.1847743659
 C    1.4065829095    0.0628135593    2.3246926675
 C    1.8746727969   -1.0474868999    3.2987860092
 C    0.8894381515   -2.1916423395    3.0982986780
 C   -0.5830795118   -1.8609902967    3.0830067908
 C    0.1792730260   -1.9669039274    1.7810200395
 H    0.8303190850    2.0019304771    0.3158455367
 H   -0.2663196001    1.8524098970   -1.0601572359
 H   -0.9142971405    1.9194139251    0.5837707616
 H   -0.9027914345   -0.4914850769   -0.2981033984
 H    1.2627828101   -1.6359196961   -0.7733548993
 H    2.1734384997   -0.1030803174   -0.3971231671
 H    2.2371601679    0.6831754760    1.9790834664
 H    0.7021267691    0.7348978056    2.8282067995
 H    2.8791871172   -1.3909583529    3.0245537356
 H    1.9260479049   -0.6932789744    4.3341626240
 H    1.1854477120   -3.1868920601    3.4116830307
 H   -1.2700506580   -2.6667179586    3.3187096311
 H   -0.9178220841   -0.8860708678    3.4237492081
 H   -0.0519618808   -2.7881039507    1.1107256751