23

 C    0.0058545306    1.6001938019    0.1641766947
 C   -0.0162792241    0.0803085963   -0.0040722524
 C    0.9090807993   -0.4208158764   -1.1589795122
 C    1.9986846766   -0.7644437841   -0.1084391957
 C    0.9229936565   -0.6586580013    1.0044994060
 C   -1.4509908795   -0.4170468864   -0.0166206267
 C   -2.3337741279   -0.1598582106   -1.2620608459
 C   -2.5363384269   -1.6857551278   -1.2520368309
 O   -1.5608071206   -1.8523592982   -0.2019439513
 H    1.0325790122    1.9785466970    0.1964003432
 H   -0.5043910516    2.1018428766   -0.6665054952
 H   -0.4877754981    1.9032851300    1.0951410892
 H    0.5036907287   -1.3213704241   -1.6261531526
 H    1.1679384276    0.3034739226   -1.9364374842
 H    2.5027960280   -1.7270665996   -0.2179363010
 H    2.7623076910    0.0138729655   -0.0283037713
 H    1.1877919356   -0.1164986219    1.9166740879
 H    0.5193126731   -1.6369993973    1.2753308153
 H   -1.9430920761   -0.1227178854    0.9240550048
 H   -3.2219418572    0.4560953392   -1.1159950762
 H   -1.7748160557    0.2091045930   -2.1248108318
 H   -3.5344163783   -2.0144553723   -0.9333393877
 H   -2.2571752332   -2.2307423668   -2.1609340661