14

 N    0.1803914604    1.4031161919   -0.0405108757
 C    0.0070226879    0.0039705479   -0.0170611210
 C   -1.0773148085   -0.8691507203   -0.0553900029
 N   -2.4529167634   -0.9049509050   -0.1291733357
 N   -2.8199642691   -2.1390081816   -0.1200518910
 N   -1.7138282226   -2.9515494489   -0.0409696887
 C   -0.5772402138   -2.1973749589    0.0029956022
 C    0.8004515171   -2.1591527225    0.0768522033
 N    1.1078870627   -0.8096583924    0.0618283045
 H   -0.2074507776    1.8080362632   -0.8875376647
 H   -0.2976594324    1.8463804891    0.7384636729
 H   -1.8524693706   -3.9463893293   -0.0248966431
 H    1.5650258207   -2.9128518697    0.1360102314
 H    2.0394440390   -0.4278287232    0.1035509387