17

 C    0.0643902058    1.4492721694   -0.3372977291
 C    0.1110693769   -0.0580736218   -0.2575369464
 O    1.1309655249   -0.7005731814   -0.2373314413
 C   -1.2701071814   -0.7626405000   -0.1774988808
 C   -1.1721697275   -2.2124149063   -0.6723248637
 C   -2.5088482091   -2.9206179386   -0.6642094509
 O   -2.9714055325   -3.5149740418   -1.6019349864
 C   -1.6955336525   -0.6630572097    1.2884877684
 O   -2.2805865021    0.2761745537    1.7594802345
 H    1.0576745834    1.8658403647   -0.1675155267
 H   -0.2851179477    1.7437486956   -1.3343136714
 H   -0.6562017376    1.8487426546    0.3831480857
 H   -1.9883743715   -0.1735195962   -0.7564074953
 H   -0.7545938588   -2.2548132115   -1.6804451558
 H   -0.4827348375   -2.7588342764   -0.0146554523
 H   -3.0644453886   -2.8625019213    0.3022762381
 H   -1.3732672142   -1.5225107831    1.9176100335