15

 O   -0.0341014364   -0.0633643217    0.4925248187
 C   -0.0683145856    1.0734461728    0.0936084641
 C   -1.3293067250    1.9167851355    0.0333581034
 C   -1.6543217244    2.3044251380   -1.4185446129
 O   -0.4912743498    2.7031856099   -2.1679497694
 C    0.3105964060    3.6444257863   -1.5858052083
 O    0.3384134829    4.7912380876   -1.9042470884
 O    1.1191346472    3.1538777193   -0.6202965921
 C    1.2102490531    1.7382621484   -0.4240599778
 H   -2.1581822581    1.3508048793    0.4632976319
 H   -1.1761720756    2.8202166285    0.6356435076
 H   -2.0487028877    1.4455709172   -1.9650224879
 H   -2.3956023433    3.1107975214   -1.4481264950
 H    2.0027891685    1.5973651036    0.3134181418
 H    1.5064827281    1.2370464239   -1.3517567457