22

 C   -0.7386028321    1.4564467532    0.0470094314
 C    0.0220179778    0.1365215031    0.0451590903
 C   -0.8881339550   -1.0413045747   -0.3062825796
 C    1.3540484731    0.1165611550   -0.7813240733
 C    2.0301049544   -0.5509287543    0.4173322164
 C    2.7921084200   -1.8207165871    0.4014842653
 N    3.4317177373   -0.5530949451    0.8026291790
 C    0.8735611841   -0.1685624266    1.3427919380
 O    1.2274164197    0.9637316956    2.1087325934
 H   -0.0952287622    2.2788684669    0.3699317351
 H   -1.1140260787    1.6884287923   -0.9560954936
 H   -1.6066953676    1.4175909914    0.7175393315
 H   -1.3243831583   -0.9171890128   -1.3039014678
 H   -0.3395654181   -1.9891457182   -0.2990055915
 H   -1.7128373465   -1.1283620052    0.4107701147
 H    1.3419672772   -0.4337149675   -1.7269011385
 H    1.7364917081    1.1266016173   -0.9610704943
 H    2.6743006477   -2.5429873918    1.2056317623
 H    3.0349155853   -2.2541058980   -0.5663207403
 H    4.0007337821   -0.1864984436    0.0428726407
 H    0.4750029566   -0.9707600904    1.9812165436
 H    0.4459682551    1.2486828905    2.5936067972