15

 N    0.0512496945    1.4179275073   -0.1372953700
 C    0.0331919370    0.0334345091   -0.0637200692
 C   -1.1000679618   -0.7909483228   -0.0183348904
 N   -0.6340792911   -2.1117283410   -0.0320801244
 C    0.7067655042   -2.1114589488   -0.0795299747
 O    1.3534130448   -3.2918475703   -0.0965226621
 C    1.1765579919   -0.8034969645   -0.1007815319
 C   -2.4982111561   -0.5316461203    0.0370637020
 O   -3.3610194451   -1.4013256900    0.0756430260
 H    0.8876112511    1.8451704415    0.2328932144
 H   -0.7784749811    1.8770253015    0.2081303123
 H   -1.2501822403   -2.9072257050   -0.0052679322
 H    2.3003921240   -3.1272240354   -0.1444710736
 H    2.2099773357   -0.4956321085   -0.1478302675
 H   -2.7749973176    0.5467026472    0.0438467912