19

 N   -0.1364974962   -1.1224052808   -0.2365836689
 C   -0.0798358373    0.0242568177   -0.1051755958
 C   -0.0247201842    1.4736457256    0.0840582450
 C   -0.5752282783    1.9505254099    1.4565008221
 C    0.0398216836    3.3572192379    1.5675024400
 C    1.3890943790    3.2529408012    0.8228411678
 C    2.6015686813    2.6842257639    1.6003615543
 C    2.3784676741    1.3562784774    0.8380349869
 N    1.3421149344    2.0072698333   -0.0231030053
 H   -0.6255583323    1.9289597705   -0.7151953132
 H   -1.6667058971    1.9460055637    1.4945530585
 H   -0.2121233186    1.2913194527    2.2505526213
 H   -0.6051910906    4.0889994640    1.0696486059
 H    0.1620877951    3.6834844938    2.6037416146
 H    1.5933515842    4.1567512272    0.2419698915
 H    3.5468968612    3.1811177542    1.3765398747
 H    2.4808556556    2.6334281903    2.6849704477
 H    3.2232648385    0.9778862219    0.2565582131
 H    1.9988267378    0.5375439056    1.4598481596