18

 O   -0.3493452644    1.7327046732   -0.3881258626
 C   -0.1104748473    0.3881337237   -0.7743215578
 C   -1.1376578845   -0.5117346566   -0.1053583537
 C   -1.6170765987   -0.1430149736    1.2480901786
 N   -2.5007504676    0.0139333202    0.0746509546
 C   -1.0210842139   -1.9446671579   -0.5539988326
 C   -0.4580039781   -2.9808496857    0.3549981593
 N   -1.8819877665   -2.9905931433   -0.0069129269
 H    0.2395439148    2.3035771682   -0.8885462404
 H   -0.1967401632    0.2736088769   -1.8669433473
 H    0.9011690434    0.0606878661   -0.4873857338
 H   -1.9246307273   -0.9082739345    1.9572664801
 H   -1.1957937150    0.7499188671    1.6984074685
 H   -2.5054058355    0.9967024118   -0.1924327331
 H   -0.8476437947   -2.0527381951   -1.6247672029
 H    0.1224059431   -3.8082592245   -0.0439081290
 H   -0.1698412826   -2.6617333034    1.3535715524
 H   -2.4609445218   -2.6122534627    0.7386373865