23

 C    0.2284567385    1.6396779579    0.1441972196
 C    0.0725430207    0.1353167575    0.1003858651
 C   -1.3657095070   -0.4379040044   -0.0748286753
 C   -1.1538569588   -1.3709074008    1.1553881256
 C    0.2795627482   -0.8117191278    1.3495633216
 C    1.3907583147   -1.5834621786    0.5899410755
 C    1.1491103013   -0.6897978470   -0.6382980484
 C    1.1486582843   -1.1041928165   -2.0810165961
 C    2.2100742368   -0.1625748254   -1.5607518217
 H    1.2412564982    1.9309242074    0.4430605876
 H    0.0302699413    2.0896111980   -0.8373868445
 H   -0.4754845190    2.0873494053    0.8548431667
 H   -2.1475162100    0.3111367472    0.0817657710
 H   -1.5561912791   -0.9346461658   -1.0302141656
 H   -1.8274052402   -1.1506721426    1.9873734100
 H   -1.2072669792   -2.4453550797    0.9553594326
 H    0.5342275780   -0.4307337356    2.3400588099
 H    2.3866568247   -1.4588168060    1.0267660856
 H    1.2077048712   -2.6550806182    0.4546356867
 H    1.4363709166   -2.1230820879   -2.3216732084
 H    0.3826740838   -0.6939272620   -2.7326712036
 H    2.1595017950    0.8777385888   -1.8663263195
 H    3.2210159499   -0.5409631938   -1.4408808943