20

 O   -0.1709985194    1.4578929430    0.0926487622
 C   -0.0211700114    0.0535952465    0.2286199271
 C   -1.3381849958   -0.5955171011   -0.1911575993
 C   -1.3028695266   -2.0938548425   -0.1142871993
 C   -0.5997135949   -3.0970826154   -1.0193715994
 N   -1.4849400236   -4.1936045804   -0.4613276842
 C   -0.9955789245   -4.2659742901    0.9738911250
 C   -1.5540711457   -2.8732988705    1.2030394502
 C   -2.4388027187   -3.0682442137    0.0054106677
 H    0.6574242850    1.8759044504    0.3444708744
 H    0.7975034085   -0.3244533316   -0.4050868599
 H    0.2146486496   -0.2283546770    1.2670293870
 H   -2.1380128457   -0.2017962040    0.4476553304
 H   -1.5711257284   -0.2748316068   -1.2143046594
 H   -0.8397678630   -2.9406229597   -2.0754166801
 H    0.4760765105   -3.2818085988   -0.9111699154
 H   -1.5548681404   -5.0396629613    1.5068723884
 H    0.0800923540   -4.4506768296    1.0796469219
 H   -1.7797553581   -2.3514992133    2.1253629571
 H   -3.5038366116   -3.0217394939   -0.1740311646