20

 C   -0.2596682692    1.5541711896    0.0621508688
 C    0.0435608597    0.0649223896   -0.0232889589
 N    0.7115097963   -0.4294124943   -1.2629747948
 C    2.0363166986    0.2286408254   -1.4095436276
 C    2.9341240454   -0.3423976747   -0.2582441015
 C    1.9619515108   -1.3552058727    0.4118887437
 C    1.1302230071   -1.7843285085   -0.8227375833
 C    0.9320696810   -0.4805504210    1.1216522482
 O    0.8308878440   -0.2326611185    2.2954412259
 H    0.6452120572    2.1671933664    0.0933494713
 H   -0.8678064924    1.8743231757   -0.7881070098
 H   -0.8122200931    1.7476320141    0.9851047440
 H   -0.9103707834   -0.4785346674    0.0381649350
 H    2.4391009095   -0.0378709838   -2.3903346337
 H    1.9355957750    1.3136458643   -1.3835842979
 H    3.8156735467   -0.8609094608   -0.6464424461
 H    3.2809855415    0.4246407803    0.4385685957
 H    2.4300438141   -2.1098212288    1.0414530116
 H    0.2619110912   -2.4056827813   -0.5870652660
 H    1.7248079899   -2.2801851235   -1.5951857946