19

 C   -0.0935326004    1.5325800846   -0.0052714521
 C   -0.0105309575    0.0218788876    0.0247576557
 C   -1.2489109989   -0.8059264859    0.4543539159
 N   -0.3462336084   -1.7033635453    1.2106414720
 C    0.7316826136   -0.6844044950    1.1937197028
 C    2.1303443400   -1.1992991915    0.8900888228
 N    2.3333275892   -1.6283738433   -0.4861984285
 C    1.5275684533   -1.2232438558   -1.3674426683
 O    0.4393268220   -0.4169001946   -1.2681039336
 H    0.8998429004    1.9693658949   -0.1501398040
 H   -0.7319159063    1.8625550756   -0.8306291830
 H   -0.5080284206    1.9165784662    0.9311758820
 H   -1.9397496372   -0.2145557386    1.0717799879
 H   -1.8051470404   -1.2876986141   -0.3554001601
 H   -0.6690708157   -1.9791193714    2.1310249622
 H    0.7422997841   -0.0368234513    2.0832539527
 H    2.8667720480   -0.4153221917    1.1177359213
 H    2.3651301920   -2.0411593429    1.5526535910
 H    1.6582597930   -1.5093103774   -2.4097959568