20

 C   -0.6480307052    1.3752528106    0.0686887065
 C    0.0418730589    0.0304410755   -0.0314707318
 O    1.1884490561    0.0427410029   -0.9230417655
 C    2.0148327237   -0.6371215547    0.0432557667
 C    2.9037595794    0.3342649343    0.8461426246
 C    1.7618268620    0.4866798771    1.8992407407
 C    0.8934974726   -0.5545707880    1.1256782999
 C    0.3260191206   -1.7192985950    1.9046090606
 H    0.0416029506    2.1629120186    0.3824661760
 H   -1.0561740108    1.6567153232   -0.9073565041
 H   -1.4789805220    1.3285730166    0.7814372725
 H   -0.6843443625   -0.7213191361   -0.3801565588
 H    2.4471606873   -1.5616805811   -0.3521511524
 H    3.8072989862   -0.1300774355    1.2511385044
 H    3.1831818727    1.2323827132    0.2912803129
 H    2.0415343962    0.1358649115    2.8958818622
 H    1.3330420848    1.4854981104    2.0059133080
 H   -0.4705921296   -1.3871282641    2.5822962274
 H   -0.0990065148   -2.4787025745    1.2389963822
 H    1.0945040140   -2.2027375750    2.5177590781