19

 O   -0.8045310837    0.8286818461    0.0771182663
 C    0.1900294280   -0.1265607782   -0.1851493846
 C    1.1543311682    0.3477173650   -1.2926592008
 C    0.4162322343    0.6051970639   -2.5878152870
 C    1.1554892079    0.5675251234   -3.9107976747
 C    0.1749392281   -0.5220995056   -3.5501372698
 O    0.6559368048   -1.7817865227   -3.1689134913
 C    0.9567654281   -0.4458425455    1.0783400331
 O    0.7151365732    0.1004836824    2.1287104309
 H   -0.7170427411    1.0420749275    1.0195058743
 H   -0.2657483693   -1.0721995844   -0.5284504691
 H    1.6520728925    1.2651770188   -0.9559663521
 H    1.9210308633   -0.4175986158   -1.4492971209
 H   -0.3860985415    1.3298866930   -2.4975280861
 H    0.8919753240    1.2803851029   -4.6847108032
 H    2.2073976601    0.3006988160   -3.8777933462
 H   -0.7794695844   -0.5425783368   -4.0751836357
 H    0.9848677903   -2.2269422669   -3.9564639639
 H    1.7595779070   -1.2060403932    0.9879484909