18

 O   -0.1224738637    1.3262019399    0.0334644879
 C    0.0237444858   -0.0438141714    0.0306689488
 C    0.6618706580   -0.9630659302   -1.0655622733
 C    0.0771006281   -1.9177821058    0.0371127717
 O    0.1250319902   -3.2901505480    0.0958798731
 C    0.6843678075   -0.9766457455    1.1083580937
 C   -1.1640259458   -1.0040471877    0.0482335740
 C   -2.4706894563   -1.0085211794    0.7061952335
 N   -2.3390479141   -1.1002738090   -0.7866248055
 H    0.7472295790    1.7325507506   -0.0414017484
 H    0.1693600335   -0.9763106951   -2.0403088704
 H    1.7521436784   -0.9397428390   -1.1463428044
 H   -0.4641436933   -3.6322588460   -0.5868803174
 H    1.7760667300   -0.9552438828    1.1592818022
 H    0.2194227136   -0.9916902245    2.0962278505
 H   -2.8543763492   -1.9086133049    1.1789606129
 H   -2.8412149824   -0.0772500332    1.1269560224
 H   -2.5584044694   -0.1964605578   -1.2018646113