15

 O    0.5025956478    1.4233214709   -1.5708124913
 C    0.3522191957    1.7631234550   -0.4169376420
 N    1.2950953674    1.6798016059    0.5653945247
 C    2.6019941758    1.1211561271    0.3929582298
 C    3.4458666075    1.4197241902   -0.8029088497
 N    3.2556560674    2.7790506914   -1.2962404029
 C    3.5645072729    3.3444714619   -0.0477486240
 O    3.5583832882    4.4737922560    0.3482367802
 C    3.8685799568    1.9695310167    0.5534059827
 H   -0.5895928271    2.2021139576   -0.0335216697
 H    1.0512126314    2.0358081883    1.4773250862
 H    2.7180561866    0.1078953352    0.7771434428
 H    3.9104634204    0.6610138614   -1.4170177387
 H    2.4444798280    3.0373334715   -1.8476552130
 H    4.6770648814    1.6896888309    1.2131581148