18

 C    0.0201781496    1.5163211942   -0.0156304151
 N    1.2523315755    0.6982550856    0.0675559810
 C   -0.0492190307    0.0423402809    0.0246628774
 C   -0.5049290045   -0.8527186425    1.1467779428
 C   -1.7774371505   -1.5441610252    0.6412528849
 C   -2.0395733766   -1.0139990482   -0.7666539333
 C   -0.5464402497   -0.8336675573   -1.1288088469
 O    0.0215947454   -2.1154401567   -0.8079538798
 C   -0.4384381328   -2.2329165655    0.5289223572
 H   -0.1985821642    2.1026387215    0.8726768173
 H   -0.2131703568    2.0180725803   -0.9527875040
 H    1.7079857126    0.6478080592   -0.8409244812
 H   -0.2985909700   -0.6508987207    2.1879358140
 H   -2.5590566243   -1.8862920727    1.3054343948
 H   -2.5351765710   -1.7454709779   -1.4109143700
 H   -2.5892069038   -0.0695310273   -0.7875364298
 H   -0.2827630013   -0.5462658053   -2.1451359791
 H   -0.1410147069   -3.1408483625    1.0325962198