18

 C   -0.7498789639    1.2979606585    0.1046098367
 C    0.0632104954    0.0112775295   -0.0245062653
 N    0.6456070090   -0.0788820947   -1.3722626347
 C    1.8126138456    0.7158647539   -1.6989905106
 C    1.9233658576   -0.7786611070   -1.5394558591
 C    2.6202088823   -1.2971277240   -0.3507865411
 C    2.2391695765   -0.9868933003    0.8976534920
 C    1.0417762227   -0.1711307948    1.1545510114
 O    0.7879683723    0.2793734300    2.2557985714
 H   -0.1072490169    2.1756699475   -0.0187925284
 H   -1.5287596578    1.3297200475   -0.6606844973
 H   -1.2031527961    1.3500955859    1.0950622722
 H   -0.6262311071   -0.8423180316    0.0562342983
 H    1.8189907997    1.1511583300   -2.6950462800
 H    2.2861101598    1.3169027447   -0.9250316786
 H    1.9960429327   -1.3853194864   -2.4393451075
 H    3.4796663887   -1.9403750302   -0.5250690730
 H    2.7866853995   -1.3234731485    1.7716948537