19

 C    0.7644196059    0.5200406953   -0.3658326711
 C    0.2876754332   -0.6512644785    0.4694541384
 C    1.1627394865   -1.8455538647    0.6247121280
 N    0.9504574396   -0.9203271432    1.7526865741
 C   -1.2073976756   -0.8417992293    0.4439851421
 N   -1.8162273828   -1.8492793462    1.2924833758
 C   -2.1558710146   -0.4348614733    1.5449669078
 C   -1.7063717734    0.1301702392    2.8538206255
 O   -2.1474792427    1.1649714677    3.2948257525
 H    1.8570461286    0.5817038298   -0.3636030668
 H    0.4377879600    0.4265815862   -1.4076079028
 H    0.3679258424    1.4649298269    0.0228161304
 H    0.7066836117   -2.8211028546    0.7612900101
 H    2.1269877535   -1.8451552513    0.1229944735
 H    1.7534067980   -0.3042408167    1.8564943731
 H   -1.6232095233   -0.7163506944   -0.5567555388
 H   -2.5798677266   -2.3205127714    0.8166634653
 H   -3.1221454876   -0.0536967524    1.2201999822
 H   -0.9507908229   -0.4774879090    3.3829886407