21

 C   -0.1865906637    1.5897456473    0.0470727369
 N   -0.0652409669    0.1360386088    0.0853681809
 C    0.6689517394   -0.3065699267    1.2565322805
 C    2.1507330055    0.0202113669    1.1380035325
 O    2.8788030754    0.2320670165    2.0711158496
 C   -1.3423590223   -0.5506726681   -0.0809457902
 C   -1.9624985500   -0.3140206878   -1.4392922856
 C   -3.4092553782   -0.5636789409   -1.6450836024
 N   -2.8846050490    0.8118956948   -1.6802357325
 H    0.8039287041    2.0475338579    0.1313865897
 H   -0.6247452764    1.9081148960   -0.9006735576
 H   -0.8090577076    1.9870191163    0.8721081613
 H    0.2921591050    0.0929296057    2.2152934482
 H    0.6063725088   -1.4023512667    1.3195630027
 H    2.5177067692    0.0178486271    0.0861666431
 H   -1.1551396053   -1.6250513649    0.0387435502
 H   -2.0777665785   -0.2673965471    0.7015381224
 H   -1.2839885581   -0.4960671274   -2.2698778232
 H   -3.7659874189   -0.9459104471   -2.5968864384
 H   -3.9990309963   -0.8725261516   -0.7850052803
 H   -3.0958045864    1.2732509909   -0.7974741879