16

 O    0.0679211248    1.4074452868   -0.0701556938
 C   -0.0161874088    0.0251415581   -0.0234353410
 C   -0.4411525674   -0.6907676580    1.2360337636
 C   -0.8917536007    0.1376581491    2.3730594292
 C   -1.9775573951    0.9182355674    2.2659349384
 N   -2.7781598959    0.9349906659    1.1302288783
 C   -2.6249534577    0.0963099492    0.0334974936
 O   -3.4891223037    0.0175143531   -0.8156443682
 C   -1.3601292479   -0.6876717762   -0.0052403389
 H   -0.0850492227    1.7422472231    0.8245182416
 H    0.7497530074   -0.4511597978   -0.6279799928
 H    0.0731833376   -1.6156607569    1.4756580024
 H   -0.3249439030    0.1311566804    3.2953468276
 H   -2.3128543682    1.5658738595    3.0674708562
 H   -3.6428616812    1.4547960624    1.1361801467
 H   -1.4460759074   -1.5876200160   -0.6018640231