21

 C    0.0242188088    1.5260676716    0.1635198355
 C    0.0267254932    0.0288756174    0.0102141381
 C   -1.0881772367   -0.6979332049    0.0991708785
 C   -1.1841645751   -2.2056329212   -0.0149268932
 O   -2.5404070501   -2.6388754490    0.0313946845
 C   -0.5941285057   -2.7633324439   -1.3135347653
 C    0.9310410607   -2.6739132775   -1.3864222487
 O    1.4474102415   -1.3589132945   -1.4694522835
 C    1.3816749854   -0.6072223026   -0.2701341099
 H    0.6942920443    1.8432252588    0.9737525794
 H    0.3896025736    2.0145281333   -0.7491073851
 H   -0.9751337437    1.9109866367    0.3824175326
 H   -2.0400181982   -0.1931785417    0.2595289433
 H   -0.6239234538   -2.6612659042    0.8238033785
 H   -2.9276663888   -2.3116597981    0.8495774580
 H   -0.8803117144   -3.8196607907   -1.3811209735
 H   -1.0384796468   -2.2428887669   -2.1679238809
 H    1.3760174812   -3.1959692529   -0.5209366692
 H    1.2818283285   -3.1827183041   -2.2897782864
 H    2.1369254679    0.1779107617   -0.3765056792
 H    1.6878867582   -1.2364502675    0.5846501363