19

 O   -0.1932970674    1.4480161644    0.1134362145
 C    0.0262386464    0.0455250396    0.0149001609
 C    0.9207639378   -0.4531045716    1.1704909407
 C    1.4100335148   -1.8686279787    0.9877247157
 C    0.6181192020   -2.9397281681    0.9359563891
 C   -0.8896182896   -2.8892751502    1.0619370276
 C   -1.4870908597   -2.0778108128   -0.0918038677
 O   -2.0299874097   -2.6180193632   -1.0259309279
 C   -1.3869039239   -0.5607673653    0.0059141200
 H    0.6558918038    1.8913994493    0.0184772173
 H    0.5204784655   -0.1989409438   -0.9381099253
 H    1.7800787382    0.2227840721    1.2448237911
 H    0.3618419728   -0.3416554408    2.1103429986
 H    2.4808772952   -2.0078556204    0.8658199123
 H    1.0552053406   -3.9185502602    0.7627570460
 H   -1.3180421808   -3.8916924715    1.0216079172
 H   -1.1756334350   -2.4253876597    2.0153658817
 H   -1.8779136369   -0.2435819423    0.9365110357
 H   -1.9433573841   -0.1351758167   -0.8315239775