18

 C   -0.0826457891    1.5200375560    0.1178365552
 C   -0.0138909425    0.0352698239   -0.0273450154
 C   -0.0020665937   -0.7778299728   -1.1389877761
 C   -0.0578107033   -0.3738906961   -2.5794279013
 C    0.0760374206   -2.1386680616   -0.6683632168
 C    0.1084083875   -2.0940915962    0.7125850896
 N    0.0537895373   -0.7826665861    1.0845597444
 C    0.1124309375   -3.2988359410   -1.4745810902
 C    0.1420262726   -4.2712429918   -2.1868789875
 H    0.7958604078    1.9248541940    0.6362369409
 H   -0.1301799834    1.9966110896   -0.8630797150
 H   -0.9696333886    1.8388272863    0.6799903152
 H    0.8254433848   -0.7225622005   -3.1266667276
 H   -0.9297803730   -0.8072064846   -3.0825125002
 H   -0.1130832971    0.7118738452   -2.6949374014
 H    0.1653343554   -2.8904939237    1.4359987187
 H    0.0615658460   -0.4543411596    2.0345882283
 H    0.1684746913   -5.1319248409   -2.8069822210