21

 C   -0.1284116338   -0.2393865662   -2.7803357875
 C   -0.0367413707   -0.5273908937   -1.2725315206
 C    0.6536327062    0.6171046645   -0.5164466914
 C   -1.4129317037   -0.8481075793   -0.6972907510
 C   -2.4688502119    0.2397970641   -0.7179835933
 O   -1.9008814426   -2.1477636135   -1.0272285963
 C   -1.5720901987   -1.9209349200    0.3386893819
 C   -0.4226628826   -2.6661530131    0.9349671817
 O    0.4336708073   -3.2502597620    0.3201142709
 H    0.8755096113   -0.1506890436   -3.2067350116
 H   -0.6458030491   -1.0503809030   -3.3008459563
 H   -0.6562862104    0.6973539907   -2.9894758706
 H    0.5615146190   -1.4341964837   -1.1524527505
 H    0.7242114773    0.4088146365    0.5566246126
 H    1.6705546567    0.7597971451   -0.8942568712
 H    0.1219283233    1.5666712480   -0.6406949932
 H   -2.6294113409    0.5999996091   -1.7384297261
 H   -3.4193985395   -0.1463959948   -0.3432828491
 H   -2.1713095925    1.0934497773   -0.1020961176
 H   -2.4266001310   -1.8303343857    1.0128743674
 H   -0.4144911739   -2.6314151567    2.0486224018