13

 C    0.0746492880    1.5107323312   -0.1453674087
 N    0.0452854208    0.0697448685   -0.2821701631
 C   -1.0302877560   -0.5738067745   -0.1296418679
 O   -1.0593334514   -1.9480674256   -0.2576063965
 C    0.0921403017   -2.6588592946   -0.0121759284
 O    0.1487754784   -3.8238504729   -0.2458665356
 C   -2.3389646092   -0.0601336993    0.1498211168
 C   -3.4273109004    0.3961132837    0.3798957189
 H    0.7790410314    1.7752330383    0.6508950528
 H    0.4683446597    1.9409647806   -1.0724229197
 H   -0.8991379447    1.9638747266    0.0750654926
 H    0.8854987968   -2.0359011150    0.4201611165
 H   -4.3940075852    0.7883204331    0.5842922221