23

 C   -0.0228848606    1.5438270394   -0.0403150288
 C    0.0316391715    0.0179501413    0.0427002401
 C    0.7928580494   -0.6341769157   -1.1320495671
 O    1.3463784524   -1.8521498149   -0.6479126303
 C    1.5353962956   -1.7320812021    0.7475894411
 C    1.6831566493   -3.0769290828    1.3992071432
 C    2.2694515637   -0.5001975506    1.2295947889
 C    0.7436971271   -0.5601054580    1.2675607829
 C    0.0133629253   -0.5422941079    2.5883532673
 H    0.9836897282    1.9746575956   -0.0088460694
 H   -0.5011051447    1.8738882451   -0.9690872198
 H   -0.5944599950    1.9674029002    0.7915655774
 H   -0.9957159661   -0.3714991381    0.0585538418
 H    0.1514139723   -0.8697021442   -1.9863968915
 H    1.5900218470    0.0361710410   -1.4894670467
 H    2.5675210622   -3.5941377326    1.0128577248
 H    1.7961431446   -2.9775610832    2.4818435030
 H    0.8089336751   -3.7032444574    1.1944583646
 H    2.7819835287   -0.5705586081    2.1840457029
 H    2.7704086780    0.1372205042    0.5084044330
 H   -0.1355120333    0.4833422619    2.9467022304
 H   -0.9750974879   -1.0096844371    2.5034359908
 H    0.5701379473   -1.0771472259    3.3637908515