19

 C    0.0067217941    1.4280560957   -0.0338511795
 O   -0.0058664825    0.0208721406    0.0138691144
 C    0.6285647950   -0.5677546566   -1.0965032407
 C    0.5782844910   -2.0541339396   -0.9812157263
 C    0.0355379954   -2.8026709122   -0.0125936648
 C    0.1847232810   -4.2853194191   -0.2484861041
 C    0.9453909745   -4.3803736370   -1.5858474829
 C    1.1775652016   -2.9261537383   -2.0198038546
 O    1.7445232852   -2.5558201033   -3.0241022958
 H    1.0332790993    1.8268671362   -0.0446422516
 H   -0.5185416683    1.8109739583   -0.9229318808
 H   -0.5039108399    1.7894101806    0.8618266748
 H    0.1492118532   -0.2551217953   -2.0410325195
 H    1.6801957586   -0.2397607066   -1.1746253244
 H   -0.4643042110   -2.3988431759    0.8599222815
 H    0.7263442791   -4.7607279233    0.5784410853
 H   -0.7954154329   -4.7763348940   -0.2859659180
 H    1.9094083585   -4.8898286915   -1.4973418697
 H    0.3833558580   -4.9048124688   -2.3641810834