16

 O    0.4033263317    1.3627276623   -0.1490368503
 C    0.1285439376    0.0162103382   -0.1111810479
 C    0.3899120870   -0.7873615975   -1.4004319514
 C   -0.7695386519   -1.7486368832   -1.0629161983
 N   -0.3381204807   -2.7321857208   -0.0172006182
 C   -0.6698572018   -1.7420505912    1.0509956787
 C   -1.3094460246   -0.7520713184    0.0124745482
 C    0.4431931112   -0.6963644959    1.2003011359
 O    1.0168376794   -0.2464703354    2.1580681429
 H    0.6749642673    1.6214739740    0.7436781392
 H    0.1216871817   -0.1491543635   -2.2483136150
 H    1.3825864495   -1.2159170471   -1.5553939238
 H   -1.3486664983   -2.1636306209   -1.8875468105
 H   -1.0168154974   -3.4870232733    0.0285207205
 H   -1.1253717312   -2.1198245543    1.9657780562
 H   -2.2769543597   -0.2645022329    0.0879422435