21

 C   -0.1585844332    1.5805742005   -0.0379019332
 C    0.0697757834    0.0722209551   -0.0293897465
 C    0.7632172222   -0.5964154048   -1.2196566568
 C    2.2706380503   -0.4680971255   -1.0762285851
 O    2.8114716070    0.5743332560   -0.2879049731
 C    2.3733593347    0.3319556722    1.0572522342
 C    1.1576883315   -0.5774678269    0.9028630089
 C    1.5714641912   -1.5093034840   -0.2783943932
 C    1.8039003777   -2.9894821787   -0.2504160886
 H    0.7621359436    2.1221858588   -0.2670896948
 H   -0.9002398788    1.8462286563   -0.7996945027
 H   -0.5412237705    1.9326315806    0.9272629077
 H   -0.8800640590   -0.4414451408    0.1563448035
 H    0.3042290025   -0.8422568240   -2.1727242174
 H    2.8930913308   -0.7286622501   -1.9248148400
 H    3.1721567414   -0.1572537373    1.6367086454
 H    2.1467709388    1.2964647878    1.5226948628
 H    0.8065919859   -1.0299128363    1.8308542342
 H    0.9163212403   -3.5316163132    0.0963520025
 H    2.0515235177   -3.3666298390   -1.2482628879
 H    2.6343336025   -3.2515113369    0.4162861701