20

 C   -0.0806208017    1.5537298783   -0.1514076711
 C    0.0528429841    0.0391615266    0.0101508237
 N    0.7594839581   -0.5649885269   -1.1353823611
 C    1.6232689874   -1.3647443013   -0.6625680653
 C    2.5547157632   -2.2316132177   -1.4383526704
 O    1.7296718171   -1.4795278492    0.6960547079
 C    0.8427589924   -0.4682840338    1.2558840116
 C    1.7256045150    0.5304904071    1.9975779405
 O    2.4639139974   -0.1076177350    3.0208797075
 H    0.8954746087    2.0413756731   -0.2197457476
 H   -0.6248260018    1.7694482534   -1.0741669408
 H   -0.6345827904    1.9953445343    0.6830575629
 H   -0.9599132222   -0.3844725735    0.0315734638
 H    2.3971090263   -2.0772073896   -2.5050649959
 H    3.5935125181   -2.0011597610   -1.1816664773
 H    2.3848150179   -3.2842916923   -1.1908465626
 H    0.2023416279   -0.9772468988    1.9816100654
 H    2.3892628724    1.0406325217    1.2822031906
 H    1.1065904436    1.2926230211    2.4811791801
 H    2.9204608765   -0.8470287265    2.6028578981