15

 C   -0.0535136752    1.6465314861    0.0647311009
 C    1.4416112820    1.9511005601   -0.0267813334
 C    2.0872182665    0.8120142779    0.2980125092
 C    2.3632713247   -0.2631828914   -0.7174176637
 C    1.6748636953   -1.3118114790    0.0506802473
 C    1.1640854788   -0.2249429650    1.0244658981
 C    0.0242339336    0.0871022037    0.0642228625
 N    0.8653753842   -0.6503287865   -1.0286912450
 H   -0.6030335132    1.9777784209    0.9576366584
 H   -0.5568342158    2.0899202808   -0.8018354180
 H    1.8189936400    2.6634522791   -0.7538998863
 H    3.0217294505   -0.3170147393   -1.5745153311
 H    1.8109641908   -2.3828132030    0.1244917112
 H    1.0971961196   -0.2580583361    2.1109292886
 H   -0.9272785518   -0.4456386883    0.1383890713