21

 C   -1.1217014664    1.0585776819   -1.0339447116
 C   -0.3512396921   -0.1114250678   -0.4605689707
 C    1.1389836392   -0.2500821130   -0.5550878205
 C    2.0334098289    0.7650375711   -1.2338951041
 N    0.4887136924   -0.0110371726    0.7389038684
 C    0.6485296643    1.2404025673    1.4218387147
 C   -0.0148807499    1.3527845357    2.7700519319
 C    1.4853986454    1.2134958398    2.6745515857
 H   -0.5305564613    1.9725271584   -1.1147140989
 H   -1.4834693413    0.8091147488   -2.0372817222
 H   -1.9967210679    1.2832553333   -0.4141609057
 H   -0.9276501352   -1.0371854637   -0.4811438557
 H    1.5282648619   -1.2656932238   -0.6368704425
 H    1.6149220960    1.7729404329   -1.2506282020
 H    3.0053653021    0.8178385102   -0.7311061788
 H    2.2147455755    0.4651068225   -2.2716513980
 H    0.6964731161    2.1572209807    0.8358387891
 H   -0.4316842268    2.3106313103    3.0609337192
 H   -0.5733649337    0.4871867696    3.1062678677
 H    1.9137657772    0.2565191429    2.9481866966
 H    2.1037544056    2.0754424056    2.8993186975