19

 C   -0.0139621802    1.5298042588   -0.0251664478
 C   -0.0009933990   -0.0096255646    0.0086229035
 C    0.8406653198   -0.6037850577   -1.1705299323
 O    1.4143878998   -1.8185878740   -0.7130002836
 C    1.5592606224   -1.7320295222    0.6811325394
 C    2.2392431273   -0.5172955964    1.2592458161
 C    0.7218456239   -0.6141538131    1.2226709968
 C   -1.3719003394   -0.5249923064   -0.0270273054
 C   -2.5018062221   -0.9349695414   -0.0536149749
 H    1.0039256134    1.9208115962    0.0620299734
 H   -0.4493133774    1.8951084906   -0.9603640788
 H   -0.6095216273    1.9288526488    0.7998426383
 H    0.2360825149   -0.8204837837   -2.0534511254
 H    1.6225626900    0.1157890235   -1.4530781711
 H    1.6537279802   -2.7080534723    1.1407421599
 H    2.7081590818   -0.6242563372    2.2314081082
 H    2.7529170309    0.1672203151    0.5928628338
 H    0.1673521689   -0.6985854638    2.1487754204
 H   -3.4972364781   -1.3038177500   -0.0806419905