16

 O   -0.0315714716   -0.1474386086   -0.1123881401
 C   -0.0126936663    1.0630066899    0.0627292336
 C   -1.3194945912    1.7493106958    0.2796854379
 C   -1.6047827040    3.0528643249    0.2990159250
 C   -0.7147715456    4.2035329831    0.0252192729
 C    0.0631682874    4.9262581186    1.0966840481
 N    0.7289792970    4.1681406824    0.0419309495
 C    1.5445309726    3.0727118825    0.2770987625
 C    1.2796569163    1.7590934168    0.1736822126
 H   -2.1238210247    1.0339729538    0.4264433788
 H   -2.6424115561    3.3430063740    0.4603774620
 H   -1.0986395917    4.8440761662   -0.7711721943
 H    0.1717258930    6.0066584078    1.0593181325
 H    0.0515308111    4.4847042444    2.0898345572
 H    2.5676115133    3.3791729647    0.4894505502
 H    2.1185915903    1.0731609137    0.2311467017