19

 C   -0.2315791075    1.5202577837   -0.0051891542
 C    0.0476333620    0.0374819831   -0.0043102237
 C   -0.3229498780   -0.7805273718   -1.3128380029
 C   -0.3556215941   -1.8635182977   -0.2691238902
 N    0.6487439220   -2.6389834111   -0.1393459975
 C    1.3408797921   -2.1140902130    1.0567616610
 C    0.7023420928   -0.7166229547    1.2048129328
 C    1.0421465565    0.0490349209    2.4607504603
 N   -0.7062089390   -0.9366784316    0.8522005588
 H    0.4856110997    2.0362335140   -0.6529767187
 H   -1.2374703725    1.7134763156   -0.3932610572
 H   -0.1644408031    1.9627233820    0.9895778432
 H   -1.2754200089   -0.3858622682   -1.6788390703
 H    0.3959461391   -0.9275290529   -2.1177200563
 H    1.1799812171   -2.6873496948    1.9829393462
 H    2.4161832584   -2.1146902831    0.8480094761
 H    2.0623965417    0.4441195284    2.4077874357
 H    0.3602109325    0.8788645590    2.6488604007
 H    0.9880645492   -0.6233049579    3.3238291363