18

 C    0.0872880558    1.6403306742   -0.2589189823
 C    0.0449099375    0.1396071273   -0.0724534324
 C    1.3321744027   -0.6974007204   -0.0368497743
 O    2.5823576085   -0.0740931439   -0.0500211327
 C    0.5291008788   -0.4903764855    1.1933804518
 C    0.9491314154    0.1086517410    2.5278210598
 C    0.1844192676   -1.0727552731    3.0949978978
 N   -0.0716116130   -1.4984029968    4.2445175136
 O   -0.1740036073   -1.5715193991    1.8507962353
 H    1.0092812133    2.0588376484    0.1530128934
 H    0.0458256683    1.9042731551   -1.3212438450
 H   -0.7600564100    2.1259249377    0.2358347980
 H   -0.7946181160   -0.3717569794   -0.5377732717
 H    1.2878367496   -1.6840396678   -0.4980434566
 H    2.7772641565    0.1942653821   -0.9545009135
 H    2.0215741517    0.1063561164    2.7266309912
 H    0.5282579422    1.0848757980    2.7749514896
 H   -0.6326096114   -2.3512466540    4.2077314279