20

 C   -0.0438086525    1.7317011175    0.4934670153
 C    0.0038184574    0.2836668958   -0.0250752523
 C   -1.3473855863   -0.3342187576   -0.1638212344
 C   -2.0687995455   -0.8034362503   -1.2247084061
 C   -1.6936655342   -0.8832644720   -2.6747851130
 C   -1.3866383844   -2.3146539295   -3.1474813924
 C   -3.2826703901   -1.2330901165   -0.6116917201
 N   -3.2964832463   -1.0418397687    0.6822310488
 O   -2.0618018513   -0.4686665388    0.9734335168
 H    0.9678050480    2.1342716906    0.5973282919
 H   -0.6002273919    2.3756826835   -0.1940090506
 H   -0.5340247639    1.7765852504    1.4691040780
 H    0.5018735498    0.2462285211   -0.9986659303
 H    0.6054679099   -0.3280007532    0.6586256825
 H   -2.5066398638   -0.4700849656   -3.2846241917
 H   -0.8238044087   -0.2441513371   -2.8622017350
 H   -1.1308109548   -2.3275421365   -4.2115054469
 H   -0.5477750905   -2.7399164050   -2.5880785282
 H   -2.2490634268   -2.9724977962   -3.0001398021
 H   -4.1507888441   -1.6744830722   -1.0831943703