18

 C   -0.1944462803    1.5405685892   -0.0239246860
 C    0.0523106139    0.0301559907   -0.0241033538
 N    0.7508666100   -0.4314317957    1.1653145766
 C    2.1144759319   -0.7482463335    1.2844533059
 N    2.9507798534   -0.6727977444    0.1522941108
 C    2.2803449243   -1.1430942621    2.5816279425
 N    1.0816506216   -1.0837715147    3.2763418568
 C    0.2220819194   -0.6513887637    2.3943725187
 O   -1.0901908858   -0.4175990984    2.6029556532
 H    0.7500527657    2.0912789774    0.0196338343
 H   -0.7213964281    1.8362228335   -0.9365325016
 H   -0.8043457718    1.8326728213    0.8351084271
 H   -0.8982388202   -0.5077907102   -0.0888808673
 H    0.6708622933   -0.2621833731   -0.8757917778
 H    3.5063917777    0.1766189439    0.1281443379
 H    3.5854860245   -1.4604763534    0.1084931624
 H    3.1897826964   -1.4736657397    3.0603478729
 H   -1.2540250158   -0.6472040171    3.5264073373