17

 N   -0.0033163893    1.3392803365   -0.1197126559
 C    0.0319799990   -0.0170425138    0.1781523499
 O    0.9233302930   -0.5238829695    0.8351047915
 N   -1.0149843045   -0.7317209371   -0.3573314726
 C   -1.0500427503   -2.1735275098   -0.2828676060
 C   -2.4865419748   -2.6450814747   -0.0013368173
 O   -3.3602595613   -2.1667090004   -0.9919383753
 C   -2.5507222842   -4.1553767180    0.0774668323
 O   -3.2598042279   -4.7964598466   -0.6604111403
 H    0.6244001715    1.8760493397    0.4592079735
 H   -0.9057516360    1.7695918134   -0.2563183903
 H   -1.6103681784   -0.3084775989   -1.0511777443
 H   -0.7058906779   -2.6334644784   -1.2206038508
 H   -0.3651834289   -2.4715203525    0.5148079505
 H   -2.7815182232   -2.2520710994    0.9872841502
 H   -3.7643026299   -2.9555234240   -1.3878551427
 H   -1.9121341970   -4.6397088964    0.8431920276