21

 C   -0.2106690767    1.5430884375   -0.0398975016
 C    0.0502183325    0.0393960136   -0.0097915183
 C    0.8167489691   -0.5024764907   -1.2418334385
 O    2.0184274422    0.2774753490   -1.4621830705
 C    2.6953089182   -0.5477001428   -0.4818908534
 C    2.3979088945   -0.0121581895    0.9330338156
 C    0.9427300752   -0.5051829198    1.1448515875
 C    1.0802880014   -1.9871734634    0.7287934297
 C    1.6447376226   -1.6883131390   -0.6597238459
 H    0.7132927749    2.1022385893   -0.2021640101
 H   -0.8972947342    1.8018987216   -0.8535934363
 H   -0.6647336069    1.8825203233    0.8970451004
 H   -0.9137930951   -0.4855334160    0.0435523102
 H    0.2232160531   -0.6067376890   -2.1534277669
 H    3.7494836693   -0.6965497907   -0.7250786956
 H    3.0638226555   -0.4669782121    1.6756912979
 H    2.5244348218    1.0719525216    0.9804356549
 H    0.5420407466   -0.3206618019    2.1436950792
 H    1.7745389053   -2.5517323792    1.3596501736
 H    0.1237096657   -2.5184484643    0.7015547175
 H    1.8988051451   -2.5062452675   -1.3306286698