20

 C   -0.3285572260    1.5823240048    0.0420645757
 C   -0.0457775811    0.0856775700    0.0233352140
 C    0.6881862582   -0.5656160881   -1.1960330561
 C    1.4790561865    0.2897530205   -2.2157063512
 C    2.9205844333    0.3747629653   -1.6504551986
 C    3.0688945735   -0.8839631804   -0.7614439650
 N    1.7155736866   -1.0914801399   -0.2521846801
 C    1.1994184125   -0.3575483182    0.8237734387
 O    1.6578131358   -0.1138656103    1.9066726336
 H    0.5592183139    2.1699084444   -0.2115142099
 H   -1.1238835012    1.8442593421   -0.6630387220
 H   -0.6461202325    1.8870687619    1.0433093084
 H   -0.9461110972   -0.4706817824    0.3019499951
 H    0.1150175556   -1.3534950516   -1.6911181056
 H    1.4795130306   -0.2180838342   -3.1849576746
 H    1.0381180431    1.2767804408   -2.3743600411
 H    3.6756709168    0.4316975784   -2.4385653606
 H    3.0313986416    1.2660194872   -1.0235973006
 H    3.3910578102   -1.7559829518   -1.3411808099
 H    3.7586565097   -0.7490919185    0.0742717799