19

 C   -0.1123451879    1.5005799639    0.0076388968
 C    0.0240151742    0.0039743304    0.0607070394
 O   -1.2512851821   -0.7056250568    0.0100480496
 C   -0.9437858376   -1.4322728487    1.2275713316
 C    0.4698009088   -0.8219725781    1.2893728187
 C    1.5932146555   -1.4549841298    0.4414367650
 C    1.0633915886   -2.1186309991   -0.8166015164
 C    1.1758046702   -0.6290237070   -0.7769950858
 O    1.9822140499    0.0986863094   -1.6354881330
 H    0.8660248541    1.9793440005    0.1052943343
 H   -0.5382390770    1.8057006869   -0.9545984928
 H   -0.7720266690    1.8582924135    0.8029786010
 H   -1.6025557513   -1.1223571970    2.0478848241
 H   -1.0195694054   -2.5181098672    1.0980261347
 H    0.7899956397   -0.3454307784    2.2151392075
 H    2.5861898125   -1.6838113791    0.8076847867
 H    1.8405946683   -2.5973973772   -1.4047212715
 H    0.0959392661   -2.6074296916   -0.8526797713
 H    1.6803140224   -0.0533323345   -2.5378676087