23

 O   -0.2269222220    1.6276127950    0.0410148600
 C    0.0267582214    0.2366676163    0.0038085092
 C   -1.3458964862   -0.4407546288    0.0490431873
 C   -2.2477088736   -0.0922328303   -1.1170574810
 C   -2.3293884351   -0.9789509709   -2.3371521887
 C   -3.4923365755   -0.9003489428   -1.3790776090
 C    0.9801583168   -0.2925097228   -1.1125487483
 C    1.6442604339   -1.2183304384   -0.0584301884
 C    1.0182703997   -0.3421297842    1.0597606166
 H    0.6147091237    2.0869660808   -0.0408453180
 H   -1.2121658004   -1.5281376605    0.1045920780
 H   -1.8232681355   -0.1341041082    0.9892093005
 H   -2.3258801701    0.9743158791   -1.2998606088
 H   -2.4289930617   -0.5141725363   -3.3120850645
 H   -1.7464125841   -1.8947160377   -2.3426804103
 H   -3.6816649214   -1.7607150532   -0.7445736926
 H   -4.3896782972   -0.3804009455   -1.6961955672
 H    0.5285501031   -0.7423020285   -1.9984030284
 H    1.6647789941    0.4991809985   -1.4374318901
 H    1.2277968886   -2.2287165930   -0.0745542762
 H    2.7328562893   -1.2972587074   -0.0793407258
 H    1.7109494907    0.4332524515    1.4040497283
 H    0.5906417816   -0.8387002727    1.9353351073