19

 C   -0.0596027495    1.5553194107    0.0491947887
 C    0.1089100937    0.0693244488   -0.0025583754
 N   -0.8220297116   -0.8574691308    0.7028971648
 C    0.6375894613   -0.9128649336    0.9875658409
 C    1.2599898752   -1.7778711692   -0.1166908007
 C    0.6983925247   -0.7583810354   -1.1384215046
 C    0.1222537239   -1.0041464637   -2.4967489767
 C    1.4153817556   -0.2293156474   -2.3440559674
 H    0.8486984673    2.0674424663   -0.2853160139
 H   -0.8865134928    1.8874857856   -0.5904742965
 H   -0.2760934836    1.8887698946    1.0700317922
 H   -1.2440351783   -0.3203333881    1.4622796155
 H    1.0106896158   -0.7533498732    1.9923738790
 H    2.3531195178   -1.7902499158   -0.0898565100
 H    0.8763226489   -2.7999841174   -0.1783332175
 H    0.1746312502   -2.0116105988   -2.8965785382
 H   -0.7715581503   -0.4591290733   -2.7827987083
 H    1.3924499981    0.8397661428   -2.5324730556
 H    2.3429429538   -0.7101579920   -2.6393014360