15

 N    0.1224719676    1.2785208519    0.3767521387
 C    0.0530968795   -0.0620057795    0.0676101829
 N   -1.0461919749   -0.7556090948   -0.0452618786
 O   -0.6337470549   -2.0546410566   -0.2961753033
 N    0.7311044636   -2.1449446461   -0.3390091278
 C    1.1744698958   -0.9385460468   -0.1195096084
 N    2.5057035269   -0.5357928045   -0.1433777038
 C    3.2445133920   -0.4975660183    1.1342992070
 C    3.5368170936   -1.5390271961    0.1129039852
 H    0.9173915377    1.7433928053   -0.0403404263
 H   -0.7425065717    1.7792720344    0.2273172299
 H    3.9046982967    0.3551070380    1.2541731422
 H    2.7091528762   -0.8059680830    2.0276754220
 H    3.2015652899   -2.5519121127    0.3115245507
 H    4.4190980120   -1.4509953712   -0.5125376304