12

 C   -0.0392265015    1.4465373735    0.0102086394
 C    0.0100663599   -0.0052306257    0.0022326981
 C    0.0538374930   -1.2087702471   -0.0043277791
 C    0.0754259295   -2.6205015276   -0.0118282293
 N    1.1924832622   -3.3554773108   -0.0223053285
 N    0.6880284309   -4.5778128816   -0.0256134242
 N   -0.6374566081   -4.6396074529   -0.0180370576
 N   -1.0486489817   -3.4035519474   -0.0091674647
 H    0.9690397666    1.8735159805    0.0026946596
 H   -0.5729690377    1.8264562966   -0.8676353948
 H   -0.5558999687    1.8173525389    0.9020525075
 H    1.2658754355   -5.4054000564   -0.0333387866