17

 C   -0.4431220393    0.5384426091    1.3583648368
 N    0.1431318662    0.4114404821    0.0267028886
 C    1.2904235043   -0.4788035351   -0.0370106001
 C    1.0277863630   -1.9151665828    0.3376637197
 N    1.7280836263   -2.6918439796    1.1083984025
 C    1.0102510326   -3.8691864843    1.0545156709
 N    1.3831004568   -4.9617464155    1.7916135965
 N   -0.0660225393   -3.8339088338    0.3015647536
 O   -0.0538129981   -2.5021658037   -0.1790464121
 H    0.2970503066    0.9755843584    2.0376442125
 H   -1.2951750693    1.2218000496    1.3089881554
 H   -0.7890307498   -0.4099726792    1.8008663272
 H   -0.5625798442    0.0996060179   -0.6316968959
 H    1.6909802157   -0.4582049639   -1.0580504743
 H    2.0798453027   -0.1141662135    0.6270087201
 H    2.3687619243   -5.0010391732    2.0001197798
 H    0.9864236315   -5.8385382625    1.4894759086