19

 O   -0.1307168779    1.4099078625   -0.0179427924
 C   -0.0291728086    0.0215106097    0.0201911358
 C    0.3097290969   -0.7857017920    1.3167708737
 C   -0.4071843544   -1.9176656214    0.5343334873
 C   -1.3316255531   -0.8113519751   -0.0472352333
 C    0.5659844518   -2.1689503608   -0.6572940548
 C    0.8593643427   -0.6700760515   -1.0362802019
 C    1.7421820581   -2.9512406051   -0.3113385919
 C    2.7130147231   -3.5960016000   -0.0135909224
 H    0.7583046189    1.7803501098   -0.0398267974
 H    1.3581514167   -0.9334985110    1.5889549955
 H   -0.2695926221   -0.4345342335    2.1727813770
 H   -0.8028473928   -2.8016077498    1.0300180676
 H   -2.0745716387   -0.4655828172    0.6739428311
 H   -1.7923375578   -0.9731590333   -1.0264304256
 H    0.0347493057   -2.6716725913   -1.4729856692
 H    0.5495927793   -0.4266956689   -2.0558883381
 H    1.9176372623   -0.4183319454   -0.9225188880
 H    3.5680859000   -4.1705905456    0.2433793771