18

 C   -0.2614238628    1.5874755829    0.2503477501
 C   -0.0639315268    0.1082553774    0.0984194443
 C    0.1359734243   -0.5894460796   -1.0786876126
 N    0.3127569176   -1.9161979990   -0.7635761320
 C    0.2084602895   -2.0881126907    0.5901979740
 C   -0.0125209904   -0.8526682740    1.1522082701
 C    0.2084921077   -0.1544529657   -2.4834148088
 C    1.3367308693   -0.4985010135   -3.3718871511
 O    0.0951333045   -1.2027912022   -3.4631724118
 H    0.6520529167    2.0936737647    0.5869287622
 H   -0.5602502605    2.0574643752   -0.6919246075
 H   -1.0397116081    1.8082643048    0.9885795569
 H    0.3486960380   -2.6372466982   -1.4646378528
 H    0.2878664545   -3.0667257950    1.0356610696
 H   -0.1278437755   -0.6478175362    2.2063173849
 H   -0.3530516347    0.7475450102   -2.7242201130
 H    1.5729284884    0.1393260468   -4.2228981470
 H    2.1703374282   -1.0704641379   -2.9676904954