20

 C   -0.0313834142    1.4902939663   -0.0031313478
 C   -0.0057086416   -0.0140500648   -0.0069971937
 C    0.6170462162   -0.9645725285   -1.0732666068
 C    0.0185379924   -1.9271015923   -0.0038984148
 C    0.0309089327   -3.4315933404    0.0048939600
 C    0.6302828990   -0.9609402099    1.0614323950
 C   -1.2297379175   -0.9862819976   -0.0310789857
 O   -2.1821917009   -0.9967322127    0.9978960107
 H    0.9784439420    1.9092319483    0.0659883308
 H   -0.4943977372    1.8768174947   -0.9176910972
 H   -0.6111144096    1.8665015608    0.8471749601
 H    0.1486872768   -0.9721256297   -2.0630511118
 H    1.7075927596   -0.9508501398   -1.1478616450
 H    1.0509025629   -3.8246545811    0.0766809179
 H   -0.5402865870   -3.8195183422    0.8557130349
 H   -0.4209533916   -3.8326956639   -0.9089649853
 H    1.7222713084   -0.9469990233    1.1308403515
 H    0.2017464153   -0.9647277029    2.0707150019
 H   -1.8042000105   -0.9950620298   -0.9629451761
 H   -1.7309735553   -0.9894603912    1.8481396115