21

 C    2.2937516539    0.1279267162    0.5312361500
 C    1.9992522708   -1.3740873098    0.4608658400
 C    1.7362303923   -1.7964993910   -0.9789647763
 O    1.1715500274   -3.0920051702   -1.2135836090
 C    0.4011146891   -1.9406646656   -1.5874196342
 C   -0.9089819867   -1.7180159969   -0.8777448127
 C    3.1852594592   -2.2074715503    0.9796051850
 C    2.8486277295   -3.5858110687    1.5074955736
 O    4.3163921784   -1.7815433997    0.9363021625
 H    3.2081841513    0.3629666834   -0.0183680189
 H    1.4673189038    0.7075966808    0.1097845073
 H    2.4446843027    0.4450805486    1.5665963536
 H    1.1187568618   -1.6238686241    1.0609768578
 H    2.5638993593   -1.5542709398   -1.6498154338
 H    0.3512853839   -1.7956360973   -2.6688522297
 H   -0.8220328311   -1.8563986701    0.2016592964
 H   -1.2798376676   -0.7060545772   -1.0731023158
 H   -1.6587715842   -2.4249505762   -1.2478500632
 H    2.2811302531   -3.4897376125    2.4415272612
 H    2.2034513320   -4.1110467312    0.7961608931
 H    3.7618230312   -4.1512538083    1.6971454031