22

 C   -1.8797803583    1.2910742086    2.0644045390
 C   -1.7889960652   -0.2120993986    1.7909342518
 C   -1.9236844957   -0.5585362226    0.3013258777
 C   -1.7575056846   -2.0439892020    0.0549486353
 C   -2.9340895589   -2.9909685694    0.0551117198
 C   -4.2695442894   -2.4878452261    0.2232562418
 C   -5.4005969996   -2.1003894157    0.3647487811
 N   -2.1518612499   -2.7254367569   -1.1691207664
 C   -2.7657289830   -1.9834138667   -2.2633766560
 H   -1.7785668253    1.5078974091    3.1323156343
 H   -1.0905712446    1.8387571424    1.5370439991
 H   -2.8417068866    1.6967747643    1.7321662425
 H   -0.8319823524   -0.5964685194    2.1679873063
 H   -2.5726001012   -0.7388772416    2.3487567491
 H   -2.8960029444   -0.2131754464   -0.0613505772
 H   -1.1588746603   -0.0157952073   -0.2711765889
 H   -0.8348649357   -2.4481041270    0.4748087447
 H   -2.7879903557   -3.9944500529    0.4504484842
 H   -6.3982804228   -1.7603954603    0.4939820228
 H   -3.5237811842   -1.2497271340   -1.9615603601
 H   -1.9760861274   -1.4665706918   -2.8173790506
 H   -3.2418014249   -2.6991349556   -2.9404464604