14

 C   -0.1328761674    1.6010731751   -0.2453733352
 C   -0.0418245174    0.0661920075   -0.1713030464
 C    0.7410833831   -0.5199884850   -1.2474422731
 C    1.3944068629   -0.9913341700   -2.1478778886
 C    2.1714117457   -1.5401501119   -3.2203518737
 O    2.3940631098   -2.7221062320   -3.3893602373
 C    2.7630149251   -0.5409739619   -4.2281854416
 O    2.6155134247    0.6484727765   -4.1710832754
 H    0.8609710502    2.0522532297   -0.1927501246
 H   -0.5988567389    1.9179325874   -1.1816039012
 H   -0.7315482410    1.9813667371    0.5867736694
 H    0.3974476713   -0.2418045054    0.7865014648
 H   -1.0470023889   -0.3747174750   -0.1919278599
 H    3.3465401307   -1.0572322919   -5.0195478672