16

 O    0.1068155566    1.4909994215    0.0376954125
 C    0.1178793801    0.0673471538   -0.0647736624
 C   -1.3763277696   -0.3575210504   -0.1195667082
 O   -1.7972881404   -1.3960536075    0.3016719312
 C    0.7269923345   -0.3688485124   -1.3197971398
 C    1.2147194110   -0.7065785564   -2.3659456136
 C    0.8069540136   -0.5755890271    1.1416622911
 C    2.0748407513   -0.0117399002    1.6507932496
 N    0.8236131507    0.1394076181    2.4176557581
 H    0.7634600113    1.8463909065   -0.5691319618
 H   -2.0132023743    0.4129164455   -0.6027871980
 H    1.6536549523   -1.0157420881   -3.2831405331
 H    0.6097585365   -1.6403771298    1.2132717569
 H    2.8180237688   -0.6650572825    2.0977052632
 H    2.4789728655    0.8654753230    1.1519713828
 H    0.4672648220    1.0814278561    2.2646642812