18

 O    0.1644296941    1.3515133996    0.2504747388
 C    0.0860721784   -0.0259926511   -0.0862632580
 C   -1.3226105354   -0.5246753668   -0.1405567863
 N   -2.0743689574   -0.8727925484    1.0900341707
 C   -1.9032300973   -1.8958677524    0.0312846744
 C   -2.9541732986   -1.6028135129   -1.0736225628
 O   -4.2316260448   -1.1102693914   -0.6470794792
 C   -3.7840093088    0.2682306956   -0.7600515048
 C   -2.3786487860   -0.1784807841   -1.2232964204
 H   -0.3317029339    1.4810786511    1.0659487013
 H    0.5594392552   -0.1130133153   -1.0704451496
 H    0.6672234240   -0.6524457312    0.6126057091
 H   -1.3890890150   -1.0961698374    1.8130854317
 H   -1.4215451756   -2.8399065300    0.2601768836
 H   -3.0089235576   -2.3386908494   -1.8800100302
 H   -4.3590445716    0.8034356713   -1.5246238716
 H   -3.8373413923    0.7949328349    0.1960509600
 H   -1.9858113576    0.2037487480   -2.1634562865