23

 C   -0.6870527044    1.1805752477   -0.0493656328
 C    0.1747391423   -0.0708569604   -0.1197982644
 C    1.6086586694    0.0073099114   -0.7057016689
 C    2.0395144580   -1.0704999108    0.3202483261
 C    0.7750538912   -0.7387636758    1.1690248269
 C    1.0432223034    0.1856934598    2.3817632243
 C    0.0093250239   -0.2839435763    3.4099862140
 O   -0.0785853905   -1.6853328216    3.2087293166
 C   -0.0440357949   -1.8894423118    1.8028557120
 H   -0.1605599273    2.0159344082    0.4238151664
 H   -0.9729025706    1.5064893831   -1.0557754336
 H   -1.6111755736    1.0038632581    0.5131933447
 H   -0.3802755437   -0.8508786839   -0.6576135299
 H    1.7372108300   -0.2124299964   -1.7684051696
 H    2.0737524459    0.9755684771   -0.4928902138
 H    1.9887382191   -2.0785187947   -0.1036463619
 H    3.0095449876   -0.9488661999    0.8100791036
 H    2.0503325832    0.0008961176    2.7700887122
 H    0.9649971378    1.2513359028    2.1546423175
 H    0.2995357890   -0.1081036195    4.4492673623
 H   -0.9673260298    0.2002681782    3.2365692026
 H   -1.0684269428   -1.8872856350    1.3924147954
 H    0.3909696767   -2.8770740479    1.6188314805