20

 C   -0.0228840924    1.5187261038    0.0684230198
 C   -0.0684019013   -0.0080489688   -0.0234058648
 C    0.7301728723   -0.5383669226   -1.2205064587
 N    0.7280571243   -1.9854437560   -1.3107480341
 N    1.7568105300   -2.6935278932   -0.7628585608
 C    1.4021944679   -3.9622331959   -0.9135569207
 C    0.1562340091   -4.0997144600   -1.5595367761
 C   -0.2480161666   -2.7973058859   -1.7964063568
 N   -1.4333512320   -2.2787531278   -2.3301771565
 H    1.0047147818    1.8813386946    0.1822885845
 H   -0.4410230894    1.9863839260   -0.8304704952
 H   -0.5988348051    1.8784184748    0.9258638319
 H    0.3428134679   -0.4582524470    0.8866842868
 H   -1.1051314112   -0.3521970249   -0.1087902934
 H    0.3379191890   -0.1172198102   -2.1550370913
 H    1.7793374979   -0.2416561778   -1.1468299886
 H    2.0613402290   -4.7443787626   -0.5646113945
 H   -0.3687392458   -5.0023779198   -1.8276134798
 H   -1.9940040446   -3.0060425385   -2.7540542184
 H   -1.2802682009   -1.5428540782   -3.0104110033