14

 C   -0.0029954427    1.5015083679    0.1008329016
 C   -0.0034045429    0.0175154289   -0.0378020528
 C   -0.0600965041   -0.8108272878   -1.1470749036
 N   -0.0349895482   -2.1216087737   -0.7899965779
 C    0.0368882920   -2.1289511315    0.5314916537
 N    0.0578897116   -0.8416639138    1.0226346181
 C    0.0911575557   -3.2761105070    1.4350448755
 O    0.0783901764   -4.4370023806    1.1052594681
 H    0.9041433186    1.8665993544    0.5965559884
 H   -0.0511916561    1.9648043884   -0.8868504827
 H   -0.8627988098    1.8594213548    0.6793286523
 H   -0.1175423382   -0.5054173390   -2.1820132485
 H    0.1095851247   -0.5797514642    1.9945637521
 H    0.1485182630   -2.9792510870    2.5109277357