21

 C   -0.1262353408    1.5460861800    0.0935885588
 C    0.0467454503    0.0300892161    0.0565312813
 C    0.9802294160   -0.5331013611   -1.0847365879
 O    1.6982430357    0.4457867970   -1.8156995921
 C    1.9669418571   -1.3381784818   -0.2254116865
 C    2.2973580776   -0.3339739494    0.9127359662
 C    0.7949707413   -0.5749709446    1.2625440756
 O    0.2156079891   -0.2356972215    2.4827258123
 C    1.0163978631   -2.0428033975    0.7817299189
 H    0.8327356387    2.0695855019    0.0999776902
 H   -0.6942805924    1.9023047236   -0.7740251733
 H   -0.6802787596    1.8332390920    0.9913498796
 H   -0.9450597664   -0.4324979186   -0.0078424328
 H    0.4223156391   -1.1846651507   -1.7723106646
 H    1.0663969078    0.9821111773   -2.3042727000
 H    2.7477448189   -1.8790701709   -0.7569714110
 H    2.9663942178   -0.7669646185    1.6621930587
 H    2.6286440456    0.6675293376    0.6366080793
 H    0.7527071255   -0.6076035258    3.1894906492
 H    0.1546453401   -2.5965006195    0.3960576991
 H    1.5636034856   -2.6489297757    1.5091530391