19

 C   -0.1959991891    1.3700069169    0.0698889452
 N   -0.1043028632   -0.0777708215    0.0026670855
 C    0.6273616653   -0.7298250646    1.0107058755
 C    0.9177931333   -2.0856564394    1.0465402202
 C    0.5859305509   -3.1995954828    0.1170235080
 O    0.0574097931   -4.3425441732    0.7981347621
 N    1.6347028015   -2.3151831710    2.2067870805
 C    1.7720424303   -1.1578630202    2.9123557608
 C    1.1713306398   -0.1456446897    2.1938936636
 H    0.7802206238    1.8832504736    0.0817765369
 H   -0.7646255753    1.7308256468   -0.7912577874
 H   -0.7390251330    1.6658141597    0.9737510941
 H    0.1554096239   -0.3903523135   -0.9218554104
 H   -0.1095034855   -2.8277733781   -0.6504740230
 H    1.4685997937   -3.5875733919   -0.4086762027
 H   -0.7002153751   -4.0336240133    1.3077354146
 H    1.8938230184   -3.2353364035    2.5176809095
 H    2.2808866183   -1.1373449385    3.8626980394
 H    1.1325349489    0.8928350440    2.4808257575