18

 C   -0.0255961364    1.4666841498   -0.0768948998
 C    0.4348742165    0.0229530552   -0.0307528300
 O    0.1447354710   -0.5749128372   -1.3116773813
 C    0.5365671017   -1.8499623932   -1.4560918053
 C    1.4688461019   -2.4091477590   -2.2771700395
 N    2.3728071711   -1.7389806479   -3.1226442811
 C    1.3914740098   -3.8247700169   -2.0366600888
 C    0.4331730494   -4.0027317849   -1.0915999431
 O   -0.1039936847   -2.8100756036   -0.7178423079
 H    0.5024519354    2.0176352580   -0.8604274804
 H   -1.0985207217    1.5212912758   -0.2809971145
 H    0.1707919950    1.9544500562    0.8824322750
 H    1.5134000178   -0.0520413497    0.1607090882
 H   -0.0898945672   -0.5366914688    0.7522549533
 H    2.1011633429   -0.7694337654   -3.2395288015
 H    2.4248296199   -2.1684590459   -4.0392490186
 H    1.9854593015   -4.5943402324   -2.5052082146
 H    0.0335854060   -4.8724002200   -0.5976592802