17

 O   -0.3363635215    1.2998881037    0.0532771301
 C    0.0296556754   -0.0735246852   -0.0534163732
 C    0.8756984152   -0.3376187309   -1.3191244280
 C    0.1416433404    0.0375525560   -2.5851355166
 C    0.4699450697   -0.6229835055   -3.8703399626
 N   -0.8149109583   -0.9015973106   -3.2010185894
 C    0.7184382299   -0.5451601159    1.1508709567
 C    1.3248030761   -0.8997863092    2.1266519074
 H    0.4425024653    1.7843149816    0.3497040065
 H   -0.9241222488   -0.6059304201   -0.1542586090
 H    1.8076144654    0.2370664100   -1.2329735744
 H    1.1604434933   -1.3969146404   -1.3460920135
 H   -0.2042672260    1.0675630241   -2.6085380753
 H    0.3902858535   -0.0743226125   -4.8045251426
 H    1.2378345682   -1.3932147152   -3.8647691491
 H   -0.7604973048   -1.8040891201   -2.7326194279
 H    1.8394588569   -1.2214655398    2.9984187908