20

 C   -0.0881513086    1.5098710106    0.2292975400
 C    0.1216086762    0.0388059360    0.0495834377
 C    0.3897426137   -0.7038055036   -1.2689325131
 C    1.2394265002   -1.7502550566   -0.4695446542
 C    0.9314301207   -0.9617446910    0.8125238108
 C    1.7955019567   -0.8181391419    2.0369161547
 C    1.6737514540   -2.0195534295    2.9585197338
 O    1.3651899302   -1.9560213752    4.1199551176
 N   -0.5561651111   -0.9593815522    0.9194335756
 H    0.6580146386    2.0863628546   -0.3279685880
 H   -1.0788733991    1.8112604449   -0.1313618591
 H   -0.0183051129    1.7973017245    1.2842754768
 H   -0.5007200985   -1.0821875726   -1.7764553320
 H    0.9944115057   -0.1241272450   -1.9706960310
 H    0.8820077308   -2.7826582070   -0.4838434429
 H    2.2974829083   -1.7244731613   -0.7429003031
 H    2.8481833320   -0.7328749754    1.7304048503
 H    1.5344481368    0.0766529304    2.6116356279
 H    1.8868511813   -2.9987472013    2.4726998462
 H   -0.7882736748   -0.4808857784    1.7917754319