19

 N   -0.0347964361    1.3913924775    0.0565115021
 C    0.0760797722    0.0028696297    0.0070955560
 O    1.1493969261   -0.5700306834    0.0461330886
 N   -1.1340747785   -0.6493546691   -0.0636781253
 C   -1.2166074678   -2.0869741255    0.0331013982
 C   -1.5525327868   -2.7889519294    1.4028896706
 C   -2.7165669140   -3.5071765601    0.7112112543
 C   -3.6898664147   -2.4920384915    0.1919864068
 C   -2.4332980396   -2.7606957701   -0.5977302890
 H    0.8497193627    1.8444923780   -0.1190353939
 H   -0.8067661719    1.8115701362   -0.4403655212
 H   -1.9691694155   -0.1237779831    0.1414242406
 H   -0.2776806688   -2.4752722076   -0.3596269587
 H   -0.7459748829   -3.4436996508    1.7376074491
 H   -1.8329155307   -2.1250686642    2.2275299096
 H   -2.9833835982   -4.5477747194    0.8424611729
 H   -4.5965053722   -2.8863678118   -0.2554022611
 H   -3.8403631193   -1.5561084183    0.7280526126
 H   -2.4822006439   -3.1209710271   -1.6186088423