22

 C   -0.1866359640    1.5254288135   -0.0406533705
 C   -0.0093894129    0.0142881710    0.0748825082
 C    1.0630997856   -0.5860692876   -0.8818504525
 C    2.0654148132   -0.6382039017    0.2990537493
 C    0.8633796524   -0.4385394375    1.2838549033
 C    2.9365807152   -1.8408416830    0.5009846611
 C    3.8400977695   -1.8843402667    1.7062308291
 N    2.8615302875   -2.7811510125   -0.3615960471
 O    3.7223251326   -3.8476523702   -0.0406701156
 H    0.7758383867    2.0483371069    0.0102078853
 H   -0.6571444273    1.7944673831   -0.9928533104
 H   -0.8170415658    1.9138395352    0.7670182193
 H   -0.9883470022   -0.4709065591    0.0210391297
 H    0.8102124965   -1.5889793128   -1.2284276697
 H    1.3510343509    0.0206434293   -1.7445812560
 H    2.7042256108    0.2533957695    0.3177384015
 H    0.9962490369    0.2804942212    2.0971561510
 H    0.5269677013   -1.3895548808    1.7056533700
 H    3.6427262889   -2.7805662748    2.3022555997
 H    4.8881141092   -1.9449489678    1.3941405492
 H    3.7071460553   -1.0005887517    2.3335424754
 H    3.5587659996   -4.4606691235   -0.7646912606