16

 O   -0.1227811552    1.5006693857   -0.1661624092
 C   -0.0007214692    0.1208885068   -0.0582878164
 C    1.0885379127   -0.4716767466   -0.9507132505
 C    2.4061996155    0.0402674656   -0.5701609360
 N    3.4217886902    0.4798181328   -0.2371464396
 C   -0.3319586093   -0.5349671992    1.2503852993
 C   -1.3012862948   -0.6482499465    0.0692598963
 C   -2.5595241758    0.0356019364    0.0891518547
 C   -3.6302314482    0.5816194282    0.0973015130
 H    0.6192305345    1.9072951731    0.2978857635
 H    1.0963376721   -1.5643314265   -0.8866228509
 H    0.8920779431   -0.1987333049   -1.9932921862
 H    0.2019558285   -1.4286159292    1.5543642332
 H   -0.6366600725    0.1228954789    2.0552135571
 H   -1.3184843963   -1.6139046530   -0.4294650035
 H   -4.5692698654    1.0771987484    0.1021346051