20

 C   -0.1284903295    1.5819059932   -0.0737100118
 C   -0.0661951064    0.0436971985    0.0051594869
 C    0.7576781450   -0.4902354994    1.2027058720
 C    2.2275875036   -0.0869323800    1.1726135844
 C    2.6679046596    1.2841869773    1.7440118927
 O    3.6129162111    0.6617257551    2.6332328261
 C    3.1364505282   -0.6536517513    2.2884363470
 C   -1.4223916715   -0.5149800227    0.0487972995
 N   -2.4911766196   -0.9525277227    0.0960409676
 H    0.8742976673    1.9954966563   -0.2056893212
 H   -0.7417338927    1.9023437468   -0.9192842563
 H   -0.5614287822    2.0012587137    0.8388240393
 H    0.3976342608   -0.3305765411   -0.9174466763
 H    0.2950387492   -0.1530733832    2.1384886526
 H    0.6905628294   -1.5845906089    1.2020544314
 H    2.6484774748   -0.2692786210    0.1786307871
 H    3.1532559390    1.9807878931    1.0501996713
 H    1.8816553444    1.8202477026    2.2938457030
 H    2.5906731968   -1.1233459475    3.1191604335
 H    3.9483435730   -1.3196168291    1.9750608410