13

 C   -0.0828715740    1.5670765091    0.0674676979
 C    0.1498916902    0.0963924298   -0.0036978038
 O   -0.7542921340   -0.7985829881    0.6934071032
 C    0.6384165095   -0.9301532040    0.9593922429
 C    1.1882758741   -1.8560283180   -0.1329063789
 C    0.7094358540   -0.7643140616   -1.1419333894
 O    0.8775184324   -0.5847813209   -2.3104380216
 H    0.8007767384    2.1119134265   -0.2779903052
 H   -0.9247560645    1.8522376055   -0.5713379300
 H   -0.3102693086    1.8695571324    1.0928592508
 H    0.9836295133   -0.7835617647    1.9755784820
 H    2.2779035854   -1.9528421588   -0.1640585579
 H    0.7204128238   -2.8403250573   -0.1924742601