22

 C   -0.1729418697    1.5635502484    0.0156048104
 C   -0.0424193544    0.0415011468    0.0266697973
 C   -1.3168473618   -0.6270176724   -0.4852150421
 C    1.2626454926   -0.5048987500   -0.6053432289
 O    1.7137688700   -1.0511417957    0.6543890944
 C    0.5209940848   -0.6028138653    1.3384827745
 C    0.8475370020    0.2698420504    2.5266343615
 C    1.9839885007   -0.0867073451    3.4083876562
 N    2.0640129299    1.0938132851    2.5238801924
 H    0.7143639688    2.0565259659    0.4203563361
 H   -0.3271357533    1.9220097179   -1.0085587405
 H   -1.0338171580    1.8899287820    0.6094213073
 H   -1.5496832692   -0.2992486033   -1.5046260623
 H   -1.2201043398   -1.7175845133   -0.4965429801
 H   -2.1739275551   -0.3718295754    0.1483779524
 H    1.1296644397   -1.2896077536   -1.3603987740
 H    1.9579846805    0.2499983932   -0.9933494919
 H   -0.0817045613   -1.4592697030    1.6756898381
 H   -0.0206450190    0.7548688551    2.9704340534
 H    1.9386089061    0.1329362574    4.4710762523
 H    2.5720691216   -0.9594355209    3.1390375837
 H    2.6124707148    0.8164367857    1.7103913200