18

 C   -0.0265663195    1.4890673410    0.0120926206
 C    1.3929447823    2.0736235165   -0.0025095207
 N    2.2142085770    1.5898190053    1.1090040029
 C    1.9554326503    0.3079694195    1.5832764632
 C    2.5583654796   -0.4554732701    2.5708603704
 C    1.8534028258   -1.6760774104    2.5363901850
 N    0.8992289862   -1.6933562102    1.6122111875
 N    0.9712513248   -0.4590989615    1.0435028365
 C    0.0481411742   -0.0405405693    0.0086242897
 H   -0.5597644132    1.8312998726    0.9063114177
 H   -0.5847842142    1.8332001968   -0.8635744128
 H    1.8788034259    1.8039996196   -0.9511105804
 H    1.3670913051    3.1651616092    0.0411407672
 H    2.3692016415    2.2637742743    1.8430271171
 H    3.3839122766   -0.1697325020    3.2015466346
 H    2.0125179520   -2.5509876956    3.1506986654
 H   -0.9208342291   -0.4991797520    0.2174596751
 H    0.3851351046   -0.4059337138   -0.9708049289