19

 C    0.0471702467    1.4992834402   -0.1001080414
 O    1.4909179466    1.4507677731    0.1454540413
 C    1.2769276632    0.1932397699    0.8443122932
 C    1.8139518485   -1.2142751851    0.6069804842
 C    0.5992028138   -1.9803284375    1.2631294738
 C   -0.6910326515   -1.1131686361    0.8919359368
 C    0.0007313380   -0.0382351926    0.0540941370
 C    0.5702694992   -0.7178105096   -1.2214355039
 O    1.7559385866   -1.4140495310   -0.7941126427
 H   -0.4675429941    2.0520819409    0.6963421581
 H   -0.1864922509    1.9354346184   -1.0750967679
 H    1.1259377922    0.3913599029    1.9137614256
 H    2.7963155294   -1.5155953252    0.9708372446
 H    0.5564201525   -2.9841817897    0.8363904161
 H    0.7150082824   -2.0780122255    2.3460658466
 H   -1.4387631770   -1.7015833628    0.3538629638
 H   -1.1597514033   -0.7055180006    1.7915360886
 H   -0.1482851312   -1.4317575649   -1.6439247294
 H    0.8484106090    0.0012821949   -1.9974317844