15

 C   -0.0236586483    1.5388067067    0.0236351455
 C   -0.0265294801    0.0116309308   -0.0222817838
 N   -1.3802923949   -0.5357620455    0.0012944623
 N   -2.0394351150   -0.7308714694    1.1414377939
 C   -3.2333011128   -1.1648717544    0.7478480167
 C   -3.2449609122   -1.2099089744   -0.6581266306
 N   -2.0462331341   -0.7984378345   -1.1059587322
 C   -4.2890383803   -1.6129618448   -1.5302740625
 N   -5.1641692349   -1.9476783331   -2.2090582935
 H    1.0070663065    1.9038650539    0.0092291895
 H   -0.5497119233    1.9531399462   -0.8404269697
 H   -0.5059185575    1.8988119746    0.9359866008
 H    0.4369256501   -0.3613942414   -0.9369303457
 H    0.4933651474   -0.4121737431    0.8390425970
 H   -4.0057006806   -1.4249360717    1.4526726422