19

 C    0.2109810409    1.5250963698   -0.1614070035
 C    0.1304917193    0.0164978751    0.0141594184
 O    0.5845032166   -0.5618859875   -1.2308255466
 C    1.1300595205   -1.7969828249   -1.3433023852
 O    1.2901597724   -2.2639565166   -2.4381854525
 C    1.5906123059   -2.5006812084   -0.0754989701
 C    0.8957430486   -2.0333934135    1.2044434893
 C    0.8824182150   -0.5043773576    1.2385875316
 O    2.1967500652    0.0364077594    1.2162525518
 H    1.2517655668    1.8379593240   -0.2581657161
 H   -0.3382658223    1.8250332239   -1.0567152722
 H   -0.2280587603    2.0297811918    0.7047471362
 H   -0.9193581675   -0.2842388414    0.1364222883
 H    1.4838089058   -3.5738121174   -0.2437525724
 H    2.6643757711   -2.2939942786   -0.0034913797
 H   -0.1371167059   -2.4002326693    1.2458212179
 H    1.4058217952   -2.4357562545    2.0878055971
 H    0.3316321528   -0.1490624160    2.1236674335
 H    2.6640150099   -0.2763173082    1.9972485941