19

 C   -0.0381301673    1.5491333919   -0.0871548393
 C   -0.1068019889    0.0439054248    0.0392300690
 C   -1.2281052351   -0.6371818745   -0.7125669398
 O    1.1912971359   -0.6288134036   -0.0789991135
 C    0.5485020790   -0.6319278678    1.1549651177
 C    1.1350595118   -0.2804991454    2.5349895206
 C   -0.1704786501   -0.8179125455    3.1731781528
 C    0.2934378022   -1.8267788819    2.0926701049
 O    1.6826661225   -1.6605705663    2.5929164993
 H    0.8215302650    1.9482782457    0.4554705935
 H    0.0550588380    1.8386824505   -1.1395189779
 H   -0.9487638453    2.0130240312    0.3073602105
 H   -1.1658398293   -0.4046540733   -1.7812329849
 H   -1.1760189127   -1.7216473167   -0.5942596417
 H   -2.2028023199   -0.2909145826   -0.3517973033
 H    1.7848451963    0.5353282965    2.8480966089
 H   -0.0455097057   -1.1779550377    4.1940471840
 H   -1.1006783944   -0.2661162433    3.0141170318
 H   -0.0513407418   -2.8382287522    1.8830779175