16

 N    0.1254790179    1.4840433780   -0.0330011254
 C    0.0228199947    0.0768032678    0.0237515361
 C   -0.2086643110   -0.8138441247   -1.2543428044
 N    0.7553172942   -1.8762897156   -1.2900928496
 C    0.7062256848   -2.3279054329   -0.0897824440
 C    1.7802479923   -1.9089010881    0.8859148017
 C    0.6233590310   -0.8409696050    1.1411997528
 N   -0.4320388721   -1.8792027824    0.7737325967
 C   -1.1453477825   -0.9099929465   -0.0856616038
 H    0.3211355451    1.8449034699   -0.9567230291
 H   -0.6675681473    1.9731357771    0.3617392755
 H   -0.4810266600   -0.2966106094   -2.1669307435
 H    1.9145228649   -2.5099344538    1.7871246450
 H    2.7209942565   -1.6016252303    0.4369276414
 H    0.5507716876   -0.4336301758    2.1516268570
 H   -2.2228430761   -0.8085007383   -0.0819692963