14

 C    0.0050134609    1.6067978989    0.0306224894
 C    0.0328652533    0.1077391897    0.0297340048
 C   -0.8982741177   -0.8026466564    0.8830019155
 O   -1.7362030805   -1.7840359188    0.3927512326
 C    0.5679150558   -0.9609430569    0.9869989066
 O    0.9960801965   -1.7912834573   -0.1304515474
 C    0.6333329227   -0.7734207664   -1.0273135567
 O    0.8403786168   -0.7468003864   -2.1944752094
 H    0.9971091087    2.0280806426   -0.1600207221
 H   -0.6724233913    1.9766076645   -0.7454962066
 H   -0.3477961479    1.9909775997    0.9922205724
 H   -1.3790981292   -0.2382470314    1.6783753413
 H   -1.1830380435   -2.4597022055   -0.0217072343
 H    1.2323116956   -0.9085203163    1.8394221338