25

 C   -0.0177961785    1.6107816066   -0.1170472980
 C    0.0240835850    0.0919682231   -0.0014974175
 C    0.8485090457   -0.7701552505   -1.0024637937
 C    1.1870404234   -1.7617318069    0.1540729702
 C    2.6104957351   -1.6980503513    0.7567646704
 C    3.8303721887   -1.6421834571   -0.1543075823
 C    2.1767706835   -0.4446180479    1.6098140880
 C    2.8800480854    0.8847413479    1.3468948279
 C    0.6834201331   -0.6796155193    1.1743591931
 H    0.9760052528    2.0561742419   -0.1941207106
 H   -0.5811999571    1.9088349545   -1.0090772089
 H   -0.5177069971    2.0583374850    0.7498928126
 H   -1.0113670424   -0.2714843147   -0.0354551232
 H    0.2960818689   -1.1854300368   -1.8492631120
 H    1.7248621185   -0.2503554091   -1.4007497484
 H    0.7198239483   -2.7445172657    0.0648208484
 H    2.7343988550   -2.5499181171    1.4354053878
 H    3.7857838758   -0.8160561140   -0.8701247105
 H    4.7518529597   -1.5226075941    0.4264888151
 H    3.9231130567   -2.5698976592   -0.7304992498
 H    2.2778508243   -0.6570813605    2.6791004343
 H    2.9130175428    1.1502207103    0.2871117162
 H    2.3883880259    1.7048752653    1.8804373190
 H    3.9167519422    0.8387121936    1.6997598526
 H    0.0258181844   -0.9218611739    2.0125379893