23

 C   -0.7528011530    1.3365456230   -1.0775608258
 C   -0.1037653919    0.1417476863   -0.3683597973
 C   -1.0616929425   -0.5156901439    0.5956780984
 O   -2.1400709067   -1.2866561029    0.0474808013
 C   -1.1740018022   -1.9596349464    0.8628450692
 C   -0.2980525053   -3.0398734139    0.2242373838
 C   -0.7311130801   -3.3994200836   -1.1989640078
 O    1.0526528378   -2.5911478795    0.3043543093
 C    2.0194363342   -3.6075280604    0.1728817522
 H   -0.0501107457    1.8146986373   -1.7664304968
 H   -1.6280434532    1.0159527782   -1.6508632774
 H   -1.0844095024    2.0948065286   -0.3592710361
 H    0.2594157495   -0.5868712748   -1.0949673675
 H    0.7749955038    0.4695085847    0.2003767309
 H   -1.3852783379    0.1430390390    1.4071334773
 H   -1.5650954835   -2.2372671231    1.8428557155
 H   -0.3922800120   -3.9435746472    0.8494937333
 H   -0.1118868988   -4.2064168728   -1.6000582304
 H   -1.7707662185   -3.7385697735   -1.1965059084
 H   -0.6653781125   -2.5371218720   -1.8647812208
 H    2.9926897926   -3.1505151349    0.3691255822
 H    1.8560908051   -4.4182477855    0.9007752294
 H    2.0399252031   -4.0492784925   -0.8336737146