19

 C    0.6203529237    1.3436666167   -0.1506426625
 C   -0.0807436325   -0.0073180126    0.0179302110
 O   -1.4870519952    0.1640637361    0.1002025179
 C    0.2048350718   -0.9806762017   -1.1533551503
 C    1.5660304779   -1.6433542472   -0.8369897008
 C    1.7712221483   -1.3906655214    0.6519551121
 O    2.7824458300   -1.5166771686    1.2994378250
 C    0.4923910241   -0.7967278089    1.2202433305
 O    0.7078645336   -0.0702217093    2.3955903518
 H    1.6966010979    1.2285450032   -0.3197362261
 H    0.1904265979    1.8760877921   -1.0029672354
 H    0.4989489354    1.9491659729    0.7519546751
 H   -1.6663221615    0.7674710830    0.8301447638
 H   -0.5981873070   -1.7226281756   -1.1717276248
 H    0.1953969000   -0.4653626753   -2.1161129418
 H    1.5897945994   -2.7155217903   -1.0547050618
 H    2.4046548468   -1.1974158069   -1.3809405790
 H   -0.2118688030   -1.6313131920    1.3954473544
 H    1.6060950726   -0.2975605442    2.6824773209