15

 C   -0.0271063296    1.5445019410   -0.0906480887
 C    0.0111903495    0.0252999820   -0.0010839181
 N    0.8782942632   -0.4624681115   -1.1532401454
 C    1.5919909973   -1.3247179802   -0.5662640021
 O    2.9295518537   -1.0706361902   -0.2172957100
 C    2.3077449037   -1.0266726410    1.1459137601
 C    0.7624604376   -0.5473546510    1.2342050799
 C    1.1975150103   -1.9142668952    0.8282113485
 H    0.9872775971    1.9503551029   -0.1196673657
 H   -0.5519401159    1.8644699444   -0.9940541039
 H   -0.5490493237    1.9536566833    0.7824697106
 H   -1.0133395307   -0.3770113207   -0.0203389345
 H    3.0128509315   -0.9734554778    1.9664455910
 H    0.4145152598   -0.3324605616    2.2431001756
 H    0.9195823161   -2.9171182444    1.1209812027