14

 O   -0.3002465675    0.0613385182    0.1303494074
 C   -0.0834052509    1.2393406537    0.0154757826
 C    1.2518893746    1.8542519644   -0.1179842638
 C    1.4960411411    3.3142513409    0.2827611234
 C    1.5791593372    2.9170126390   -1.1591129527
 O    2.8110549440    2.5502843812   -1.7039833342
 C    3.3938521194    1.6111508726   -0.8130509714
 O    2.3450466362    0.9883275046   -0.0920926742
 H   -0.9042293453    1.9937293910   -0.0005149997
 H    0.6199677712    3.8829490964    0.5781243211
 H    2.3960854072    3.5396960395    0.8425919902
 H    0.8810512189    3.2810228476   -1.9021318201
 H    3.9378173359    0.8579029157   -1.3899074578
 H    4.0793311182    2.1224019553   -0.1191011308