15

 N   -0.0011917376    1.4114679420   -0.0364300960
 C   -0.0244861473    0.0060734744   -0.0228086460
 N   -1.1777995128   -0.6334436325   -0.0894121763
 C   -1.1616549755   -1.9729301701   -0.1187110558
 C    0.0432030710   -2.6614723614   -0.0550758998
 O    0.0526444872   -4.0144757502   -0.0525276910
 N    1.2192745610   -2.0335515762   -0.0083097146
 C    1.2005574555   -0.7062585515   -0.0046460866
 N    2.3984110884   -0.0138676770    0.0639644031
 H    0.5682485803    1.8000387533    0.7083413491
 H   -0.9448322353    1.7765127080    0.0198636491
 H   -2.1077025138   -2.4979537572   -0.1822245838
 H    0.9815087212   -4.2776780002   -0.0147547595
 H    3.2022327915   -0.5922147252   -0.1393259071
 H    2.3951062862    0.8589001337   -0.4483419447