17

 C   -0.7808865753    1.0614895264   -0.4581605022
 O    0.1570829946    0.3971712490   -1.2894302880
 C    1.0547553659   -0.4505603633   -0.6182577677
 C    0.7187000864   -1.9298238868   -0.8915901816
 O    1.7404779931   -2.7018137346   -0.3145738567
 C    1.7031304778   -4.0765648226   -0.6612824900
 C   -0.6112496583   -2.2925730878   -0.3487966098
 N   -1.6360048237   -2.5948296689    0.0923381080
 H   -1.4287325624    0.3578084982    0.0788171201
 H   -0.2778076644    1.7125690310    0.2711233608
 H   -1.3977372911    1.6790313923   -1.1147900305
 H    2.0658001487   -0.2810333174   -1.0050855377
 H    1.0696944864   -0.2757255640    0.4644758734
 H    0.6752045329   -2.0720830870   -1.9831554488
 H    0.7846100235   -4.5591943318   -0.3024037056
 H    1.7760242528   -4.2148548309   -1.7497967469
 H    2.5650495530   -4.5434673521   -0.1815592767