19

 C   -0.0853383233    1.5329165657   -0.0935345881
 C    0.0238147093    0.0336846232    0.0457318059
 C    1.3471663917   -0.6912787751   -0.1366892924
 O    2.4875011793    0.0955821517   -0.3452507698
 C    3.3907488707    0.1538294257    0.7490453147
 C    2.7135761292    0.4272306136    2.0704880153
 C    1.4405826186    0.0897585887    2.2699981067
 C    0.6896274756   -0.6460338830    1.2210222301
 O    0.0021588871   -1.7861817791    1.6743533716
 H    0.8159841049    2.0316141374    0.2671791102
 H   -0.2224944038    1.8116571890   -1.1435015494
 H   -0.9410687552    1.9170554412    0.4714584195
 H   -0.8313898736   -0.5326326249   -0.3143934794
 H    1.3487900436   -1.6371249479   -0.6761130659
 H    3.9836472761   -0.7761741734    0.8180507877
 H    4.0931667365    0.9578803400    0.5059877588
 H    3.3056967409    0.9080561398    2.8440579002
 H    0.9294029353    0.2862217904    3.2085934996
 H    0.6523925171   -2.3841659026    2.0616245749