16

 N    0.0606099410    1.2404342431    0.0977021417
 C    0.0166682413   -0.1097598980    0.0391263407
 O    1.0129205138   -0.8158251349    0.0320720228
 C   -1.3777874690   -0.7656206437   -0.0490551920
 O   -1.1870155785   -2.1445363035   -0.2107478621
 C   -2.2135213625   -0.4728280580    1.1952812526
 C   -3.2116271941   -1.4632217603    1.6570064243
 N   -1.9667686789   -1.2376959949    2.4199266145
 H    0.9537948560    1.6891901588    0.2208267478
 H   -0.7722248870    1.7973127831    0.1754286010
 H   -1.8971071263   -0.3450711418   -0.9265098606
 H   -0.2177412340   -2.2546573065   -0.2104536663
 H   -2.4167497461    0.5842996542    1.3637600088
 H   -4.1194055598   -1.1266607257    2.1492890627
 H   -3.2968825451   -2.3823873269    1.0870453905
 H   -1.3212638806   -1.9916943549    2.1868050437