17

 N    0.1935818346    1.2579376932   -0.0986492851
 C    0.1535722790   -0.0958599873    0.0911192783
 O    1.0628642911   -0.7674807733    0.5194917126
 O   -1.0739993946   -0.5699821303   -0.2422501481
 C   -1.2684669757   -1.9692863685   -0.0351662431
 C   -1.7048842081   -2.4481592722    1.3673766068
 C   -2.7148133440   -3.3949231876    0.6579872922
 C   -2.5872056562   -2.5088752913   -0.6149271019
 H    1.1065347275    1.6788376297   -0.0872960894
 H   -0.5174881923    1.6873467829   -0.6658118446
 H   -0.3876471823   -2.5082928086   -0.3894848987
 H   -0.9395930275   -2.8794548995    2.0139453486
 H   -2.2181576218   -1.6427314090    1.9006110027
 H   -2.3001892392   -4.3944436497    0.5036670435
 H   -3.7073841591   -3.4947170124    1.1001697145
 H   -3.3440745590   -1.7197064294   -0.6289811530
 H   -2.5568544526   -2.9935270067   -1.5930785152