21

 C   -0.0593762365    1.5199617560    0.0881721094
 C   -0.0570534006   -0.0094966148    0.1181969242
 C   -1.4525121023   -0.6033958428   -0.1651942753
 C   -1.4722238309   -2.0626397101   -0.1435881738
 C   -1.4179161323   -3.2690933479   -0.1126075190
 C   -1.4590765678   -4.7010190982   -0.0924741269
 C   -1.7325890987   -5.4415225704    1.2196581671
 C   -2.8109609700   -5.3510747183    0.1820586882
 O   -3.9247271001   -4.5491658248    0.3971054951
 H    0.9390626803    1.9194428742    0.2892169442
 H   -0.3786787196    1.8984332904   -0.8892989360
 H   -0.7404891749    1.9319571609    0.8411492674
 H    0.6500660462   -0.4004723603   -0.6218553019
 H    0.2880550514   -0.3686179644    1.0940281499
 H   -2.1661610332   -0.2179067918    0.5756797444
 H   -1.8087267811   -0.2419352861   -1.1396405940
 H   -0.8138746331   -5.2021143628   -0.8076958157
 H   -1.2232917543   -6.3868052155    1.3723951855
 H   -1.8569652843   -4.8298366612    2.1053915326
 H   -3.0460169650   -6.2456756288   -0.3890714867
 H   -3.6802371233   -3.6416766333    0.1682946915