12

 N   -0.0195811917   -1.0773390158    0.0527544760
 C   -0.0286834325    0.0781514763    0.0469436575
 C   -0.0287766392    1.5149716966    0.0228638051
 O   -0.7094790000    2.2721561857    1.0571553166
 C   -0.1562127401    3.3049750450    0.1885993060
 C    1.1651412910    2.5205018817   -0.1213014340
 N    1.0199868675    2.5616974728   -1.6082095021
 C   -0.3970667026    2.5033132849   -1.1368207169
 H   -0.3301197540    4.3503314386    0.4384291129
 H    2.1168596965    2.5122669747    0.4083708509
 H    1.2409524677    3.4941668165   -1.9639195699
 H   -1.2671736927    2.4750204931   -1.7914215421