15

 C    0.0351813057    1.3882376932    0.0079923228
 N    0.0274363980   -0.0677509702    0.0028279349
 C   -1.0903831401   -0.6509184615    0.0091744990
 O   -2.3478695683   -0.1020631084    0.0206715353
 N   -3.3275874285   -1.1429502127    0.0240809656
 C   -2.6325482034   -2.2290825791    0.0144253399
 N   -1.2866792238   -2.0280073614    0.0060451361
 C   -0.2080939127   -2.9914331677   -0.0070354497
 H    1.0707673046    1.7364439480   -0.0011492650
 H   -0.4741834986    1.8098268248   -0.8693282767
 H   -0.4562086259    1.8032383815    0.8986093967
 H   -3.0846357814   -3.2101637629    0.0140682759
 H   -0.6288175857   -3.9982504852   -0.0015147204
 H    0.4081230013   -2.8561866241   -0.9002621270
 H    0.4292692687   -2.8552486342    0.8709944626