19

 C    0.0270558467    1.5520108922    0.0432837255
 C   -0.0290505264    0.0534864024    0.0510381849
 C    1.1301501873   -0.8174213637   -0.3224755563
 C    0.5684408743   -0.9426162304    1.0830730500
 C    1.3428612487   -0.6987674210    2.2492159238
 C    2.0020003448   -0.4780859255    3.2322943184
 C   -0.7078362242   -1.7973384307    1.0140861812
 O   -1.3587557429   -1.8093242755    2.2619362954
 C   -1.3119047473   -0.7864866131   -0.0179403366
 H    1.0149126824    1.9076992314    0.3525598885
 H   -0.1734161825    1.9492418490   -0.9593103930
 H   -0.7135088458    1.9792383314    0.7277674846
 H    1.0087790828   -1.6435582145   -1.0210901626
 H    2.0955172003   -0.3252487525   -0.3749611449
 H    2.5746293394   -0.2893202294    4.1057420488
 H   -0.5472446387   -2.8202846401    0.6407577816
 H   -2.1860550854   -2.2910567664    2.1608443667
 H   -2.1675149360   -0.2795287815    0.4350089993
 H   -1.5911704075   -1.1686870320   -1.0060742753