19

 C    0.1713082516    1.6382121166    0.4675754869
 O    0.5691430621    0.3842713116   -0.0407383523
 C    0.7024953328   -0.5928371983    0.9422124392
 C   -0.5798948475   -1.2422142870    1.5724640213
 C    0.0166224650   -2.6496717159    1.2600530898
 O    0.2846041758   -3.5108628874    2.3209029546
 C   -0.4387967703   -3.2157417213   -0.0962165682
 O    0.5150198417   -2.3763881571   -0.7896216569
 C    1.1545935748   -1.9736114833    0.4360638131
 H    0.8952415947    2.0277746828    1.2008140109
 H    0.1171953053    2.3279642324   -0.3777132567
 H   -0.8166228122    1.5928353200    0.9504844171
 H    1.3804783944   -0.2587793066    1.7457379860
 H   -0.7169531451   -1.0417331887    2.6376091760
 H   -1.5039291250   -1.0205974258    1.0327071953
 H   -0.5175087693   -3.6091656095    2.8451720738
 H   -0.2001996911   -4.2812608436   -0.2138511787
 H   -1.4714325282   -3.0258872645   -0.4140452456
 H    2.2147813806   -2.2359412542    0.4679230048