23

 C    0.0828743867    1.5670277378   -0.1603318045
 C    0.0019313568    0.0458882796   -0.0229539474
 O    0.6308169601   -0.3934296376    1.1810499295
 C   -1.4390736547   -0.4758097597   -0.1330984881
 C   -1.5228747505   -1.9966532320   -0.1585725694
 C   -1.3637924386   -2.8756382754    1.1262893134
 C   -2.8044647460   -2.4537893090    1.5435498457
 C   -2.8792272044   -2.7552365044    0.0173174717
 C   -2.0314820739   -4.0254773253    0.3172149383
 H    1.1177054604    1.9028719513   -0.0516936165
 H   -0.2916503552    1.8998111495   -1.1338519729
 H   -0.5195367177    2.0598629467    0.6135903142
 H    0.6029851312   -0.4136905022   -0.8183256623
 H    0.1535471195    0.0033866508    1.9184330127
 H   -2.0277215804   -0.0441144914    0.6864434860
 H   -1.8803582119   -0.0834551014   -1.0596452509
 H   -0.9309523981   -2.3708034990   -1.0043745428
 H   -0.4817257912   -2.9410380789    1.7618221102
 H   -3.3384938360   -3.1491635124    2.1974251233
 H   -2.9647456458   -1.4244304534    1.8689753118
 H   -3.7590514571   -2.6878624535   -0.6262400707
 H   -1.4557088474   -4.4413236858   -0.5147109788
 H   -2.5220882059   -4.8108401442    0.8985557775