19

 O   -0.2103513403    1.4269871423   -0.7730945016
 C    0.0282429317    0.3144043901    0.0722136200
 C   -1.2536019883   -0.4328370812    0.3454856026
 O   -1.7719544783   -1.1958243550   -0.7586481129
 C   -1.3911535806   -1.8975805150    0.4308409247
 C   -0.2690815819   -2.8917011581    0.3261635865
 C    0.1901572736   -3.5366784472    1.6570427575
 O   -0.2198488581   -4.8469188172    1.2241550832
 C   -0.6799858889   -4.3388229362   -0.0443318369
 H   -0.6138355553    1.0831813735   -1.5783201676
 H    0.7856569092   -0.3566579373   -0.3549142916
 H    0.4277974459    0.7204977655    1.0080843465
 H   -2.0126912244    0.1700982994    0.8474000319
 H   -2.2448722817   -2.2656598494    1.0069148674
 H    0.5425711831   -2.5010447563   -0.2866554117
 H    1.2662195775   -3.4844488904    1.8619979641
 H   -0.3558473924   -3.2078665303    2.5516685803
 H   -1.7565136513   -4.4976473531   -0.1875966455
 H   -0.1390396292   -4.7836572541   -0.8876281668