15

 O    0.1549063831    1.3216784355   -0.0214637234
 C    0.1456430769   -0.0817366884   -0.0106586173
 C   -1.2895191004   -0.5602684640    0.0356406998
 O   -2.2475903404    0.1776472473    0.0580856927
 C   -1.4933130868   -2.0663264765    0.0537408367
 N   -0.4887592833   -2.8440461258    0.0296886757
 N   -2.8511063534   -2.3879592708    0.0972026047
 C   -3.3851429505   -3.6499029982    0.1232092090
 O   -2.7444920241   -4.6777224054    0.1119818644
 H    1.0719178802    1.6089028618   -0.0514036276
 H    0.6152987623   -0.5316116313   -0.8994906393
 H    0.6677063244   -0.5184941605    0.8551533906
 H   -0.7871079717   -3.8215498866    0.0464459925
 H   -3.4626903703   -1.5790896653    0.1092629310
 H   -4.4899660759   -3.6283258119    0.1563218706