18

 N    0.0781565101   -1.0979677941   -0.0666347096
 C    0.0279296522    0.0578691563   -0.0215625260
 C   -0.0448835228    1.4806111359    0.0428230260
 C   -1.0840019604    2.2209554829    0.8907350250
 C   -0.6288386270    3.6518153069    0.5258442244
 C    0.8849827187    3.5939728191    0.8437645971
 C    1.2071707473    2.3659152462   -0.0005586867
 C    0.2555092787    2.3701963433   -1.1703143592
 C   -0.6320910388    3.6009474769   -1.0212417851
 H   -2.1090036969    2.0032640090    0.5771844957
 H   -0.9865812632    1.9981371767    1.9571252582
 H   -1.1902175151    4.4636621550    0.9855295277
 H    1.4220379545    4.4850530423    0.5031240930
 H    1.0908103726    3.4472172426    1.9083807743
 H    2.1906189047    1.9205965286   -0.0612048981
 H    0.5133567628    1.9281134187   -2.1228004933
 H   -1.6330395630    3.4597989747   -1.4401489327
 H   -0.1859303845    4.4924197190   -1.4736924808