19

 C   -0.1412398858    1.5304719386    0.0571989969
 C    0.1164625637    0.0275750799   -0.0024091648
 C    0.7437838115   -0.4392911001   -1.3086169260
 O    1.1153079188    0.3418084463   -2.1558942641
 C    0.8596105944   -1.9540525267   -1.5120505796
 C   -0.3698279864   -2.4273767878   -2.3151318245
 C    2.1660236313   -2.3145928616   -2.2271521843
 H    0.7843531312    2.0881625111   -0.1043100724
 H   -0.8433547290    1.8376959796   -0.7226703343
 H   -0.5566760925    1.8161760186    1.0276439862
 H    0.7918159410   -0.2902727430    0.8058722272
 H   -0.8045821069   -0.5482414064    0.1627843043
 H    0.8303896742   -2.4374290460   -0.5273342718
 H   -0.3824534028   -1.9543464998   -3.3019686231
 H   -0.3384997021   -3.5122711582   -2.4546332269
 H   -1.3094645927   -2.1818407879   -1.8093744381
 H    3.0386693819   -2.0470315065   -1.6232280307
 H    2.2108294701   -3.3886766430   -2.4318822644
 H    2.2377038298   -1.7725355969   -3.1733715795