23

 C    0.2460200274    1.7922336019   -0.3591096524
 C    0.3117014111    0.2853451237   -0.2339880535
 C    1.5782279895   -0.5372888258   -0.4527544060
 C    2.8724473063    0.1724446089   -0.2468340952
 C    3.0221687397    0.5737505271    1.0175848783
 C    1.8756996400    0.1209478087    1.9022222172
 C    1.2904746236    1.1980539859    2.8290854525
 C    0.8888685379   -0.5274088090    0.9103238134
 C    0.0959461265   -1.7097878300    1.4203113295
 H    1.1758159502    2.2745879566   -0.0518291013
 H    0.0541991329    2.0748451212   -1.4009031655
 H   -0.5679225976    2.2050400993    0.2470639780
 H   -0.5672961737   -0.1998181164   -0.6561954241
 H    1.5314660252   -1.3926267939   -1.1202803090
 H    3.5759823556    0.3580134844   -1.0513747942
 H    3.8560499388    1.1515094893    1.4029334341
 H    2.2494105951   -0.6824889973    2.5586175714
 H    0.9283322452    2.0658687230    2.2736145031
 H    0.4534443654    0.7953948078    3.4091426475
 H    2.0460442424    1.5472598975    3.5411952510
 H   -0.6004770501   -1.4114774144    2.2142396390
 H   -0.4967989939   -2.1692640391    0.6228240703
 H    0.7552006026   -2.4825572494    1.8336395960