19

 C   -0.6489295905    1.3076150675   -0.0381256225
 C    0.1281348581   -0.0005630437   -0.0679165525
 C    1.4762135930   -0.0492846671   -0.8590182415
 C    2.2033022715   -0.5806474021    0.3969579126
 O    2.8155106465    0.4396312315    1.2054866622
 C    1.6355184762    0.5671500477    2.0363922347
 C    0.8635591659   -0.4832078020    1.2184297871
 C    3.0158074253   -1.8371093970    0.3109238013
 O    2.8389977352   -2.6965993674   -0.5167354624
 H   -0.0169624148    2.1515405194    0.2572005262
 H   -1.0512622245    1.5348791509   -1.0310881291
 H   -1.4926880070    1.2571470261    0.6591152482
 H   -0.5326133356   -0.8018480455   -0.4122814872
 H    1.4899175599   -0.7560508419   -1.6906609185
 H    1.8679079551    0.9170426506   -1.1852072080
 H    1.8468107946    0.2659038900    3.0695656720
 H    1.2390731024    1.5886146606    2.0405104385
 H    0.4282517872   -1.3173575620    1.7675765258
 H    3.7912984912   -1.9250488458    1.1040660429