23

 C   -0.3567748893    1.4954524282   -0.0399660501
 O   -0.4810364448    0.2599545670    0.6267694174
 C   -1.3420277630   -0.6396427800   -0.0182327158
 C   -0.8782558243   -1.3617498728   -1.3136992857
 C   -1.5399358193   -2.6492182307   -0.7485585079
 C   -1.4998840144   -2.0191046941    0.6649471083
 C   -0.3774563212   -2.4048310271    1.6707958931
 C   -1.3800984723   -2.1452809639    2.8269879316
 C   -2.5366604174   -2.2218240028    1.7929708657
 H    0.3144774584    2.1210501411    0.5534760869
 H    0.0677543490    1.3783268490   -1.0482034499
 H   -1.3285906803    2.0057560041   -0.1338250603
 H   -2.3302912315   -0.1725247915   -0.1716756037
 H   -1.2280819340   -0.9799754184   -2.2754003181
 H    0.2121984851   -1.4447215076   -1.3327366147
 H   -2.5645827610   -2.7789556287   -1.1115290354
 H   -1.0023103219   -3.5915081127   -0.8804979398
 H   -0.1158456426   -3.4642539196    1.5816126549
 H    0.5332703975   -1.8045319335    1.6512354030
 H   -1.3941044767   -2.8585942995    3.6543778211
 H   -1.2666168509   -1.1367942367    3.2318207270
 H   -3.3404339580   -1.4824155690    1.8661074969
 H   -2.9863476172   -3.2196043811    1.7518039954