18

 C    0.0350401340    1.5017283830    0.0028832183
 O    1.1944594030    0.6609439199    0.0051154404
 C   -0.0932208862    0.0432182562    0.0116547438
 C   -0.4737718638   -0.8078212529    1.2256584693
 C   -0.7098162398   -2.1754921561    0.6003543252
 C   -1.6985537843   -2.3495076287   -0.4953784646
 C   -2.0166510153   -1.0452685819   -1.2116547360
 C   -0.4859872976   -0.7827471648   -1.1887830399
 N   -0.2173634601   -2.2403504345   -0.8006451400
 H   -0.1379974857    2.0640260385    0.9200015574
 H   -0.1363620858    2.0599778526   -0.9173947052
 H    0.3576672280   -0.8313222682    1.9350015511
 H   -1.3552540223   -0.4225785222    1.7481246194
 H   -0.4766498613   -3.0605238489    1.1834259576
 H   -2.2342285604   -3.2846992812   -0.6294879791
 H   -2.3753850303   -1.2266398746   -2.2266466112
 H   -2.6773854794   -0.3205602333   -0.7235101368
 H   -0.0029873025   -0.4811135229   -2.1166115697