18

 C    0.0323855785    1.5932943810    0.0760185271
 C   -0.0000457415    0.0556946332   -0.0193578525
 C    0.7044680120   -0.4790446225   -1.2444358482
 C    0.0018481607   -0.8945935935   -2.3759556298
 C    0.6852912717   -1.3522277217   -3.4962728480
 N    2.0181466173   -1.4249708784   -3.5575264176
 C    2.7012517060   -1.0369998966   -2.4837591069
 C    2.1014492172   -0.5592893749   -1.3158435070
 O    2.9317423323   -0.1922129268   -0.2978244371
 H    1.0585817833    1.9742741755    0.0993684025
 H   -0.4615951319    2.0417970066   -0.7905729860
 H   -0.4788958075    1.9386210148    0.9795625981
 H    0.4364926933   -0.3795562227    0.8918653019
 H   -1.0399688516   -0.2854121709   -0.0329863758
 H   -1.0836614844   -0.8609106074   -2.3781030825
 H    0.1413219661   -1.6766979157   -4.3793125848
 H    3.7860478451   -1.0975492606   -2.5254030744
 H    2.4104479036    0.0583269007    0.4709630609