20

 C   -1.4857085761   -0.4324806846   -0.1800244994
 C    0.0027896438   -0.1628951325    0.0813534713
 C    0.4610074165   -0.8375892645    1.3813514616
 C    0.8273081416   -0.6151119334   -1.1377431085
 C    2.3447713707   -0.2763673171   -1.0699286527
 C    3.0092143805   -0.7911938822   -2.3547951936
 O    3.4944127196   -1.8847493609   -2.4382271785
 C    2.5759453259    1.1592003234   -0.9185365708
 N    2.7640347522    2.2963553200   -0.8304797724
 H   -1.8320769340    0.0747471937   -1.0863526205
 H   -1.6769032154   -1.5052209857   -0.3019857520
 H   -2.0971486201   -0.0798679049    0.6561394222
 H    0.1363836711    0.9213354009    0.1911210929
 H    0.3899960000   -1.9292479437    1.3048092111
 H    1.4933526895   -0.5843073674    1.6413512088
 H   -0.1684267768   -0.5223138255    2.2189995275
 H    0.7512347505   -1.7020840418   -1.2589071257
 H    0.4117145254   -0.1603466881   -2.0448478535
 H    2.8060264794   -0.8098961742   -0.2339281707
 H    2.9651782457   -0.0921032415   -3.2167160271