20

 C   -0.4047129829    1.4599703771   -0.0706743167
 C    0.1225428544    0.0380954882   -0.0660296816
 O    1.3730918586   -0.0902277153   -0.7803673515
 C    1.9641199491   -0.8493363948    0.2985007494
 C    0.7491181758   -0.5919913861    1.2114912899
 C    1.0038651917    0.3139671975    2.4084844195
 C    1.8227474694   -0.4020191066    3.4835130298
 N    1.8652543562    0.2347448711    4.6907517878
 O    2.3933920659   -1.4578315116    3.2850885198
 H    0.3154319588    2.1607306345    0.3604985421
 H   -0.6020408341    1.7736017959   -1.1006463603
 H   -1.3442116859    1.5286772196    0.4888920107
 H   -0.6355992143   -0.6276828795   -0.5064149194
 H    2.1217538249   -1.8999441896    0.0280951408
 H    2.9179439293   -0.4229850608    0.6270075344
 H    0.2472846351   -1.5010314976    1.5470229329
 H    1.5604449075    1.2107079917    2.1057277447
 H    0.0621893348    0.6705295896    2.8448471799
 H    1.4641541597    1.1453603344    4.8304629324
 H    2.4631753559   -0.1441683277    5.4068140354