15

 C    0.0131853925    1.5604677530   -0.0061084828
 C    0.0371194339    0.0571407858    0.1279385062
 N    1.2330888674   -0.7792362185   -0.1930547572
 C    2.3974191886   -0.0577285401    0.3158164638
 O    3.3620330351    0.2996826504   -0.2775600832
 C    1.9396399598   -0.0594735242    1.7802187875
 C    0.6545012758   -0.7021827947    1.2453115645
 C    0.0196381284   -1.8307529266    1.8547673554
 N   -0.5075440041   -2.7164174651    2.3795470449
 H    0.8776904098    2.0510033756    0.4454861145
 H   -0.0109703226    1.8334225313   -1.0653675198
 H   -0.8914789413    1.9552328748    0.4659343260
 H   -0.8465103777   -0.4280912993   -0.2802709998
 H    2.5364081436   -0.7494021468    2.3812910262
 H    1.8616730009    0.8989917246    2.2965071738