15

 C   -0.1230701478   -1.2873224755    0.0199767989
 C   -0.1035458570   -0.0837142629    0.0463519519
 C   -0.0544866317    1.3273637326    0.0705591048
 C   -0.8884079264    2.3772772587    0.7411651049
 C    0.0522943545    3.0329009638    1.7735904803
 N    1.3034899342    3.1709613026    0.9793229821
 C    1.1653405811    2.3539325847    0.0188116634
 N    0.8154129061    2.9238444710   -1.2925835744
 C   -0.5746819350    2.4091565196   -0.8104851643
 H   -0.1414773480   -2.3487795201   -0.0015248845
 H   -1.9313796829    2.1782807133    0.9765291918
 H   -0.2320543904    4.0493287346    2.0622318120
 H    0.1214296926    2.4245879762    2.6871322652
 H    1.0341337185    2.2572253581   -2.0414967826
 H   -1.3766916778    2.3703866233   -1.5410203796