18

 C   -0.0382074507    1.3913328393   -0.0915754426
 C    1.4429932992    1.8647770593   -0.0719278738
 C    2.1552068261    0.6980496418    0.6355807582
 C    3.5639627912    0.2963168761    0.1539499271
 O    3.6698263266   -1.1206713254   -0.0338417269
 C    2.8984499869   -1.8437682383    0.8618504642
 O    1.4972253389   -1.6908887307    0.6027668092
 C    1.1398237756   -0.4112387839    0.3914442247
 N   -0.0203643687   -0.0732342602    0.0089852398
 H   -0.6035466936    1.8055672120    0.7544514648
 H   -0.5625283483    1.6994078592   -1.0012704058
 H    1.8194136652    1.9569212139   -1.0966943577
 H    1.5830861726    2.8281125218    0.4235094879
 H    2.1893779641    0.8763460946    1.7192505822
 H    3.7843945355    0.7366439045   -0.8222935601
 H    4.3348991590    0.6302429970    0.8619224151
 H    3.1123505072   -2.9026105479    0.7146494247
 H    3.1032942032   -1.5557965832    1.9061825189