17

 C   -0.4310830039    1.1161035886    0.2251022916
 O    0.4176042232   -0.0090157728   -0.0251249988
 C    0.7454438996   -0.7246241361    1.0752898776
 O    0.3803609086   -0.4721892509    2.2035250000
 N    1.5441197366   -1.7747493411    0.7359473582
 C    2.0670504737   -2.6714792875    1.7431201200
 C    0.9813380173   -3.6304052841    2.2891225021
 C    1.5255377480   -4.5664338510    3.2672404818
 N    1.9849158903   -5.3009449354    4.0320250854
 H    0.0555164692    1.8273914046    0.8970101725
 H   -0.6074004943    1.5733168428   -0.7486967440
 H   -1.3757082842    0.7981241124    0.6733735507
 H    1.7774550718   -1.9026313294   -0.2337560002
 H    2.8853496142   -3.2441115304    1.3013760751
 H    2.4721896654   -2.0894883846    2.5755194835
 H    0.1928419085   -3.0317062791    2.7545813792
 H    0.5307614861   -4.1947146760    1.4655673852