17

 O   -0.2074924694    0.1875281395   -0.7603230665
 C    0.0336643010    0.9996038719    0.1048411521
 C    1.1833180308    1.9100822274    0.0890136094
 C    2.0973189188    2.0577410995   -1.1233596586
 C    2.6790301303    1.5073971152    0.1190708126
 O    2.9985997467    2.5108522035    1.0725286401
 C    1.6126822676    2.9011471494    1.1454546864
 C    1.2109464250    4.3104624349    1.4119507675
 C    0.9849843048    3.2230784140    2.4588837677
 H   -0.6142751529    1.0872108204    1.0046827533
 H    1.8750218912    1.3336673524   -1.9003485739
 H    2.3775729619    3.0542738113   -1.4499346159
 H    3.1212272159    0.5256941667    0.2405006141
 H    2.0083987460    5.0210341450    1.5988255024
 H    0.3513049599    4.7144830462    0.8879009017
 H   -0.0303620426    2.8944869570    2.6532794640
 H    1.6387119552    3.2171784958    3.3240180037