20

 C   -0.5314971371    1.2155463927   -0.1252308231
 C    0.1367989974   -0.1357677964    0.0792230644
 C    1.0004482741   -0.7967445620   -1.0445655170
 C    2.0943528149   -1.1630802989    0.0021337399
 C    1.3830949571   -0.2122233556    0.9747533023
 O    1.7117769671    0.3565256165    1.9762242056
 N    0.3854025690   -1.9254714857   -1.7108256725
 C   -0.3382019556   -1.6388794863   -2.9481162436
 C    0.9775144017   -2.3333190288   -2.9831099313
 H    0.1778859905    1.9519299250   -0.5169601741
 H   -1.3703513814    1.1446151406   -0.8246650128
 H   -0.9128553309    1.5985022341    0.8259995865
 H   -0.5851762743   -0.8861135510    0.4281955429
 H    1.3684383970   -0.0341177770   -1.7521512126
 H    1.9987935223   -2.2070652592    0.3190881997
 H    3.1401502410   -0.9479498367   -0.2271959555
 H   -1.2601646278   -2.1936840412   -3.0944931419
 H   -0.3651895906   -0.6079265749   -3.2971091149
 H    1.8296871842   -1.7663824692   -3.3544356292
 H    1.0327341715   -3.4041164961   -3.1551514128