15

 O    0.0086035344    1.4633912500   -0.1288082236
 C    0.0086270736    0.1257620565    0.3200320054
 C   -1.3246260237   -0.5470291223    0.0608618683
 O   -1.5775327224   -0.6390745614   -1.3929291412
 C   -1.7234087010   -2.0120586746   -1.3610352200
 O   -1.9845522754   -2.7462559394   -2.2541221002
 C   -1.4188352601   -2.0703036758    0.1275382274
 C   -0.6977166371   -3.0879720496    0.8978911078
 O   -2.0977775862   -2.8451809250    1.0769835190
 H   -0.1821068125    1.4461172716   -1.0739501435
 H    0.8102272190   -0.4670810273   -0.1480456942
 H    0.1970561470    0.1535278076    1.3989728769
 H   -2.1506519252   -0.0183146350    0.5427177309
 H   -0.4450425842   -4.0320840633    0.4203134149
 H   -0.0605239060   -2.7780961821    1.7240076821