17

 C    0.0761610510    1.4431714074   -0.1581738149
 C   -0.0694581565   -0.0278124300   -0.0047836635
 C   -1.1495269875   -0.8255349503    0.2790286352
 C   -0.6284616220   -2.1519324088    0.2494546406
 C    0.6820678183   -2.0725426989   -0.0453439391
 C    1.3534682761   -3.3989358544    0.0292824628
 C    0.0530962204   -4.2750998773    0.1586559069
 O   -1.0814682366   -3.4141071700    0.4884238394
 O    1.0664880500   -0.7761166635   -0.1965821964
 H    0.8277827906    1.8474093891    0.5295428939
 H    0.3829279010    1.7166798652   -1.1746828864
 H   -0.8775825053    1.9323464854    0.0521102672
 H   -2.1550638500   -0.4878832700    0.4709351055
 H    1.9292568806   -3.6888878519   -0.8561009383
 H    2.0147298035   -3.5055409715    0.9002304641
 H   -0.1721077646   -4.7631402232   -0.7953908081
 H    0.1246364211   -5.0351911172    0.9387241710