21

 C   -0.0350073276    1.5296261696    0.0484341121
 C   -0.0207156397    0.0308674433   -0.0283434780
 C   -0.0301641265   -0.6530526233   -1.1775934920
 C    0.0076930720   -2.1643029937   -1.2516722368
 C    0.0994371853   -2.8234051097    0.1511046600
 C   -0.8136432329   -2.0346721892    1.1148848955
 C    0.0389560273   -0.7575971589    1.2831889023
 C    1.4357266052   -1.3725701252    1.4102591034
 C    1.4633543553   -2.5404492510    0.7674435229
 H    0.8477766219    1.9086598322    0.5806015694
 H   -0.0525891237    1.9864988344   -0.9452281956
 H   -0.9091892930    1.8911036814    0.6061194404
 H   -0.0526255367   -0.1179341886   -2.1253916745
 H   -0.8923762516   -2.5270073540   -1.7689232677
 H    0.8543463843   -2.4831753764   -1.8772767455
 H   -0.1418780506   -3.8880787075    0.0846229843
 H   -1.8092140675   -1.8322818102    0.7094537226
 H   -0.9132256494   -2.5630254521    2.0678933221
 H   -0.2535797276   -0.1345915795    2.1328030057
 H    2.2757933641   -0.8661128022    1.8711255337
 H    2.3341114813   -3.1661091796    0.6074157757