14

 O   -0.1685068615   -0.0048230510    0.0018981816
 C   -0.0344345918    1.1928066838    0.0085517043
 C    1.2533938836    1.9149359293    0.0006366163
 C    1.3538549131    3.2554212759    0.0105875163
 C    2.7698146221    3.7591481635   -0.0003007020
 C    3.6257701102    2.4787175979   -0.0204725260
 C    2.6248066832    1.3063940219   -0.0188089529
 O    2.9127863743    0.1387119668   -0.0319213899
 H   -0.9192411116    1.8722170751    0.0219169143
 H    0.5026070481    3.9306523819    0.0250903353
 H    2.9412643167    4.4040460305   -0.8709050405
 H    2.9599668908    4.3889327653    0.8774625643
 H    4.2625610717    2.4031811677   -0.9061858176
 H    4.2825415512    2.3887027614    0.8491367665