14

 O   -0.1387448361    1.4353079936    0.1300759205
 C   -0.0477904939    0.0367828254    0.0378021959
 C    0.8919553075   -0.5218475803    1.0185011559
 N    1.6524273425   -0.9491088317    1.7770513678
 C   -1.4021027098   -0.6858254227    0.0291237439
 C   -2.1985581415   -0.2143421306   -1.1305501304
 C   -1.1311378023   -1.2743145205   -1.3860954103
 C    0.2031849570   -0.6126818675   -1.3973250558
 O    1.1671041735   -0.6292500083   -2.1008095083
 H    0.7266025149    1.8081912840   -0.0790230271
 H   -1.8169024181   -1.2043310173    0.8816160417
 H   -3.2113071387   -0.5972075248   -1.1923063061
 H   -2.0706251431    0.7950078771   -1.5031583610
 H   -1.3762988820   -2.2428810264   -1.8007473666