19

 C   -0.1531270241    1.8225819316   -0.0359055484
 C   -0.1373697297    0.2902313677   -0.0963142456
 C   -1.5384822230   -0.2920464785   -0.3128592892
 O   -2.4240464417    0.1035121971    0.7421800231
 C   -2.8122889558   -0.8326560868    1.6292301616
 O   -3.5153319741   -0.5863629501    2.5618206632
 C    0.7762302930   -0.2064974698   -1.1973034502
 C    2.1508561412   -0.6485351986   -0.9369728158
 O    1.1084330187   -1.5979574896   -1.1726540546
 H    0.8437287427    2.2165182168    0.1824559920
 H   -0.4816522081    2.2489556447   -0.9910127644
 H   -0.8404333360    2.1686366951    0.7390454472
 H    0.2386472882   -0.1084120673    0.8546300872
 H   -1.9773382878    0.0833555457   -1.2437316833
 H   -1.4843836986   -1.3853651697   -0.3729261171
 H   -2.4152604090   -1.8389848833    1.3901373786
 H    0.5485345156    0.1737959056   -2.1961602269
 H    2.9029578845   -0.5764182532   -1.7209198637
 H    2.5366393638   -0.6223758874    0.0813532464