16

 N   -0.1795960558    1.0488771737   -0.9251161270
 C   -0.0330487228    0.0815726011   -0.1232935338
 C   -1.2309881482   -0.5832005854    0.5189356067
 C   -0.9863160174   -2.0284300412    0.8503447489
 C    0.2367229227   -2.4424400459    1.1544537207
 C    1.3835296093   -1.4589459200    1.1415270767
 O    1.2074204692   -0.4107352202    0.1673740518
 C    1.6147544218   -0.8909654646    2.4740568949
 C    1.7975937050   -0.4351531036    3.5707037898
 H    0.7318503411    1.3794483769   -1.2484791560
 H   -1.4735883780   -0.0345921846    1.4411062588
 H   -2.0812608173   -0.4432679455   -0.1504890780
 H   -1.8314927497   -2.7092494328    0.8556965544
 H    0.4663531823   -3.4632100791    1.4375799808
 H    2.2996930168   -1.9633519286    0.8143128025
 H    1.9619398512   -0.0280299902    4.5380416188