20

 C    0.1319857992    1.2517604398   -0.3914113669
 N   -0.0027332402   -0.1042250194    0.1355752349
 C    0.6139200737   -0.2507214306    1.4564983466
 C   -1.3532889740   -0.5962951627    0.0980193291
 C   -1.8799012955   -1.0923663722   -1.2472523925
 C   -1.5387850007   -2.0855128550   -0.1647111805
 N   -0.3636204463   -2.9119626467   -0.1790808361
 C   -2.3063932014    0.0539257385    0.9822613000
 N   -3.0264513707    0.6024467743    1.7039289348
 H    1.1936694067    1.5091356202   -0.4489235528
 H   -0.2901295459    1.3009879129   -1.3987257619
 H   -0.3724906719    2.0076983956    0.2331155695
 H    0.1437228204    0.3902741915    2.2202858953
 H    0.5399720805   -1.2926032026    1.7755881983
 H    1.6716901278    0.0194334609    1.3865630677
 H   -2.9189436687   -0.8962935251   -1.4857066815
 H   -1.1823520445   -0.9954048700   -2.0720916901
 H   -2.3779461418   -2.5443486113    0.3491757374
 H   -0.5047385220   -3.7088565217   -0.7925513804
 H    0.4151750554   -2.3726436165   -0.5456908709