18

 C   -0.0023425068    1.5235860756    0.0872685948
 C   -0.0169637639    0.0241968690    0.0065948333
 C   -0.0010954401   -0.6628462054   -1.1372024752
 C    0.0525283779   -2.1656580438   -1.1842280112
 O    0.3764267705   -2.7480850911    0.0657533923
 C   -0.3975945510   -2.1839601961    1.1145017860
 C    0.0095054688   -0.7276551582    1.3260998925
 O    1.2982278034   -0.6354314461    1.9352773304
 H    0.8470553272    1.8587715325    0.6934260480
 H    0.0702363878    1.9850222340   -0.9012250172
 H   -0.9083029797    1.9027881067    0.5775603168
 H   -0.0221019030   -0.1499895660   -2.0967848704
 H   -0.9097448523   -2.5686085609   -1.5533069022
 H    0.8244398700   -2.5007067170   -1.8868743688
 H   -1.4743962365   -2.2586579094    0.8898785136
 H   -0.1819478618   -2.7685501504    2.0126799517
 H   -0.6776940359   -0.2567875598    2.0399979885
 H    1.8930608553   -1.1326524337    1.3599529870