9

 O   -0.0812109142    1.2816223925    0.0422070657
 C    0.0573125688   -0.0342470893    0.0003559480
 N    1.1492198134   -0.7086487054   -0.0642809421
 N    0.6711004873   -2.0202956604   -0.0792165636
 C   -0.6838198542   -2.1047323570   -0.0239739485
 O   -1.4424886796   -3.0257094049   -0.0176159848
 O   -1.0830065314   -0.7401436392    0.0296385429
 H    0.8028607126    1.6721381894    0.0151974958
 H    1.3083348174   -2.7948050658   -0.1276357133