19

 C    0.0111788224    1.5768537202   -0.0233722990
 C    0.0556684151    0.0666760743   -0.0026122042
 C    0.4839481256   -0.7027023676   -1.2405649246
 C    0.3821678654   -1.9884991270   -0.8888142270
 C   -0.0984535496   -1.9309976179    0.5448683291
 C    0.7222287994   -0.7503796071    1.1850034613
 C   -0.1071113051   -0.3645007836    2.3990485721
 O   -1.4415646669   -0.3943038204    1.8347377399
 C   -1.1823434461   -0.7874375280    0.5069825064
 H    1.0174503315    2.0069058527   -0.0817139635
 H   -0.5534930377    1.9375183474   -0.8902451318
 H   -0.4767940399    1.9714785188    0.8727375585
 H    0.7579555744   -0.2608271871   -2.1888200948
 H    0.5498333846   -2.8831553643   -1.4712001021
 H   -0.2830969487   -2.8513224653    1.0993321932
 H    1.8070843764   -0.8070997994    1.2892399343
 H   -0.0384196620   -1.0838744052    3.2234536405
 H    0.1096528475    0.6376614366    2.7860318286
 H   -2.1073835364   -0.8735508771   -0.0649574468