20

 C   -1.9558156773    1.9175855039   -0.0785222207
 C   -2.4510146420    0.4777959017   -0.2066794581
 C   -1.3520541438   -0.5471519308   -0.0134584897
 N   -0.1809962469   -0.1370540950    0.2823021758
 N   -1.6621726663   -1.9277873223   -0.1909138417
 C   -0.5329052349   -2.8511593126   -0.2788579556
 C   -2.9711979643   -2.4374512224   -0.2055981754
 N   -3.0557580500   -3.8104923262   -0.0115641393
 O   -3.9679498861   -1.7759318671   -0.4097373792
 H   -2.7933021515    2.6062610956   -0.2278014711
 H   -1.5212944298    2.1037080408    0.9060610615
 H   -1.1840341398    2.1412528580   -0.8188515622
 H   -3.2497821712    0.2783311113    0.5136107555
 H   -2.9223431218    0.3072975757   -1.1785462594
 H    0.4894981174   -0.8879685290    0.4261695932
 H   -0.1151597044   -3.1155950169    0.7025032161
 H   -0.8489937065   -3.7596405364   -0.7890414290
 H    0.2598328201   -2.3939356931   -0.8756613721
 H   -2.4053835929   -4.2625053073    0.6121060527
 H   -4.0147742982   -4.1020843679    0.1057354888