14

 O    0.2021834051    0.9648013772   -0.9169430014
 C   -0.0462292024    0.1040958843    0.1866748839
 C   -1.4127477718   -0.3924683536    0.1297427292
 C   -2.5403852106   -0.8217180249    0.1058423531
 C   -3.8580061526   -1.2956539963    0.0874106201
 C   -5.0487997721   -0.8165709621    0.5529652053
 N   -6.0604796173   -1.7093933761    0.2558096236
 C   -5.4553953425   -2.6726685973   -0.3642325323
 O   -4.1272442173   -2.5110895553   -0.5125217802
 H    1.1128712641    1.2691244924   -0.8445927580
 H    0.6402196138   -0.7583417930    0.1876453320
 H    0.0993272367    0.6277619884    1.1457432441
 H   -5.2328375728    0.1076653128    1.0762890315
 H   -5.8819408002   -3.5766840965   -0.7703507910