18

 C   -0.1763737190    1.5084916390    0.0137657276
 C    0.0378472756    0.0004258710   -0.0341532813
 O    0.8089644766   -0.2811530902   -1.1911472895
 C    0.7446309144   -0.4988061860    1.2212948691
 C   -0.0292108214   -1.1748215533    2.3231451109
 C    0.8706102454   -1.9938713381    1.4117761017
 O    0.3000216384   -2.7697674788    0.3946678576
 C    2.0955101148   -2.5340753176    1.9601458190
 N    3.0614187428   -2.9910511169    2.4032058348
 H    0.7865433453    2.0264743659    0.0613285878
 H   -0.6969340105    1.8392327960   -0.8883576018
 H   -0.7702791611    1.7903367421    0.8879872086
 H   -0.9392918650   -0.5001045934   -0.0998551894
 H    0.8620774997   -1.2411597292   -1.2646721141
 H    1.6171006949    0.0792315360    1.5102274195
 H    0.2747442085   -1.0363831401    3.3539885520
 H   -1.0935140941   -1.3188137937    2.1666869195
 H   -0.0017815653   -3.6059629325    0.7675599180