21

 C    0.1194886398    1.2071174778   -0.0638230655
 O   -0.3878141136   -0.0419964999   -0.4974375474
 C    0.4906240340   -0.7296146092   -1.3314318578
 C    1.4821893970   -1.7116216979   -0.7409655139
 C    1.6795868314   -1.8357676334    0.7561601292
 C    0.2389003789   -2.2114948885   -1.4504047815
 C   -0.9444221121   -2.8129635191   -0.7274847440
 C   -2.2754430493   -2.6259154391   -1.4305274522
 O   -0.8498763111   -3.3947724401    0.3280648460
 H    1.0400831098    1.0908887293    0.5227190923
 H    0.3287952479    1.8697645511   -0.9168618242
 H   -0.6501582744    1.6653239707    0.5610415179
 H    0.7718847895   -0.1737174489   -2.2279359256
 H    2.3952763188   -1.8283637832   -1.3207115405
 H    0.7810206579   -1.5513112421    1.3038308063
 H    1.9211535503   -2.8639495411    1.0368364098
 H    2.5045958162   -1.1906772289    1.0785247440
 H    0.3626259463   -2.6196522378   -2.4511900622
 H   -2.5256338121   -1.5588616453   -1.4110755438
 H   -2.2152470303   -2.9249898379   -2.4825019734
 H   -3.0531914349   -3.1970423666   -0.9217702433