16

 C    0.0044008363    1.5305143865    0.0990186592
 C   -0.0336824541    0.0476856015   -0.0615480443
 C    0.1409114972   -0.7628950171   -1.1583312869
 O    0.4399666027   -0.7025752120   -2.4745142877
 C    0.2633933041   -2.0531738002   -2.9839623695
 C    0.2501197062   -3.0037907518   -1.7482728038
 N   -0.0144070330   -2.0216123474   -0.7170026606
 N   -0.2601306660   -2.0548542948    0.6127456445
 N   -0.2773630372   -0.8040043711    0.9908808382
 H    0.9828253536    1.9472344457   -0.1637435755
 H   -0.7432031509    2.0308333022   -0.5259355661
 H   -0.2021311532    1.7770725374    1.1427035225
 H   -0.6903328077   -2.0932029945   -3.5197162074
 H    1.0783063644   -2.2599553959   -3.6784979396
 H   -0.5363293368   -3.7580947844   -1.8131481305
 H    1.2109529246   -3.5011503641   -1.5809402322