21

 C    0.1213579324    1.5754855782    0.1574747158
 C    0.0188954269    0.0629985740    0.0459487556
 C    0.7277481260   -0.6832961329   -1.1559634655
 C    1.1279532048   -1.8334038420   -0.1541809621
 C    0.2080624405   -3.0468785595   -0.2265560713
 O    2.4819081705   -2.2524593489   -0.0106751487
 C    2.9457022862   -1.8077688978    1.2770592763
 C    1.9688330178   -0.7230965408    1.7090348782
 C    0.9081544445   -0.8041758389    0.9147658369
 H    1.1662578250    1.8979393280    0.1058153446
 H   -0.4280007255    2.0659239439   -0.6531515075
 H   -0.2955521666    1.9320452294    1.1054694650
 H   -1.0304288145   -0.2506579564    0.0917297495
 H    0.1011575092   -0.9558841623   -2.0098705499
 H    1.6116586561   -0.1359178235   -1.4898493160
 H    0.4507597022   -3.6427602197   -1.1123781551
 H    0.3330715419   -3.6796768690    0.6569910901
 H   -0.8433520263   -2.7499452377   -0.2945895896
 H    3.0052349961   -2.6601457732    1.9732697005
 H    3.9619478662   -1.4066369173    1.1664989099
 H    2.2226799267    0.0470929465    2.4266979130