21

 C   -0.1215859284    1.5771733074   -0.1650773003
 C   -0.0073700633    0.0515741273    0.0086842764
 C    0.7247348891   -0.5766212224   -1.1593684481
 C    1.9542001958   -0.9735009936   -0.8366187323
 C    2.2624337397   -0.7218021291    0.6192703139
 C    0.8605051721   -0.4286852444    1.2182883408
 C    0.8709199643    0.4893573792    2.4499350024
 C    1.5716783518   -0.1624743730    3.6200172759
 O    2.5170940969    0.2959414208    4.2077748061
 H    0.8645757350    2.0464738369   -0.2424037936
 H   -0.6703859474    1.8137332287   -1.0824879386
 H   -0.6578417701    2.0412513094    0.6688545020
 H   -1.0256473771   -0.3471934620    0.1050254540
 H    0.2906235568   -0.6211266495   -2.1528093162
 H    2.6771303121   -1.3999278265   -1.5232788906
 H    2.7526364316   -1.5699190005    1.1112297850
 H    2.9456995862    0.1320337879    0.7366736450
 H    0.4412007035   -1.3952827785    1.5269273762
 H    1.3552541934    1.4481393527    2.2462798477
 H   -0.1651512971    0.6859990980    2.7634860670
 H    1.1385424949   -1.1484368188    3.9163146372