22

 C    0.0498069739    1.6140518675    0.1094214811
 N    0.1590090998    0.1613022349    0.1194785056
 C    1.3680980599   -0.5402721726   -0.2934737588
 C    2.6956258226    0.2001694251   -0.3730647938
 C    3.0436310935    0.6791042455    1.0684715282
 O    3.1179686993    2.0974116464    1.2027149066
 C    1.9186559312    0.1585286685    1.9963773611
 C    0.8982830857   -0.5857291023    1.1332493556
 C    0.1699787177   -1.7560875854    1.7524196492
 H    0.9509628527    2.1646263147    0.4052857544
 H   -0.2328870868    1.9299418024   -0.9008293090
 H   -0.7650350656    1.9035960844    0.7815901747
 H    1.2060387365   -1.3636485079   -0.9872757375
 H    3.4650840611   -0.4784698082   -0.7566662664
 H    2.6590882968    1.0580917414   -1.0555238037
 H    4.0072777136    0.2482088593    1.3738817669
 H    3.8114616361    2.4153569934    0.6158023974
 H    2.3218436557   -0.5251399909    2.7497753710
 H    1.4780810975    1.0019049029    2.5384945594
 H   -0.4400881137   -1.4333065763    2.6046566193
 H   -0.4973449223   -2.2173012935    1.0205566995
 H    0.8737228649   -2.5136703694    2.1162915192