16

 O   -0.0902269989    1.3843346241    0.0786958264
 C   -0.0025952944    0.0049125964    0.0556876436
 C   -1.3503173784   -0.7579470444    0.0519492626
 C   -0.8818341218   -2.1802816433    0.2427557660
 C   -0.9041052440   -1.5862062070   -1.1482447406
 C    0.4564294274   -0.8665257312   -1.1582013209
 N    1.4680828662   -1.6146324459   -0.2905595382
 C    0.5542287303   -2.1801333827    0.7430387060
 C    1.0375852683   -0.7916976473    0.8993974422
 H    0.7869270088    1.7504566597   -0.0802633895
 H   -2.3237991589   -0.3690005273    0.3238022103
 H   -1.5787694548   -2.9608299671    0.5169268520
 H   -1.4702985593   -1.9838824510   -1.9807844526
 H    0.8690818364   -0.4520871707   -2.0753471920
 H    0.9525600983   -3.0072225992    1.3187351787
 H    1.7368906548   -0.4198953433    1.6426720659