21

 O   -0.7572950110    0.9122903847    0.5481688108
 C    0.1113922548    1.0797066937   -0.2724981912
 C    1.2870092498    2.0095848682   -0.1407935157
 C    1.2136096516    3.2856483113   -1.0378905880
 C    0.0534292642    4.0664404306   -0.3808986989
 C    0.2342663209    3.7636462456    1.1413808566
 C    1.4507739375    2.8066288260    1.1716636196
 C    2.7201074709    3.6281042480    0.8515777839
 C    2.5473406835    3.9728895362   -0.6654394163
 H    0.0908411851    0.5159732856   -1.2358351074
 H    2.1821213102    1.4252556868   -0.3976243674
 H    1.0880051840    3.1111408739   -2.1086814374
 H    0.1062096530    5.1336593637   -0.6142979248
 H   -0.9148848007    3.7046661719   -0.7396571638
 H    0.4270962260    4.6667689540    1.7276720274
 H   -0.6501652319    3.2758845041    1.5521171709
 H    1.5187669598    2.2096106753    2.0819699604
 H    2.7958614622    4.5191336062    1.4813130806
 H    3.6253061800    3.0358892617    1.0181207413
 H    3.3738576668    3.5714327547   -1.2595082486
 H    2.5073584233    5.0498847279   -0.8528714119