12

 C   -0.0339643982    1.4574327093    0.0095439296
 N   -0.0402906469    0.0110859542    0.0011613463
 C   -1.1464827605   -0.8386782401    0.0042515268
 C   -0.6715721326   -2.0893228318   -0.0067110361
 O    0.7051435039   -2.0641096847   -0.0165758991
 C    1.1150021384   -0.7438768751   -0.0111058962
 O    2.2620952572   -0.3825937911   -0.0178795822
 H    1.0103514197    1.7730593147    0.0025274803
 H   -0.5378455398    1.8597393954   -0.8755314402
 H   -0.5226676191    1.8494373030    0.9076738775
 H   -2.1574124569   -0.4689128839    0.0135981414
 H   -1.1422625753   -3.0559649398   -0.0092911581