17

 C   -0.0041570172    1.4243340211   -0.0174562047
 N   -0.0037933232   -0.0219994245    0.0369117424
 N    0.0007558683   -0.7447451941   -1.1146005333
 C    0.0005950796   -2.0256608491   -0.7354026934
 C   -0.0039600093   -2.1314677824    0.6677795905
 C   -0.0065579837   -0.8369032516    1.1124428889
 C   -0.0115819038   -0.7684457013    2.6030537811
 O   -0.0118908514   -2.1482365537    2.9884327499
 C   -0.0071974375   -3.0429330201    1.8519119992
 H    0.8869586974    1.8349429370    0.4681760515
 H   -0.0047248083    1.7080631866   -1.0692326827
 H   -0.8951084590    1.8342195201    0.4690230955
 H    0.0036813225   -2.7972405607   -1.4908238130
 H    0.8741385183   -0.2677278895    3.0230010298
 H   -0.9008002507   -0.2690118226    3.0170924074
 H   -0.8937663978   -3.6896329390    1.9100109643
 H    0.8801165458   -3.6880444163    1.9160476166