13

 N    0.0444457252    1.3684671666   -0.0726759957
 C   -0.1189877025    0.0171468534   -0.0974981811
 C   -1.2520487347   -0.6824174505    0.1077948786
 C   -1.2421058861   -2.1077935233   -0.0339603243
 N   -2.2267166988   -2.8826640510    0.1209403402
 O    0.0204510006   -2.6614852318   -0.3803724219
 C    1.1459044787   -1.9569857354   -0.5615641647
 O    2.1886919088   -2.4553790752   -0.8338481582
 O    1.0602724008   -0.5909845615   -0.4198860243
 H    0.9883019611    1.7011097813    0.0491122891
 H   -0.6737965578    1.9113808313    0.3777942036
 H   -2.1811910427   -0.1991574837    0.3687026736
 H   -1.9595218426   -3.8540829900   -0.0338117350