14

 C    0.1658459223    1.5234363959    0.0462185938
 C   -0.0382193714    0.0588364187   -0.0321341903
 C   -1.1045267763   -0.7423955003    0.0077138604
 C   -2.5628401198   -0.5270154622    0.1480368034
 O   -0.6666196689   -2.0583672602   -0.1165496815
 C    0.6935200850   -2.0360910741   -0.2327225335
 O    1.4010242251   -2.9836841920   -0.3560373923
 O    1.0973797003   -0.7328192912   -0.1821665252
 H    0.8037958339    1.7869581358    0.8970139041
 H    0.6518295511    1.9022036925   -0.8596682337
 H   -0.7922786090    2.0340635819    0.1625879115
 H   -3.1041048017   -0.9206799388   -0.7193410243
 H   -2.9520255098   -1.0348329026    1.0373853166
 H   -2.7818898609    0.5390572466    0.2362868511