23

 C    0.1060593552    1.5509398301    0.0500524502
 C    0.1709740558    0.0219031954    0.0439898980
 C    0.5743164312   -0.5519523946   -1.3286110690
 C    0.6449208845   -2.0495787810   -1.3576709278
 C   -0.1385129263   -2.8820907861   -2.0525705310
 C    0.1966514631   -4.3331348511   -1.8008235185
 C    1.6052744821   -4.2484899079   -1.1602094593
 O    2.6287961947   -4.4061992104   -2.1351363189
 C    1.6418989459   -2.8372676388   -0.5244245730
 H    1.0773963836    1.9900433559   -0.2036029350
 H   -0.6231269803    1.9197193186   -0.6799608697
 H   -0.1852173607    1.9329553288    1.0334072448
 H    0.8836181676   -0.3176678261    0.8055977359
 H   -0.8033415004   -0.3936450582    0.3293372658
 H   -0.1366381297   -0.2034958944   -2.0878560606
 H    1.5543609513   -0.1334878259   -1.6029433161
 H   -0.9477473485   -2.5662564974   -2.7032441012
 H   -0.5300213990   -4.7952850144   -1.1172249762
 H    0.2229204425   -4.9551908538   -2.7021656134
 H    1.7865832793   -5.0426321018   -0.4320069580
 H    2.4840771041   -3.7306868947   -2.8080492776
 H    2.6594685806   -2.4302515506   -0.5476913138
 H    1.3351245235   -2.8657617715    0.5304781747