23

 C    1.7877521840   -0.6346884246    1.6428094419
 C    0.7914451328   -0.1602133453    0.5793310746
 C    0.9365783775   -0.8428467894   -0.7881180122
 C    2.2929761786   -0.5676844650   -1.4531404522
 C    0.4986525961   -2.3479745583   -0.8838941870
 C   -0.4561057562   -2.0237942401   -2.0782324651
 C   -1.8912346868   -2.5343951302   -2.0798916282
 C   -0.2288505201   -0.5380326954   -1.7552217348
 O   -0.8190209690    0.4669820117   -2.0368805664
 H    1.7220925419   -1.7171806256    1.7983803038
 H    2.8207467664   -0.3994108768    1.3697631002
 H    1.5840727322   -0.1501705026    2.6026799158
 H   -0.2295990505   -0.3262069507    0.9452318706
 H    0.8850445827    0.9228612837    0.4344453033
 H    3.1108249569   -0.9958304703   -0.8654291722
 H    2.3456101169   -1.0056228087   -2.4555139114
 H    2.4655887445    0.5090606937   -1.5501148850
 H    1.2949301296   -3.0664138048   -1.0874402226
 H   -0.0532779284   -2.6741892621    0.0024793986
 H    0.0286592183   -2.2612338881   -3.0337550507
 H   -2.3875802388   -2.3148808376   -1.1288552168
 H   -2.4688174852   -2.0532459361   -2.8748677808
 H   -1.9274044434   -3.6169480273   -2.2381242831