18

 O    0.0653572341    1.3868010909    0.0862439912
 C    0.0938697765   -0.0319597690   -0.0289626047
 C   -1.3164487514   -0.5161569614   -0.0944359723
 C   -2.2234916267   -0.7409068153    1.0875149465
 C   -1.9421813719   -1.8868731648    0.1464784387
 C   -2.7351321571   -1.7124660680   -1.1606408953
 N   -2.1124504367   -0.3842256333   -1.3137412613
 C   -2.6484273584    0.7292576630   -1.8870082880
 O   -3.5910359444    0.7160601136   -2.6511404798
 H    0.9528486806    1.7208518336   -0.0765401849
 H    0.6280970845   -0.3448456007   -0.9380299552
 H    0.5927064361   -0.4972153278    0.8358192999
 H   -1.7219968871   -0.8022171643    2.0482275632
 H   -3.2050926480   -0.2762167888    1.1137314476
 H   -1.4560818341   -2.7994586302    0.4622364019
 H   -2.4403083123   -2.4018839186   -1.9571399793
 H   -3.8264150550   -1.6890725745   -1.0837195727
 H   -2.0900952588    1.6414550856   -1.6024284657