21

 C   -0.0015330889    1.4686224073    0.3585598146
 C    1.4825179008    1.5923129999   -0.0781720449
 C    1.3890618595    0.1980665305   -0.7573215026
 C   -0.0071639320   -0.0315291203   -0.0636224970
 C   -1.1504889343   -0.5011833601   -0.9918610198
 C   -0.7279246001   -0.3322142170   -2.4523811910
 C    0.5768917254   -1.0957229248   -2.7599733770
 C    1.2162147929    0.2173828600   -2.2681116084
 O   -0.0144821822    0.9334808691   -2.6002731219
 H   -0.2211490041    1.6723621985    1.4100301444
 H   -0.6666233853    2.0679321848   -0.2655882503
 H    1.7234086214    2.4293619361   -0.7385282665
 H    2.1811385971    1.6031385906    0.7622506157
 H    2.1795666396   -0.5117399720   -0.4914173373
 H    0.0770412226   -0.6862158233    0.8068830837
 H   -1.4123948632   -1.5523066095   -0.8177835819
 H   -2.0530918284    0.0879358984   -0.7913652775
 H   -1.5599376780   -0.4161792439   -3.1568149295
 H    0.7853971658   -2.0122552139   -2.2020555617
 H    0.7219056664   -1.2585209008   -3.8290560364
 H    2.0797580851    0.6277819002   -2.8013203146