20

 C   -0.1548699639    1.5336310929    0.0967459110
 C    0.0312722700    0.0147528760    0.0378178078
 C    0.7197547665   -0.4663165694   -1.2378823790
 C    1.0006568589   -1.9804689572   -1.3105402128
 C    0.8596971016   -2.3160034821   -2.8041184845
 O    1.3480392458   -3.2518099488   -3.3832802656
 C    0.0533789695   -1.2110632725   -3.4197122042
 C   -1.2281061395   -0.9144025050   -2.7026141459
 N   -0.0530560053   -0.0905599845   -2.4657863063
 H    0.8109925044    2.0493879413    0.0628841833
 H   -0.7482699554    1.8890185902   -0.7495658654
 H   -0.6598447080    1.8308826958    1.0206317164
 H    0.6297152943   -0.3219800701    0.8933599423
 H   -0.9410709980   -0.4867234613    0.1321707039
 H    1.6728075145    0.0672546339   -1.3416398032
 H    1.9963442072   -2.2552595454   -0.9584960469
 H    0.2820339393   -2.5768517805   -0.7348889224
 H    0.1694215373   -0.9988888403   -4.4767570153
 H   -2.0267035174   -0.4294045813   -3.2556714634
 H   -1.5657251021   -1.6128709517   -1.9406144799