15

 O   -0.1293418601   -0.0171185716    0.0074318390
 C   -0.0787337985    1.1874323793    0.0121904592
 N   -1.1515127125    2.0744986510    0.0304613755
 C   -0.6518942706    3.3717738802    0.0300124324
 N    0.6219099548    3.4778297951    0.0134639511
 C    1.1379232717    2.1142451484    0.0004961702
 C    2.2669710069    1.7893074206    1.0149347673
 O    3.2232797597    1.5481175350   -0.0294680824
 C    2.2399080318    1.7987094587   -1.0461573114
 H   -2.1196894924    1.7973285132    0.0419316907
 H   -1.3364109858    4.2134417572    0.0428673658
 H    2.5388782058    2.6380606281    1.6503170571
 H    2.0807223798    0.8946742931    1.6200546139
 H    2.0377153827    0.9096085277   -1.6543064519
 H    2.4951412569    2.6532504640   -1.6806972565