20

 O   -0.0404445377    1.4453454536   -0.0335223132
 C    0.0541428596    0.0300769618    0.0014506432
 C   -1.3627631828   -0.5288079646    0.0048585362
 C   -1.3964982007   -2.0547608516    0.0771155236
 N   -2.7557990975   -2.5634611589    0.0468991198
 C   -3.6084123490   -2.3454372900    1.2408182805
 C   -4.0436343340   -3.8137001511    1.1257849976
 O   -4.8910406300   -4.4912159579    1.6214844223
 C   -2.9341465945   -4.0332212440    0.0870474499
 H    0.8504447728    1.8069872906   -0.0401337963
 H    0.6049996122   -0.3553759098   -0.8725115873
 H    0.5936890812   -0.3112596679    0.9005813881
 H   -1.8995164119   -0.0994832543    0.8595089181
 H   -1.8855677633   -0.1959476083   -0.8977837639
 H   -0.8644148382   -2.4779286931   -0.7841431416
 H   -0.8554018873   -2.3989656694    0.9835510983
 H   -3.0496979188   -2.1689690424    2.1762228399
 H   -4.3825124780   -1.5781511227    1.1406222074
 H   -3.2124294681   -4.5022367399   -0.8626451073
 H   -2.0849590240   -4.5861257399    0.5238725847