16

 C   -0.1586233644    1.5860516981    0.0275768549
 C    0.0381091907    0.0663743801    0.0378786740
 C    0.8789257545   -0.4298556468   -1.1422923356
 O    0.7567880616   -0.1350133966   -2.2937742825
 O    1.8340784372   -1.3025456800   -0.7131451166
 C    1.8340256108   -1.4502749363    0.7114140434
 C    0.7699004682   -0.5072163498    1.2174515990
 N    0.5217404951   -0.2026644418    2.4247168722
 O    1.3752343579   -0.8967809132    3.2966528721
 H    0.7981823226    2.1041281827    0.1364804061
 H   -0.6110667942    1.8900429420   -0.9189219248
 H   -0.8061561670    1.8869752147    0.8535660917
 H   -0.9430822103   -0.4186741100   -0.0624681797
 H    1.6202936254   -2.4934155935    0.9701674208
 H    2.8239024460   -1.1989756519    1.1045704249
 H    1.1045920558   -0.5679824978    4.1607215401