19

 C   -0.4479630078    1.4307619275   -0.2513178298
 C   -0.0438521471   -0.0263616328   -0.0451668561
 O    0.5130932538   -0.6025825659   -1.2214584986
 C    1.8162344032   -1.1262116325   -0.9785916773
 C    3.0169893420   -0.1664852980   -1.2423599022
 C    3.4519544289   -0.3232644661    0.2444749469
 C    2.1186476729   -1.0769681082    0.5313800625
 C    0.9982744514   -0.1984502783    1.0713508503
 O    0.9290939833    0.2983883719    2.1653973405
 H    0.4133459497    2.0367496077   -0.5475953722
 H   -1.2089759122    1.5073003478   -1.0316785189
 H   -0.8507812256    1.8310072585    0.6830897379
 H   -0.9341941233   -0.6074413988    0.2447107804
 H    1.8921419244   -2.0951717649   -1.4777581552
 H    3.7385924213   -0.4951615165   -1.9929928775
 H    2.6763291509    0.8385719039   -1.5018283480
 H    4.3220901000   -0.9699989369    0.3715659399
 H    3.6123086942    0.5899149572    0.8214166293
 H    2.1785445000   -2.0026249856    1.1084923182