15

 O    0.3452207193    1.0470267783    0.0232757717
 C    0.0787207721   -0.3288469522   -0.0129741206
 C   -1.4634021835   -0.6166870284   -0.0151095856
 C   -2.0825259620    0.0275963163   -1.1628654658
 C   -2.5377754566    0.5981580991   -2.1178506363
 C   -1.6824906922   -2.1246105305    0.0055382506
 O   -1.8600489096   -2.8180939334   -0.9649839876
 C   -1.6214207892   -2.8033241632    1.3827285482
 O   -1.4380659180   -2.2080216802    2.4112359667
 H   -0.0631301736    1.4409319127   -0.7577039795
 H    0.5213473444   -0.8186361915   -0.8924538895
 H    0.5174772323   -0.7589004513    0.8909390760
 H   -1.8522584231   -0.2019616062    0.9214835407
 H   -2.9716935922    1.0847864015   -2.9566663668
 H   -1.7659729380   -3.9018965311    1.3227208878