19

 C    0.3370455375    1.3092451837    0.0271195530
 O   -0.1979267732    0.0264296079   -0.2140356608
 C    0.4227927667   -0.6468882895   -1.2856880652
 C    1.7689039770   -1.3363045681   -0.8978534858
 C    0.9575103236   -2.6156736163   -0.5959517260
 C   -0.2116576685   -2.0497493179   -1.4316171337
 O    1.5255541827   -3.8320239384   -1.0681690704
 C    1.6515640646   -4.8640476226   -0.2127743458
 O    2.1174223249   -5.9160789216   -0.5313653053
 H    1.4010358972    1.2725817115    0.3045956378
 H    0.2347378665    1.9603995120   -0.8547698370
 H   -0.2263884313    1.7440328177    0.8558820745
 H    0.4418345568   -0.0095716623   -2.1796080337
 H    2.4113850471   -1.4885624910   -1.7688636580
 H    2.3512951011   -0.8953379680   -0.0862459592
 H    0.7039152018   -2.7083250282    0.4648115230
 H   -1.2256098750   -2.1619869951   -1.0445136338
 H   -0.1588184703   -2.4142646154   -2.4599579297
 H    1.2789922608   -4.6257071983    0.8031294561