17

 O   -0.2338878094    0.2290019804   -0.7853138456
 C   -0.1376121242    1.2822800793   -0.2297081432
 C   -1.0946689768    2.1803377423    0.5756710895
 C   -0.0687122838    3.3392012761    0.4040660286
 C    1.0003365830    2.3371539502   -0.1315500843
 C    2.1632227640    1.9414937660    0.8111707418
 O    3.2716738686    2.6273407174    0.2521409231
 C    3.0535910747    2.5588898150   -1.1301420482
 O    1.6534201101    2.7005313178   -1.3266687754
 H   -2.0880698399    2.3155037917    0.1424085133
 H   -1.2122825707    1.8286084261    1.6059863589
 H   -0.3583082967    4.0400752080   -0.3808404922
 H    0.2041553422    3.8947002438    1.3026683272
 H    2.0297849275    2.2695899868    1.8432130674
 H    2.3215945711    0.8526333394    0.7859540334
 H    3.5782979955    3.3850992265   -1.6179802634
 H    3.3884040047    1.5910121131   -1.5406804009