20

 C    0.7330319827   -0.3237585882   -1.3335428275
 C    0.0339160182   -0.0592244336    0.0028896124
 C   -1.4595272213   -0.4211625807   -0.0151646484
 C   -1.7207312728   -1.9596963480   -0.0407003233
 C   -2.3035538226   -2.2456876381    1.3248304378
 C   -2.5272076927   -1.1072489090    1.9794996507
 N   -2.1349167233    0.0114833810    1.2307314355
 C   -2.3930665262    1.3021218425    1.5851114847
 O   -2.9466121998    1.6450480023    2.6099673086
 H    1.7894198170   -0.0459079881   -1.2804729044
 H    0.6843670167   -1.3791262944   -1.6201933245
 H    0.2753678118    0.2597708498   -2.1402793476
 H    0.5194592881   -0.6221205190    0.8097019571
 H    0.1352729503    1.0013139950    0.2607932370
 H   -1.9356805734    0.0729439439   -0.8691701357
 H   -2.4123566598   -2.2443219241   -0.8433118929
 H   -0.7910132009   -2.5104489883   -0.2234739724
 H   -2.5196375719   -3.2360405661    1.6979664465
 H   -2.9553746859   -0.9302905955    2.9545433700
 H   -2.0387773943    2.0189155186    0.8189307362