17

 C   -0.0500229137    1.4300654517   -0.0394717755
 O    1.1943731113    2.0611090331    0.0481563420
 C    1.9217053408    2.1652509369   -1.1587085733
 C    2.1877855516    0.8502916656   -1.8752799625
 O    2.7196042352   -0.1960184540   -1.0213116905
 C    1.7253374889   -1.1036056234   -1.4811073252
 C    0.3426482864   -0.6507095974   -1.1400999769
 O    0.0243607721    0.0288300713    0.0355387927
 C    1.0257481846   -0.0384380478   -2.3342650043
 H   -0.6115865009    1.7400600292    0.8446149104
 H   -0.5784246981    1.7382562103   -0.9570271153
 H    1.4126768876    2.8369931572   -1.8723651203
 H    2.8741840456    2.6296369582   -0.8839120267
 H    2.8838772799    1.0380460788   -2.7046291534
 H    2.0250946368   -2.1269075063   -1.6767661413
 H   -0.4205241638   -1.3763059519   -1.4203719914
 H    0.6227288659   -0.0624308115   -3.3381528087