16

 O   -0.3802554347    0.6685657031    0.8533033839
 C    0.1665272037    1.0418400757   -0.1630880088
 C    1.3381556741    1.9081800704   -0.1933312603
 C    1.8344887576    2.8626409690    0.9010557599
 C    2.5948212052    1.6087169640    0.7124291098
 N    3.7048594899    2.2045120000   -0.0642161668
 C    3.4079451019    1.8733394286   -1.5098173360
 C    2.0785861885    2.6320536621   -1.3378454488
 C    2.7776367241    3.4314497313   -0.1823389226
 H   -0.2037513436    0.7270486418   -1.1659505079
 H    1.3004522525    3.2708572078    1.7471687286
 H    2.6604585224    0.7059834433    1.3044557853
 H    4.1264252041    2.3915906300   -2.1510580943
 H    3.3873032471    0.8061955568   -1.7481111218
 H    1.5042049631    3.0750651538   -2.1505354419
 H    3.2181659440    4.4231118623   -0.2514364083