21

 C   -0.0908905742    1.5187313355    0.0020873508
 C    0.0296558365    0.0043757101   -0.0034196843
 C    0.9492901002   -0.7022481017   -1.0529019175
 C    1.1843970259   -1.7971692543    0.0296115177
 C    0.8920006067   -0.6961652933    1.0870475036
 C    0.0541470919   -2.8410247216   -0.0011561847
 C   -1.3087906957   -2.1691775217   -0.0894431224
 O   -1.7693753927   -1.4392441582    1.0594294079
 C   -1.3280472212   -0.7000480886   -0.0849291254
 H    0.8965714424    1.9906301840    0.0330829059
 H   -0.6064232232    1.8821237946   -0.8949996702
 H   -0.6575812395    1.8663839370    0.8736589947
 H    0.5045430986   -1.0008428716   -2.0081500188
 H    1.8568615221   -0.1215971742   -1.2415022156
 H    2.1628180291   -2.2823680156    0.0554650443
 H    1.7854719736   -0.1042424293    1.3058785865
 H    0.3959980745   -0.9839772814    2.0143720232
 H    0.1750068706   -3.4879208433   -0.8792885342
 H    0.0969248903   -3.4911156599    0.8814535318
 H   -2.0988233450   -2.7208683077   -0.5974441185
 H   -2.1204697509   -0.1621937489   -0.6062691047