20

 C    0.0782932664    1.6065396211    0.0473138371
 C   -0.0176088285    0.0783512079   -0.0698808192
 C    0.4558795671   -0.3961160609   -1.4736637051
 C    0.4345309724   -1.8920330178   -1.6807015731
 C    1.3693736442   -2.7709573970   -1.3145060647
 C    2.6436152235   -2.4544715267   -0.5802699720
 O    2.6111770892   -1.1683594765    0.0415481009
 C    1.7302020014   -1.0817096190    1.0975061148
 N    0.6098031391   -0.5168857829    1.1049064067
 H    1.1175665590    1.9348394060   -0.0585702571
 H   -0.5168715823    2.0902525936   -0.7332923406
 H   -0.2873374426    1.9382870536    1.0221819023
 H   -1.0782266372   -0.1923332904    0.0226702345
 H   -0.2263665031    0.0643083766   -2.1982704887
 H    1.4502986525    0.0077911222   -1.6693942982
 H   -0.4500082369   -2.2880373217   -2.1755553812
 H    1.2242927979   -3.8253776948   -1.5408346895
 H    2.8490768387   -3.2359166787    0.1693038508
 H    3.5053586868   -2.4287944982   -1.2577894312
 H    2.1097630023   -1.5435843964    2.0142152837