16

 O   -0.2616194303    1.5299906395   -0.3471923302
 C   -0.3063221878    0.1423344538   -0.1927173992
 C   -0.4002489080   -0.6283818583    1.0781879759
 C   -1.4436226728   -0.1362787068    2.0868927759
 C   -2.2003411471    1.0832509684    1.7138175742
 N   -2.5684031330   -0.2125986098    1.0984389779
 C   -1.5791748984   -0.6237251961    0.0359462957
 C   -1.9921202654   -1.7048728889   -0.8776063592
 O   -1.2548976888   -2.2482452910   -1.6687295182
 H    0.6194345762    1.8238392559   -0.0889014192
 H    0.2787188779   -0.4056464395   -0.9343721924
 H    0.2498125594   -1.4703262798    1.2827756863
 H   -1.5435995523   -0.6112143698    3.0570654218
 H   -2.9561525278    1.3990828840    2.4281904349
 H   -1.7581741254    1.8626228859    1.1126116772
 H   -3.0577264263   -1.9956829874   -0.7633527213