22

 C    2.1644615699    1.5613346344   -0.9254355294
 C    2.1092021997    0.0327246663   -0.9751088079
 C    0.7706496018   -0.5023957667   -1.5005451624
 C    0.7000172439   -2.0186486836   -1.5110244433
 C   -0.2044600468   -2.7341769729   -2.4854774086
 C    1.3030777088   -2.7831379939   -2.6506226127
 O    0.8911367433   -2.6372611322   -0.2631820640
 C   -0.1920029400   -2.4970005202    0.6347417627
 H    2.0206275519    1.9984623666   -1.9202351514
 H    1.3821321415    1.9664649070   -0.2733744686
 H    3.1282569296    1.9136427130   -0.5446057405
 H    2.9189836568   -0.3482531939   -1.6098475948
 H    2.2885321138   -0.3824967134    0.0228435923
 H   -0.0507074850   -0.0949486639   -0.8952257018
 H    0.5972198582   -0.1386687606   -2.5209056275
 H   -0.6891596235   -3.6399258417   -2.1384778551
 H   -0.7879912565   -2.1472353867   -3.1868312483
 H    1.7560834329   -2.2263765514   -3.4639217393
 H    1.7979697576   -3.7144814883   -2.4016706130
 H   -0.3329503438   -1.4579174306    0.9641332294
 H   -1.1342716540   -2.8504954403    0.1924572178
 H    0.0417169197   -3.1085382370    1.5097797567