13

 C   -0.1326751753    1.3728820138    0.0879819054
 N   -0.0521086577   -0.0738859422    0.0047371204
 C   -0.0288847655   -0.8734451095   -1.0879823049
 N    0.0503585643   -2.1408893576   -0.7311967964
 C    0.0720270658   -2.0419922349    0.6126277454
 N    0.0130781880   -0.8227822225    1.1200242874
 N    0.1562191472   -3.2124750690    1.4850299720
 O    0.2067535516   -4.3004403405    0.9363248536
 O    0.1688312590   -3.0027423512    2.6880572095
 H    0.7476912387    1.7639053095    0.6018795006
 H   -0.1762754157    1.7764498753   -0.9245247748
 H   -1.0300580174    1.6628179093    0.6381447791
 H   -0.0709837128   -0.4926711405   -2.0974234874