19

 C   -0.5445880604    1.3732948726   -0.1372938616
 C   -0.0603474465   -0.0803187459    0.0472909227
 C    0.9017058280   -0.1840746892    1.2502015643
 C   -1.2669616272   -1.0558193097    0.2169462032
 N   -2.0657855295   -0.7988191111    1.4001558150
 C   -3.2657641932   -0.1506616850    1.3509818012
 O   -3.7397724118    0.3572791882    0.3590692996
 C    0.6540726639   -0.5082616070   -1.1661774040
 N    1.2105430769   -0.8591010346   -2.1167265587
 H    0.3037799408    2.0399467658   -0.3120466261
 H   -1.2366313519    1.4557243149   -0.9776612470
 H   -1.0651605935    1.7036608368    0.7646207750
 H    0.3807165851    0.1208969072    2.1623342097
 H    1.2710506107   -1.2058661382    1.3789466399
 H    1.7639140180    0.4734894580    1.1154234010
 H   -1.9287643534   -0.9624362677   -0.6464867997
 H   -0.8923021828   -2.0833807016    0.2546050169
 H   -1.8003392707   -1.2292586148    2.2711831737
 H   -3.7656558124   -0.1368976287    2.3392431450