19

 C    0.1524179465    1.2545881498    0.3341596174
 C   -0.0600129832   -0.1624755758   -0.1926498593
 C    0.8401580691   -0.4922563864   -1.3639518298
 O    1.6510721826    0.2395865732   -1.8645587775
 O    0.6026388528   -1.7584399320   -1.8041217545
 C    1.3831133616   -2.2125302844   -2.8955834073
 C    2.4822558496   -3.2000694819   -2.5946101633
 C    1.1684168923   -3.6650916748   -3.1929190037
 O    0.2700284166   -4.3943317583   -2.4167792303
 H    1.1830328108    1.3975918927    0.6681037225
 H   -0.0447051258    1.9952247250   -0.4447633356
 H   -0.5155191948    1.4517470721    1.1769047806
 H    0.1210619283   -0.9124474249    0.5868605225
 H   -1.0964753166   -0.3213979024   -0.5135447838
 H    1.5018444432   -1.4748965143   -3.6791807791
 H    3.3761800963   -3.1767209852   -3.2080690576
 H    2.6384977853   -3.4459654224   -1.5499176922
 H    1.1595523280   -3.9745523595   -4.2342910574
 H   -0.1842472326   -3.7676811406   -1.8412796217