20

 C   -0.4023042564    1.3814761230    0.0257656174
 C    0.0366333700   -0.0719743488   -0.0660219356
 C    1.3702000076   -0.3674467413   -0.7859404304
 O    1.9370811667   -0.9490482931    0.4093900698
 C    0.7330707701   -0.7058848824    1.1586420590
 C    0.9590421453   -0.0201702328    2.5507022607
 C    0.3473765031   -1.2589771200    3.2121363002
 N   -1.0159036117   -1.3889545777    2.6403564548
 C    0.1580595674   -1.9207590509    1.8951722536
 H    0.4114700778    2.0212884755    0.3843130189
 H   -0.7146845143    1.7573019776   -0.9548664977
 H   -1.2466039006    1.4892469105    0.7132808506
 H   -0.7909456156   -0.6923193288   -0.4208922312
 H    1.3323203873   -1.0878339014   -1.6118863254
 H    1.9319341456    0.5180139773   -1.1110437057
 H    2.0335576336    0.0716827340    2.7252263345
 H    0.4576010133    0.9305405551    2.7467309128
 H    0.5868954823   -1.6876070304    4.1771325724
 H   -1.4606563995   -2.1871793740    3.0938359120
 H    0.2242090280   -2.9613397614    1.6012571494