22

 C    0.2824698524    1.2920358233    0.1859332006
 O   -0.2297678273    0.0415450194   -0.2129969131
 C    0.5019163290   -0.5512369529   -1.2545996417
 C    1.8026551268   -1.2934570640   -0.8307370320
 N    1.0494010705   -2.5644167063   -0.8464145843
 C   -0.0618768709   -1.9442120478   -1.5988473308
 C    1.6717197667   -3.7366830873   -1.3587504725
 C    2.4349510951   -4.6105868709   -0.3970084739
 C    1.1092619512   -5.0736367973   -0.9502140059
 H    1.3072103475    1.2157825269    0.5795098630
 H    0.2880217152    2.0129134020   -0.6474665025
 H   -0.3683568972    1.6716279808    0.9771747371
 H    0.6133309182    0.1508090328   -2.0920136499
 H    2.5873416841   -1.2338638696   -1.6017934277
 H    2.2355801289   -1.0282061342    0.1400972749
 H   -1.0615739227   -2.1581372280   -1.2084141742
 H   -0.0384227364   -2.1532388794   -2.6795767446
 H    2.0730893640   -3.6696957930   -2.3778458192
 H    3.3409686186   -5.0913012282   -0.7484461714
 H    2.4567841119   -4.2904153598    0.6379507894
 H    0.2582027407   -5.0600108734   -0.2795999239
 H    1.1030456536   -5.8726608531   -1.6830618573