20

 O   -0.9045830803    1.0079294737    1.0247683116
 C   -0.1206506016    0.2166418931    0.1360726414
 C    0.9792250480   -0.5790288031    0.8834835219
 C    0.3403493385   -1.9397126239    1.2693377482
 C   -1.1183923091   -1.8809283376    0.7464514818
 C   -1.0548630311   -0.8638884377   -0.4077676719
 N   -1.6631099143   -3.1721876255    0.3717458348
 C   -2.7141494517   -3.7657237579    0.9993708604
 O   -3.3315899645   -3.3031288764    1.9347600312
 H   -0.3168098660    1.6185812416    1.4802237748
 H    0.3006740240    0.8453079118   -0.6609336579
 H    1.8466103360   -0.7246629290    0.2317331758
 H    1.3306414741   -0.0165836753    1.7542134528
 H    0.8700915793   -2.7645523473    0.7796757900
 H    0.3712807671   -2.1398878332    2.3426639020
 H   -1.7793087298   -1.4977177977    1.5247207078
 H   -2.0321858947   -0.4625641850   -0.6836856958
 H   -0.6062123056   -1.3265261431   -1.2968730777
 H   -1.2270344874   -3.6744695253   -0.3868391947
 H   -2.9536696409   -4.7493258322    0.5463779636