17

 C   -0.0950123660    1.4653959891   -0.0031428387
 C   -0.0057564393   -0.0253418405   -0.0285412839
 C    0.9239335211   -1.0022734798   -0.8150928434
 C    0.8085513334   -2.0243438143    0.3250541091
 C   -0.1000656493   -1.0475357780    1.1198147449
 C   -1.1163032248   -1.0548203459   -0.0227579299
 O   -2.4613284141   -0.7965007309   -0.0351015704
 C   -0.1751403679   -2.0609803015   -0.8213027139
 O   -0.4106285534   -3.1125504023   -1.6661981361
 H    0.8272256098    1.9197384817    0.3765447308
 H   -0.2819285343    1.8707675775   -1.0046109019
 H   -0.9202303546    1.7860613451    0.6410645212
 H    1.7375919053   -0.8358689015   -1.5104636587
 H    1.5119668685   -2.7846594053    0.6377364400
 H   -0.2425267689   -0.8757444985    2.1797215288
 H   -2.9104425890   -1.4817589479    0.4737354455
 H   -0.6440558164   -2.7608222569   -2.5333252534