15

 O    0.1078275168    1.3509901845    0.0149513896
 C    0.0799408243    0.0032373536    0.0628188893
 N    0.1134216905   -0.7336666203   -1.0428737233
 N    0.0694367605   -2.0271278495   -0.5966336340
 C    0.0106086487   -2.0770005992    0.7472036761
 C    0.0146936365   -0.7948146084    1.2230541365
 C   -0.0500909482   -0.8278503126    2.7140650872
 O   -0.0913477768   -2.2397326015    3.0289875903
 C   -0.0563134540   -3.0681829504    1.8621473801
 H    0.1528081961    1.5990040267   -0.9174048687
 H    0.0841791374   -2.7713334189   -1.2705910921
 H    0.8255306011   -0.3824070278    3.2056876016
 H   -0.9465677835   -0.3477593324    3.1295532846
 H   -0.9557631720   -3.7010832948    1.8291085967
 H    0.8183218428   -3.7343724090    1.9058203761