16

 C   -0.2314660333    1.4641765039    0.1256025709
 C    0.3009853156    0.0602137110   -0.0255536726
 O    0.8818651545   -0.5001195204    0.8815838332
 C    0.1097405937   -0.6723161339   -1.3359875118
 C    1.2367976290   -1.6672717466   -1.6925593560
 C   -0.0428782990   -2.2043339386   -1.2055084112
 C   -0.5828445205   -0.0869434685   -2.5100946115
 O   -1.0752620091    1.0115966081   -2.5918203207
 H    0.2044823432    2.1248857692   -0.6290237120
 H   -1.3101768661    1.4884602163   -0.0528165136
 H    0.0019726023    1.8184016162    1.1303752697
 H    1.4856426773   -1.7609422605   -2.7440157905
 H    2.0721285282   -1.6425346764   -1.0037704400
 H   -0.0910021080   -2.5502882786   -0.1804082442
 H   -0.7171707588   -2.6854898515   -1.9055555517
 H   -0.6188001990   -0.7878715897   -3.3781117179