17

 C   -0.0153668542   -1.1626637490    0.1284106623
 C   -0.0496495265    0.0369447277    0.0107025659
 C   -0.0424808086    1.4404296716   -0.1309354796
 C   -1.0815304955    2.2763192412   -0.2450390304
 C   -2.4477127530    2.5875460239    0.3021597914
 O   -1.9133377813    3.8646529566    0.7756216800
 C   -0.7186665983    3.7103567863   -0.0722535258
 C    0.6993833633    3.6594412770    0.5175211560
 C    1.2372570688    2.2939151579   -0.0226578454
 H   -0.0010698806   -2.2192067371    0.2329171919
 H   -3.2452920588    2.7444963248   -0.4353832558
 H   -2.8133558718    1.9487381213    1.1127020722
 H   -0.8065112623    4.3747236779   -0.9423151687
 H    1.3308608304    4.5093308039    0.2454271331
 H    0.6235785900    3.6181592246    1.6085354369
 H    1.9605098335    1.8293629576    0.6529139800
 H    1.7366154850    2.4097245439   -0.9925366039