17

 C   -0.2669316791    1.3958939690    0.0954224874
 C    0.2333379847   -0.0368129407   -0.1224981026
 C    0.8442590730   -0.6267345179    1.1312093997
 C    0.0769071330   -1.3038732468    2.2118419392
 O   -1.0532616693   -2.0283928595    1.6558156878
 C   -0.1725557876   -2.8685665446    0.9670080446
 N   -0.4021018737   -3.9016080114    0.2970723014
 C    1.0515184158   -2.1281555623    1.3942935234
 H    0.5439518369    2.0584384775    0.4181633364
 H   -0.6856303110    1.8083133058   -0.8272868350
 H   -1.0477775009    1.4266109221    0.8621998738
 H   -0.5934250581   -0.6687528076   -0.4588214504
 H    0.9846081976   -0.0535865198   -0.9209245110
 H    1.6858112121   -0.0588802019    1.5288520427
 H    0.0355167415   -1.0688326224    3.2667227884
 H   -1.4018558035   -4.1090126001    0.2694759891
 H    2.0099848685   -2.5627620996    1.6365034150