22

 C    0.0165520330    1.5109124637   -0.0828745625
 C    0.0078590522   -0.0249418549    0.0437425020
 C    0.7418041637   -0.4269221854    1.3387996855
 C   -1.4510756907   -0.5150683143    0.1098551418
 C    0.6985952153   -0.6145781966   -1.2150053976
 O    2.0589673666   -0.1743040633   -1.3515044982
 C    0.6786925866   -2.1417977429   -1.3641631849
 O    1.3584214812   -2.5260215434   -2.5416617441
 H    1.0348583848    1.8876240341   -0.2066357228
 H   -0.5672758109    1.8352459711   -0.9513421045
 H   -0.4208549423    1.9757538942    0.8070336551
 H    0.2400906896    0.0128309218    2.2067296567
 H    0.7621993901   -1.5109576399    1.4872410528
 H    1.7746056829   -0.0589569703    1.3559534391
 H   -1.9795774163   -0.3147780963   -0.8287866851
 H   -1.5195142466   -1.5878386807    0.3142527137
 H   -1.9886825665    0.0058892362    0.9091195379
 H    0.2011329549   -0.1977583163   -2.0993752653
 H    2.5428876115   -0.4705877898   -0.5717574487
 H    1.1311544326   -2.6133979381   -0.4737303689
 H   -0.3467401889   -2.5135187269   -1.4457320988
 H    2.1161183772   -1.9289660019   -2.6005754832