17

 C    0.4283566921    1.4377366950    0.0276931448
 C   -0.0591359914    0.0069421610    0.1321785267
 O   -0.4473845819   -0.4844551403    1.1704575135
 C   -0.0338637879   -0.7528510352   -1.1050314504
 C   -0.0193716195   -1.3874407530   -2.1331797208
 C    0.0082929605   -2.1641513281   -3.3498712645
 C    1.2716969742   -2.1053372640   -4.2570713521
 O    1.3538584843   -3.5398833006   -4.2958713561
 C    0.3513533136   -3.6801149871   -3.2729821255
 H    1.4607870007    1.4575410051   -0.3378165339
 H   -0.1780633888    1.9894642370   -0.6987629049
 H    0.3685080533    1.9167978007    1.0059611306
 H   -0.9058762252   -1.9880845313   -3.9240339808
 H    1.1361524104   -1.6677107274   -5.2514101308
 H    2.1430207903   -1.6507535333   -3.7696049398
 H    0.7775152992   -3.9869267511   -2.3102783088
 H   -0.4446949536   -4.3735284674   -3.5619307371