17

 C   -0.2089912971    1.5247434326    0.0489260635
 C    0.0906961966    0.0461645688   -0.0083113109
 O    1.3316500424   -0.2477867172   -0.7629082527
 C    1.9452885047   -0.7815309302    0.3326934272
 O    3.0388916791   -1.2503082686    0.4199825835
 C    0.7115492402   -0.6125983862    1.2472527843
 O    0.8530682284    0.2405862184    2.3447770222
 C    0.1683472901   -1.9722877160    1.6888285200
 O    1.0140965266   -2.4893269279    2.7059469943
 H    0.6166418259    2.0720445341    0.5075619301
 H   -0.3835419449    1.9126324788   -0.9583392883
 H   -1.1076894735    1.6962800130    0.6489073962
 H   -0.7277910128   -0.5237631686   -0.4582229111
 H    1.1250581242   -0.3253265920    3.0818493704
 H   -0.8201696067   -1.8456341243    2.1423520248
 H    0.0764382697   -2.6583155901    0.8352046331
 H    1.8785439371   -2.6568546845    2.3069977333