13

 N   -0.0323746838    1.3297081665    0.0101016185
 C   -0.0514599979    0.0681630042    0.0035342677
 O    1.1922573669   -0.6390576038   -0.0076036953
 C    1.2165022225   -1.9685768556   -0.0148215664
 C    0.0873355585   -2.7217321539   -0.0121645489
 C   -1.1490988450   -1.9604116617   -0.0008421950
 N   -1.2149329786   -0.6740341617    0.0063922599
 C    0.1041281104   -4.1371890259   -0.0197895227
 C    0.0825583934   -5.3411657242   -0.0260613605
 H    0.9257402948    1.6766350517    0.0062994819
 H    2.2231822230   -2.3719772644   -0.0229104336
 H   -2.0900681645   -2.5092809359    0.0017608776
 H    0.0705987202   -6.4027998654   -0.0316299833