17

 O   -0.0341189884    0.1397439493   -0.5052618862
 C   -0.0412000770    1.2469529486   -0.0562797241
 C   -1.1566988684    2.2076272359    0.4000360167
 C   -0.0415627870    3.1860733493    0.8074098071
 C    1.0742878798    2.2589090035    0.2898287390
 C    0.0121437422    4.6916855212    0.7324281828
 C   -1.3054616106    5.2601730314    1.2503531114
 O   -1.2214305732    4.4637933674    2.4661546204
 C    0.0595227779    3.9737304045    2.0683899950
 H   -1.8042850078    2.5329328270   -0.4218808897
 H   -1.7870926189    1.8339687837    1.2122712765
 H    1.8020557731    1.9009658956    1.0254003651
 H    1.6182293267    2.6129265094   -0.5928624598
 H    0.7749722288    5.2315457678    0.1865590676
 H   -1.2588828802    6.3273430178    1.4920827087
 H   -2.2143574750    5.0474790081    0.6752412102
 H    0.8254218980    3.8602603596    2.8283664393