23

 C    2.1335926164    1.6581905260   -1.2638092472
 C    2.1776271157    0.1275300790   -1.2541955427
 C    0.7916303067   -0.5015704865   -1.4222395211
 C    0.7749544366   -2.0505895108   -1.4159542726
 O    1.3168834631   -2.5483968730   -0.1843821082
 C   -0.6820443729   -2.5593004449   -1.4674256424
 C   -0.8195019360   -4.0819904162   -1.4624798921
 C    1.5508337908   -2.5695658829   -2.5546084671
 C    2.2103757669   -2.9805650031   -3.4728760642
 H    1.7303759342    2.0370405145   -2.2095210715
 H    1.4994654814    2.0426163807   -0.4572149651
 H    3.1328909920    2.0850412716   -1.1335062103
 H    2.8386785035   -0.2271269552   -2.0539511951
 H    2.6144998227   -0.2142005761   -0.3075515301
 H    0.1391788823   -0.1725074393   -0.6041992921
 H    0.3379354215   -0.1530529791   -2.3582530554
 H    2.2764266307   -2.5072674973   -0.2437586398
 H   -1.1892807441   -2.1366335462   -0.5923869131
 H   -1.1614248293   -2.1328494611   -2.3551837860
 H   -1.8747275871   -4.3708661997   -1.4500125660
 H   -0.3578470800   -4.5244159677   -2.3501320450
 H   -0.3350182123   -4.5070597030   -0.5804393473
 H    2.7859332769   -3.3520451494   -4.2848227657