19

 C   -0.1285681069    1.5823457563    0.0152469141
 C   -0.0738954072    0.0564433445    0.0035010469
 C   -1.4324320796   -0.5451646142   -0.3317660303
 O   -1.7775207944   -0.1424487946   -1.6520299860
 C    1.1436716323   -0.5946239815   -0.7079328728
 C    2.0844177980   -0.3295041132    0.5110035101
 O    2.5672751422   -1.7008533106    0.5987701530
 C    1.1554890563   -1.8230452885    0.2568320120
 C    0.6961955817   -0.6340079757    1.1613061979
 H    0.8527038574    2.0245792463    0.2109644573
 H   -0.4885109376    1.9570110608   -0.9464559349
 H   -0.8162746961    1.9412454247    0.7903035153
 H   -1.3943110435   -1.6428566851   -0.2550101757
 H   -2.1800547807   -0.1918223872    0.3977375669
 H   -2.6629997422   -0.4634305825   -1.8450349762
 H    1.4193555662   -0.5874651261   -1.7619979958
 H    2.7870775976    0.4808017953    0.6984826267
 H    0.7393212101   -2.8220475497    0.1364405041
 H    0.4708765165   -0.6715058689    2.2282923273