21

 C   -0.5724221124    1.5573043079   -0.1579578658
 C    0.0791009534    0.1783389978   -0.0080127915
 C   -1.0063262316   -0.9055183364    0.1106349072
 C    1.0207321204   -0.1666086872   -1.2050936456
 C    2.1719344618   -0.8955641762   -0.5709485672
 C    2.1836322423   -0.7584024488    0.7639342233
 C    1.0207092528    0.1012520363    1.2321206657
 C    3.1450199122   -1.2822639035    1.6610758818
 C    3.9344858005   -1.7081401587    2.4664276901
 H    0.1824578443    2.3463307692   -0.2435661590
 H   -1.2046118504    1.6001348299   -1.0521053314
 H   -1.2054491821    1.7919136829    0.7051615865
 H   -1.6461859656   -0.9194015742   -0.7785995479
 H   -0.5584869291   -1.8988593942    0.2197098456
 H   -1.6461014801   -0.7266738992    0.9817129742
 H    0.5100154938   -0.7618212592   -1.9722042374
 H    1.3756152388    0.7426266986   -1.7128042167
 H    2.9192965196   -1.4388401207   -1.1374829881
 H    1.3855064306    1.0938167437    1.5283655290
 H    0.5189537449   -0.3203189642    2.1099372132
 H    4.6402249557   -2.0890336837    3.1619649239