21

 C    0.0146049842    1.5323896850    0.0137372502
 C    0.0397501593    0.0215846640   -0.0001638941
 C   -0.6328603623   -0.7508474488    1.1082753174
 C    0.8708634002   -0.7903423858    0.9729109695
 C    1.5050305842   -1.9692125487    0.2331758143
 O    1.0885364142   -3.1922533001    0.8380334315
 C    1.1043920250   -1.8266599057   -1.2447488567
 C   -0.3441640244   -2.0379879049   -1.6120362650
 C    0.1721712012   -0.6423282926   -1.3693038746
 H    0.8747348826    1.9507008636   -0.5227160394
 H   -0.8939800401    1.9199313135   -0.4623969224
 H    0.0411152491    1.9180292230    1.0376878332
 H   -1.0270587067   -0.1711112681    1.9373663087
 H   -1.2036316139   -1.6457538139    0.8974221092
 H    1.4622784777   -0.3082360058    1.7441745154
 H    2.5995878656   -1.8775090209    0.3044676294
 H    1.4122131175   -3.9131990334    0.2883008539
 H    1.8622533514   -2.0327951980   -1.9938178498
 H   -0.5531894998   -2.3114317507   -2.6414118493
 H   -1.0021872680   -2.5105913219   -0.8938209540
 H    0.2352541233    0.0275378701   -2.2205218570