20

 C    0.1482803033    1.5180568499    0.2368675827
 C    0.2829311320   -0.0049329649    0.1496935150
 C    0.5971740835   -0.5065146963   -1.2751253501
 C    1.9523659638   -0.0502288093   -1.7751603608
 C    2.8537677037   -1.0293870241   -1.7969651285
 C    2.2760934924   -2.3502562476   -1.3532363923
 C    0.7442766658   -2.0657099753   -1.4044974475
 C   -0.0332097352   -2.8456436346   -0.4482922607
 N   -0.6482999719   -3.4684937180    0.3072370552
 H    1.0847934147    2.0245592536   -0.0170751539
 H   -0.6263772658    1.8871379678   -0.4449422712
 H   -0.1284582031    1.8254873122    1.2495293632
 H    1.0689729605   -0.3470609519    0.8341942031
 H   -0.6479180424   -0.4727106939    0.4885859477
 H   -0.2109983586   -0.1645831239   -1.9338175210
 H    2.1506530734    0.9837393947   -2.0320278212
 H    3.8972492997   -0.9176057572   -2.0685789719
 H    2.5484944368   -3.1894191336   -2.0007788504
 H    2.6068752957   -2.6148771243   -0.3410530143
 H    0.3929308517   -2.3410319532   -2.4048360330