19

 C    0.0719501167    1.4384978414    0.0209923856
 O   -0.1478680421    0.0427841433   -0.1032097498
 C    0.5917366987   -0.5737160131   -1.1368232706
 C    2.0598533739   -0.8760774964   -0.7345426529
 O    2.8221977186   -0.0866229303   -0.2411141596
 C    2.3428157412   -2.3545516348   -1.0248461978
 C    0.9850335179   -2.8808065410   -1.4024635858
 C    0.0347538320   -1.9415790781   -1.4506205743
 C   -1.4143159621   -2.1182280618   -1.7686093484
 H    1.1079653358    1.6634276406    0.2931524804
 H   -0.1714346510    1.9619111565   -0.9172191135
 H   -0.5990979653    1.7921133945    0.8074718807
 H    0.5920136937    0.0751121871   -2.0335273032
 H    3.0851063942   -2.4333867285   -1.8313182342
 H    2.7905456484   -2.8427456953   -0.1503972514
 H    0.8092496790   -3.9302887933   -1.6148197329
 H   -1.6660106817   -3.1703185490   -1.9262204872
 H   -2.0320843852   -1.7246515345   -0.9547896458
 H   -1.6918411427   -1.5595546573   -2.6719116393