19

 C   -0.0431633936    1.5111984203    0.0663674465
 C    1.5058491677    1.5216026491   -0.0001890671
 C    2.0768270511    1.3291651847    1.4199311200
 C    1.8307775466   -0.1502666257    1.6722732358
 C    0.4413864805   -0.7692981456    1.2847973537
 O    1.1463999434   -1.9165471480    0.7149859382
 C    2.1659131845   -0.9307927435    0.3847547018
 C    1.4663501723    0.0555074284   -0.5933443108
 C    0.0170659666   -0.0286060702   -0.0038675640
 H   -0.5100450696    1.9751754101    0.9425459937
 H   -0.5014583651    1.9275528758   -0.8348908133
 H    1.9835371392    2.3211470914   -0.5683094468
 H    3.1562354028    1.5231360256    1.4502145017
 H    1.6046687257    1.9971584851    2.1482811579
 H    2.2340438595   -0.5829650433    2.5872718713
 H   -0.3198510056   -1.0377158550    2.0179989134
 H    3.1411122981   -1.3548308546    0.1465285965
 H    1.6109016533   -0.0770212524   -1.6631131190
 H   -0.7635900574   -0.5722203321   -0.5373615294