20

 C    0.0653217136    1.5257020889    0.3163813749
 C   -0.0976477830    0.0485674614   -0.0618163649
 C    0.6401708566   -0.8773940922    0.9182824675
 N   -1.5224199276   -0.2669556047   -0.1817325562
 C   -2.1636978382   -1.3747005175   -0.8969440070
 C   -2.4002279579   -2.5588297447   -0.0053381098
 C   -3.3106888725   -1.3348344986    0.0893118498
 C   -2.5284762575   -0.2191462017    0.7860409165
 O   -2.6593183014    0.4445269847    1.7805454032
 H    1.1263388750    1.7897928278    0.3570335770
 H   -0.4263377170    2.1683116978   -0.4189602736
 H   -0.3846882627    1.7215728253    1.2924396465
 H    0.3207105454   -0.1019257724   -1.0650112620
 H    0.2250369334   -0.7765580879    1.9261120752
 H    0.5627186379   -1.9244827065    0.6116421044
 H    1.7031655158   -0.6189064208    0.9607686986
 H   -2.2086627267   -1.3853082423   -1.9782494212
 H   -2.8596180155   -3.4288443660   -0.4676107053
 H   -1.7100992433   -2.7871447104    0.8003771729
 H   -4.3741191444   -1.3751537602   -0.0947016666