13

 O    0.4877348919    0.5510026245    0.9642543554
 C   -0.0869038595   -0.2440430667   -0.0323199526
 C   -1.5534643364    0.1279107101   -0.2857294555
 N   -2.0993705116   -0.6013672797   -1.4244801443
 C   -1.3038420494   -0.9259449817   -2.3399888411
 O    0.0534932998   -0.6340668195   -2.4340102787
 C    0.6828397383   -0.1211236368   -1.3341733612
 O    1.7747476771    0.3633134708   -1.4244567619
 H    1.3618134714    0.8099863687    0.6382852161
 H   -0.0531180640   -1.3145451598    0.2416307669
 H   -2.1517208830   -0.0897605268    0.6020199368
 H   -1.6356895179    1.2071177302   -0.4703454511
 H   -1.6155636666   -1.4655203534   -3.2288015890