18

 O    0.1031956981    0.1151587199    0.1187898554
 C    0.0251359470    1.3121200911    0.0595367191
 C   -1.2100246604    2.2325685376    0.1087474377
 N   -0.5720911172    3.5582835159   -0.0536331273
 C    0.6102106100    3.3946200969    0.9340962478
 C    1.1584917129    2.3341926807   -0.1153139816
 C    2.1761416766    1.8625763179   -1.1903147026
 C    1.0469587024    2.2958724537   -2.2476870180
 C    0.5575060055    3.2614131863   -1.1134582850
 H   -1.9050511034    2.0152321373   -0.7076713729
 H   -1.7527009585    2.1687613322    1.0556674245
 H    1.2037731347    4.3075530544    0.9773662887
 H    0.3087576659    3.0746158922    1.9358014101
 H    3.0656708504    2.4887021353   -1.2787657528
 H    2.4530758957    0.8065548730   -1.1658555390
 H    1.3732877974    2.7556105488   -3.1826524365
 H    0.3813685512    1.4579770752   -2.4638894388
 H    1.0974474217    4.2065903114   -1.2042322990