15

 N    0.0778901094    1.4164832069    0.0859361062
 C   -0.0075166065    0.0379796426    0.0109067675
 N    1.1696882001   -0.6462326160   -0.0855856248
 H    1.9684915667   -0.2535825732    0.3894481013
 H    1.0378587385   -1.6596804048   -0.0113501243
 C   -1.1862149327   -0.6579955739    0.0434983373
 C   -1.3069092589   -2.1115934560   -0.0153406238
 O   -0.3877888229   -2.9281247714   -0.0590499552
 N   -2.6898730581   -2.4193833358   -0.0392593089
 C   -3.3051298725   -1.2784812950    0.0187321665
 N   -2.5077940088   -0.1605384377   -0.0016912384
 H    0.8930607913    1.8021713691   -0.3720760088
 H   -0.7612120708    1.9079919848   -0.1855253797
 H   -4.3824370304   -1.1667679726    0.0660350390
 H   -2.8064403045    0.6882987429    0.4543442661