18

 O   -0.0118267164   -0.2225468288    0.0463637427
 C   -0.0029398408    0.9614747569   -0.1658423912
 C    1.2002493339    1.8619817920    0.0267128336
 C    1.3690678553    2.8363789253   -1.1481540299
 C    2.5588939394    3.7724862766   -1.0666070532
 C    3.2667898095    3.7283394180   -2.1949662711
 C    2.6894788881    2.7161781319   -3.1255996563
 C    2.7184359514    1.3156754719   -2.6140994983
 N    1.5073271918    2.1320828463   -2.4494394861
 H   -0.9191106434    1.4913995335   -0.5162484633
 H    1.0295249374    2.4491780703    0.9404601858
 H    2.0846059315    1.2414974635    0.1910855570
 H    0.4404584043    3.4257503623   -1.2102419051
 H    2.7781395228    4.3767742419   -0.1939265074
 H    4.1482596272    4.3139340974   -2.4250706623
 H    2.6159466810    2.9219530691   -4.1899500064
 H    2.5897926210    0.4784693576   -3.2942529814
 H    3.3582509460    1.1213650444   -1.7575451271