19

 O    0.0851709111   -0.1280096752    0.0050009466
 C    0.0446230858    1.0764868975   -0.0219319863
 C    1.2514406865    1.9778239702   -0.0165688660
 C    1.2594994060    3.0229739839   -1.1797067883
 C    1.4420565163    4.3898787677   -0.4318906328
 C    2.3523804916    3.9549884859    0.7384618169
 C    1.3425563714    2.9073747192    1.2633215804
 C    0.0795472281    3.7543329055    1.3185068988
 C    0.1430013420    4.6386221156    0.3170548563
 H   -0.9302741128    1.6156452893   -0.0529240945
 H    2.1352711077    1.3360506652   -0.0529368084
 H    2.0888713706    2.8256916655   -1.8641870529
 H    0.3369528490    3.0062317915   -1.7673526350
 H    1.7953101072    5.1996789095   -1.0704480727
 H    3.3061132873    3.5222810083    0.4186508019
 H    2.5303442697    4.7576903312    1.4581820721
 H    1.6038646991    2.3629461585    2.1704810493
 H   -0.7465892149    3.5868658067    1.9979584828
 H   -0.6242539117    5.3362197939    0.0048716217