17

 C   -0.1570973720    1.5788285451   -0.0520115673
 C    0.0448333739    0.0648875160   -0.0229989988
 C    0.9436549377   -0.4558006477   -1.1702848660
 O    1.6402861095   -1.5792603089   -0.6572429131
 C    2.0223892160   -1.2226120353    0.6516913180
 C    0.7699802904   -0.5160845197    1.2495840232
 C    1.1126083226    0.4627756339    2.2725906843
 N    1.3984121593    1.2339646707    3.0852669553
 H    0.7941336796    2.1116624418    0.0441196554
 H   -0.6176186270    1.8788888307   -0.9990066200
 H   -0.8087068998    1.9147374280    0.7589322754
 H   -0.9308299714   -0.4243204210   -0.0889162458
 H    0.3816551918   -0.7788411169   -2.0494444442
 H    1.6532406308    0.3305144068   -1.4775649130
 H    2.3051614269   -2.1270169612    1.1932840797
 H    2.8767929567   -0.5282693126    0.6458965985
 H    0.1263839948   -1.2675638798    1.7151645285