17

 N   -0.0244025804   -1.1072576652   -0.4848388513
 C   -0.0051778818    0.0180739024   -0.2214096785
 C    0.0189061224    1.4476018593    0.0840760312
 C   -0.7951224975    2.2791405557   -0.9381064213
 O   -0.1656085359    3.5468145085   -0.9831713983
 C    1.2352453453    3.2898783231   -0.9401872769
 C    1.4004762355    2.2057491598    0.1210787776
 C    1.0139593298    2.6361619341    1.5585177525
 N   -0.1789546692    1.7556771230    1.5147467001
 H   -0.7708720360    1.7843420873   -1.9214554001
 H   -1.8376928021    2.4179732043   -0.6388175938
 H    1.5987427062    2.9381688425   -1.9186508105
 H    1.7392536406    4.2275929694   -0.6920193684
 H    2.3009336257    1.6025255965    0.0187048280
 H    1.7185269741    2.3569556671    2.3478067954
 H    0.7936249403    3.7066504743    1.6377644557
 H   -1.0651877270    2.1994087879    1.7300234687