18

 C   -0.2714554724    1.5387866689   -0.0203043323
 C    0.0343861440    0.0402164515    0.0091683000
 C    0.9717699698   -0.4255802701   -1.1516691081
 N    1.7022987995   -1.6036313909   -0.6241634516
 C    1.7790983778   -1.4124317890    0.7612801626
 C    2.4400543692   -1.8552055152    1.8601985062
 O    1.9173606558   -1.2214335742    2.9707993391
 C    0.9255647875   -0.3892150223    2.5463385330
 C    0.8041118171   -0.4649755791    1.1996648027
 H    0.6465368044    2.1264026095    0.0812232851
 H   -0.7583246151    1.8229397049   -0.9593937671
 H   -0.9421040312    1.8179530617    0.7981612322
 H   -0.9120516662   -0.5128401520   -0.0695769770
 H    0.4165806819   -0.6900760697   -2.0562272273
 H    1.6614952150    0.3962556787   -1.4023189627
 H    2.5753219260   -1.7948288250   -1.0968870498
 H    3.2458496544   -2.5418912692    2.0501788598
 H    0.4302950223    0.1733966714    3.3205652449