15

 O    1.3629476031    0.7771091974   -0.2268796104
 C    0.5042630904   -0.2638253649   -0.1358149723
 C    0.0213215162   -1.0257373533   -1.1830498970
 N   -0.7707223426   -1.9202456066   -0.5280301314
 N   -0.7848183675   -1.7279347928    0.7970127804
 N    0.0043184079   -0.7068523058    1.0347065486
 C    0.2458627069   -1.0037365218   -2.6357938836
 C    0.4661090571    0.2874805269   -3.3501303777
 N    1.5766959315   -0.6565843875   -3.1781026111
 H    1.5268428832    1.0876215060    0.6728413005
 H   -1.3195676132   -2.6688640709   -0.9212454851
 H   -0.2420621220   -1.8106514056   -3.1783611851
 H    0.1077495371    0.3985238159   -4.3696719321
 H    0.4586250315    1.1942417602   -2.7529796174
 H    2.1733746104   -0.3375733672   -2.4173919065