19

 C    0.0055386580    1.5741210803    0.0321751669
 C    0.0724244818    0.0632245172    0.0603878376
 C    1.3029031120   -0.7249162105   -0.2021871917
 C    1.5020054790   -1.7963359221   -1.2242144725
 O    2.4685931561   -0.0525776951    0.2661389383
 C    1.9986944581   -0.1009010294    1.6440869682
 C    0.6767369661   -0.7245361688    1.2311720239
 C   -0.0123378005   -1.7995615467    1.9395602144
 O    0.3257489536   -2.2343194396    3.0182398366
 H    0.9839940029    2.0116690486    0.2405483681
 H   -0.3069481525    1.9194029185   -0.9586916223
 H   -0.7132987318    1.9552271322    0.7640956538
 H   -0.8194081031   -0.4412826813   -0.3109168617
 H    1.8802460887   -1.3522108265   -2.1523700035
 H    2.2305409622   -2.5366023774   -0.8821019869
 H    0.5590979072   -2.3008044170   -1.4506123593
 H    2.6135066086   -0.7814512320    2.2389671225
 H    1.9756939554    0.8898315201    2.1092745274
 H   -0.8952390617   -2.2165506004    1.4012502402