18

 C    0.2104554262    1.5154557926    0.0316988967
 C    0.0434415995    0.0072145408   -0.0052737653
 O   -1.3199283847   -0.3785026200   -0.1126082881
 C    0.9636045515   -0.8098687897   -0.9844151472
 C    1.4573587768   -1.6878604200    0.1972578458
 C    2.6711505619   -1.1156161858    0.9447792971
 O    1.8306002719   -0.2390080511    1.7354167402
 C    0.6313965339   -0.8099032548    1.1779608868
 H    1.2408281806    1.7857195639    0.2736544689
 H   -0.0436825983    1.9559143480   -0.9406654380
 H   -0.4494071923    1.9495535653    0.7890648321
 H   -1.6647546808   -0.0191893829   -0.9375533226
 H    0.3782438271   -1.3559508583   -1.7274592954
 H    1.7468099915   -0.2402456998   -1.4936151902
 H    1.3691518338   -2.7686750935    0.1071592343
 H    3.1977052970   -1.8351013592    1.5847666736
 H    3.4065440172   -0.5625661721    0.3465100859
 H   -0.0784633427   -1.1575643634    1.9326337953