16

 N    0.0358534633    1.4230352916    0.1616083781
 C    0.0361058332    0.0197790270    0.0482498505
 C   -1.0510804185   -0.8180515700   -0.0031677912
 N   -0.6213426958   -2.1649061379   -0.1107556875
 C    0.7445981308   -2.1207950633   -0.0261537702
 C    1.2088508435   -0.8147662637    0.0325557622
 C    2.6397574956   -0.8933944127    0.0290687317
 C    2.9641624659   -2.2269445035   -0.0248971592
 N    1.7957250738   -2.9910048453   -0.0687324616
 H    0.7527078858    1.8490695653   -0.4136579651
 H   -0.8583632058    1.8276037862   -0.0871327228
 H   -2.1044899049   -0.5892328229   -0.0254120347
 H   -1.1841658353   -2.9282707989    0.2266623603
 H    3.3518674970   -0.0836527084    0.0717860683
 H    3.9249145010   -2.7158691033   -0.0264262466
 H    1.7590553602   -3.9935655701   -0.0909749123