21

 C   -0.2622822410    1.3434519839   -0.1936309853
 C    1.1638899063    1.0384760518    0.2019909984
 C    0.1637252644   -0.0771108344    0.0629411013
 C   -0.3410032183   -0.8346469064    1.2810403187
 O   -0.3555316371    0.0583249830    2.3848203403
 C   -1.0616210067   -0.4430470678    3.5066152455
 C   -2.5507059163   -0.6057669956    3.1958100599
 C   -2.7133912599   -1.3211314415    1.8807194433
 C   -1.6997034208   -1.4447862075    1.0279692283
 H   -0.8899793870    1.8110624953    0.5552710710
 H   -0.4675485760    1.6433871206   -1.2153213465
 H    1.9415245343    1.1246713636   -0.5491476687
 H    1.4645626296    1.3098407169    1.2065205580
 H    0.2697358894   -0.7191360311   -0.8074512664
 H    0.3771826313   -1.6514146458    1.4938320938
 H   -0.6396732556   -1.4131404887    3.8163884987
 H   -0.8935809682    0.2722387702    4.3167210399
 H   -3.0384074403   -1.1667197600    4.0033964553
 H   -3.0422475435    0.3761906251    3.1625248115
 H   -3.6854569812   -1.7475369803    1.6470065467
 H   -1.8118077334   -1.9925310013    0.0957277662