18

 C   -0.0508393912    1.5265393318   -0.0876620579
 C   -0.0101973109    0.0251811973    0.0593224643
 N    1.3302521403   -0.6199677772   -0.1023433246
 C    0.6587823266   -0.6660993373    1.1726726759
 C    1.1913442727   -0.2115282341    2.5568405652
 C   -0.1810743295   -0.7402837677    3.1066370422
 C    0.2227778562   -1.8495715701    2.0719126937
 C    1.6381891620   -1.6851055713    2.6801498187
 O    2.5580876250   -2.3407959371    3.0524084524
 H    0.8299319123    1.9811673706    0.3725864734
 H   -0.0650874055    1.8111207076   -1.1450486277
 H   -0.9466493463    1.9425420527    0.3861352575
 H   -0.8516441641   -0.5026989037   -0.3894146336
 H    1.2534158056   -1.5053873877   -0.5978054554
 H    1.7169603087    0.7032368531    2.8164102324
 H   -0.2138367099   -1.0327866720    4.1568229970
 H   -1.0461800171   -0.1439510678    2.8131554857
 H   -0.3271558751   -2.7468544470    1.7961519607