18

 C    0.0148789638    1.4657909273    0.2435717438
 C   -0.0581859663   -0.0136446290   -0.1566122965
 C   -1.4341274506   -0.5757272923   -0.0519452182
 C   -2.3308583565   -0.9482297239    1.1281098365
 C   -3.5307644262   -0.4721071381    0.2804515056
 C   -3.2316687863   -1.4567742333   -0.7937183405
 N   -2.6387542937   -0.0720097709   -0.8625180002
 C   -1.9936706970   -1.9636398767    0.0147516663
 O   -1.3121405919   -3.1456298622    0.0643641392
 H    1.0280963850    1.8568222616    0.1123574829
 H   -0.6644528884    2.0633774671   -0.3712644831
 H   -0.2714149028    1.6039630939    1.2910834577
 H    0.2927414221   -0.1375693773   -1.1895722138
 H    0.6087062673   -0.6174168270    0.4712521304
 H   -2.1216266771   -0.9922137267    2.1878630864
 H   -4.4400981934    0.0668611325    0.5219848956
 H   -3.8348306823   -1.8641396905   -1.5976152150
 H   -1.8035394957   -3.7679265745    0.6137037428