18

 C    0.0375252934    1.5669096214   -0.0278878965
 C   -0.0285731282    0.0575479134   -0.0324945381
 C   -1.4148822832   -0.6272557817    0.0140679562
 C   -0.8287816422   -1.4427046807    1.1836884132
 O   -1.1391453773   -2.4276281077    1.7863294821
 N    0.3708515638   -0.6704070237    1.2388320361
 C    1.5541327247   -1.2971012557    0.5671319404
 C    1.1016193584   -0.6991593784   -0.8031430163
 O    0.5744460508   -1.6176394416   -1.7313074634
 H    1.0529600814    1.9216018370    0.1769884300
 H   -0.2704518287    1.9649969411   -1.0013861621
 H   -0.6251384298    1.9814578515    0.7377266753
 H   -2.2451088685    0.0388647140    0.2624209042
 H   -1.6800022197   -1.2461252363   -0.8436219815
 H    2.4980675216   -0.9025240702    0.9523622458
 H    1.5581627022   -2.3888930057    0.6254784646
 H    1.8363111173   -0.0311309010   -1.2728680630
 H    1.2946558940   -2.1566704557   -2.0744939071