21

 C    0.1999809702    1.6377820207   -0.3806001907
 C    0.2472390535    0.1359497631   -0.1682875730
 C    1.4805107092   -0.7248440148   -0.4313620712
 C    2.6871999526   -0.0315288507    0.1306467930
 O    3.7654299489    0.2588532319   -0.3088408465
 C    2.0918602106    0.0067186547    1.5630748840
 C    2.0783734917    1.2591951251    2.4322114806
 C    0.8148223662   -0.6393708704    0.9799015071
 C    0.0395565894   -1.7068126871    1.6996861296
 H    1.1511158084    2.1263703867   -0.1608280355
 H   -0.0384892359    1.8552387617   -1.4272603790
 H   -0.5754892042    2.1014837329    0.2392202782
 H   -0.6414004719   -0.3592731053   -0.5602902774
 H    1.4776263492   -1.5149468795   -1.1732783660
 H    2.6454224149   -0.7817229191    2.0954846650
 H    1.4815275293    2.0648853970    2.0006628683
 H    1.6729202045    1.0402398356    3.4257474636
 H    3.1000991642    1.6295607546    2.5647629441
 H   -0.5254196918   -1.2846563562    2.5394998594
 H   -0.6793865704   -2.1952971269    1.0339865575
 H    0.7051040416   -2.4775806639    2.1048112591