21

 C    0.1328881905    1.4867688616   -0.1792990556
 C    0.0144641253   -0.0053836546    0.0179023179
 C   -1.3882463399   -0.5882923624   -0.1785573692
 C   -1.2476908965   -2.1316680850   -0.2198357738
 C   -0.0378267619   -2.5308595741    0.6347393202
 C   -0.0631976045   -1.7537003856    1.9849999819
 C    0.7284127884   -0.6418715369    1.2751695511
 C    1.1963956528   -1.6343859222    0.1998787545
 O    0.9056129475   -0.7520084051   -0.8881153062
 H    1.1647580139    1.8171802298   -0.0309332660
 H   -0.1742082394    1.7648457433   -1.1928837157
 H   -0.5091865334    2.0180344389    0.5318820522
 H   -2.0426664683   -0.2642458350    0.6387454179
 H   -1.8250421436   -0.2093518504   -1.1083032778
 H   -2.1567247474   -2.6217957089    0.1439674412
 H   -1.0876928860   -2.4578974440   -1.2511335615
 H    0.1125945108   -3.6114025193    0.6737412226
 H   -1.0403044100   -1.5237007730    2.4211379796
 H    0.5560023022   -2.2320946470    2.7494728889
 H    1.3887012904    0.0330823032    1.8220656705
 H    2.1785522292   -2.1063269333    0.1336728074