22

 C    0.0539753049    1.4987278151    0.1664527844
 C   -0.1195364329   -0.0087545951   -0.0463916635
 C    0.6603136514   -0.5415568213   -1.2411162031
 C    2.2166261128   -0.5755628107   -1.1781087518
 C    2.1793963333   -1.9480245183   -1.9032486334
 C    3.1450978476   -3.0230936276   -1.4536388142
 O    2.8410655281   -4.2145649224   -2.1664447198
 C    0.6834173293   -2.0728962438   -1.5073376485
 H    1.1062480323    1.7579930503    0.3269732112
 H   -0.2950709621    2.0636815491   -0.7052327591
 H   -0.5103249390    1.8479713924    1.0368430960
 H    0.1986513820   -0.5470841029    0.8570665977
 H   -1.1847967877   -0.2414614535   -0.1790895241
 H    0.3438526045   -0.0127272457   -2.1489777241
 H    2.7740525738    0.2372025005   -1.6502095109
 H    2.5659987969   -0.6803926133   -0.1433930349
 H    2.2773771892   -1.8175522451   -2.9861938340
 H    4.1816820665   -2.6965138999   -1.6438002621
 H    3.0450990625   -3.1741027333   -0.3653351178
 H    3.4342981926   -4.9075317190   -1.8624358843
 H    0.5673377338   -2.6404789742   -0.5765634817
 H   -0.0098459899   -2.4777610112   -2.2475855119