22

 C   -0.1389033514    1.5200367937   -0.0449689212
 C    0.0585351371    0.0431897226    0.0104610045
 C    0.3842796703   -0.9808717248   -1.0120421508
 C    1.4638315331   -1.6039382564   -0.1274715654
 C    0.6907550560   -0.9721132098    1.0554118076
 C   -0.6998044939   -1.6633913404    1.0198010851
 C   -0.8041281162   -3.1844509745    0.9961982835
 C   -1.6605163901   -1.0830645327    2.0557835745
 N   -0.9587580474   -0.9935504646   -0.3104959923
 H    0.8214290488    2.0470128292   -0.0764030641
 H   -0.7039383103    1.7844744160   -0.9444171738
 H   -0.6958548857    1.8906912097    0.8226250857
 H    0.3497706487   -0.9022081957   -2.0912248850
 H    1.6283712555   -2.6851647013   -0.1312271612
 H    2.4174603697   -1.0942235960   -0.2923187617
 H    1.1919454294   -0.7399640727    1.9950570045
 H   -0.4433546912   -3.6131301865    1.9380824518
 H   -1.8503655772   -3.4828646247    0.8707452683
 H   -0.2369169906   -3.6304952579    0.1774653267
 H   -1.5772174117    0.0051352321    2.1214634033
 H   -2.6953687137   -1.3267907574    1.7957425446
 H   -1.4492623692   -1.4987698478    3.0469600853