19

 C    0.2735275366    1.5059067988    0.6977271558
 C    0.2823606026    0.0481997845    0.6107777518
 C    0.3037324586   -1.1539467147    0.5309579225
 C    0.3579370220   -2.5875919199    0.4469314736
 C   -0.8582699405   -3.4219631299    0.5190434923
 O   -0.2009215767   -3.2124142226   -0.7231927834
 C    1.5083426036    2.1546877701    0.0877698774
 C    1.5602620352    2.4418100415   -1.3882038995
 C    1.4398245022    3.5781611366   -0.4004748220
 H   -0.6233468317    1.8926063020    0.1953688224
 H    0.1797931816    1.8049512503    1.7507823897
 H    1.2938906969   -3.0403832216    0.7733937161
 H   -0.7882128384   -4.4289178839    0.9293511447
 H   -1.8242775309   -2.9327693274    0.6289677221
 H    2.4402549713    1.8442399232    0.5506888769
 H    2.5019646949    2.3056125780   -1.9076803120
 H    0.6874901283    2.1913778024   -1.9823794232
 H    0.4863024065    4.0925444873   -0.3339740759
 H    2.2992567380    4.2197368654   -0.2409807491