21

 C   -0.8140918138    0.0660426744   -3.1062357738
 N   -0.4949902795   -0.5287781215   -1.8115694459
 C   -1.6183858971   -0.9125823224   -1.0055614922
 C   -2.3466221593    0.2312538096   -0.4939139514
 N   -2.9509533529    1.1356486186   -0.0992508930
 C   -2.4708423512   -2.1802383042   -1.2502666931
 C   -2.2203140820   -3.0666523115   -2.4502095439
 C   -1.5234857247   -2.1154248787   -0.0747371085
 C   -0.2591900977   -2.9432432992    0.0287114559
 H    0.1177894717    0.3363973673   -3.6100451372
 H   -1.3986989547   -0.5839282716   -3.7757925578
 H   -1.3854882941    0.9859816527   -2.9477446399
 H    0.1774988658   -1.2771550096   -1.8925338224
 H   -3.5206519632   -2.0722480414   -0.9929416221
 H   -1.1965177381   -2.9824280952   -2.8235921176
 H   -2.3963157040   -4.1192063896   -2.2023090178
 H   -2.8922988541   -2.8019285356   -3.2719275201
 H   -2.0019045096   -1.9559707309    0.8871008700
 H    0.1683659715   -3.2030681035   -0.9431904900
 H    0.5076789689   -2.4182807963    0.6071204003
 H   -0.4750500720   -3.8863247015    0.5412293803