13

 O   -0.0114902718    0.0331782554    0.2604549931
 C    0.0156249556    1.1986025519    0.0040593635
 O   -1.1091190488    1.9230613884   -0.2767802396
 C   -0.7942342329    3.2431224264   -0.7869075023
 C   -1.6090531275    4.2558008156   -0.1346660950
 C   -2.2694692683    5.1167553948    0.3777354686
 C    0.7076188474    3.4079870990   -0.5606492196
 O    1.0636187191    3.2395033320    0.8006209142
 C    1.2089069848    2.1167868247   -0.0895798837
 H   -1.0003039965    3.2316699293   -1.8650000935
 H   -2.8552565018    5.8723743804    0.8413497946
 H    1.2797132837    4.1205841696   -1.1453599002
 H    2.2060736471    1.7189705924   -0.2342212702