18

 O    0.1642357437    0.2133315596   -1.0262005026
 C    0.0540920203    1.1902032882   -0.3472421534
 C   -1.0086046942    1.7510948516    0.5990660425
 N   -0.1761773263    2.9754260166    0.7439766519
 C    0.1161253048    3.3990351645    2.1142129882
 C    1.0306416962    2.4459398632    2.8536293546
 C    1.9978996222    1.7995089178    2.2036007385
 C    2.2489692764    2.0417344558    0.7373701892
 C    0.9598599435    2.3934804125   -0.0389806067
 H   -2.0052996144    1.9250697842    0.1789953510
 H   -1.1018553449    1.1394086962    1.5091167805
 H    0.5654140854    4.4024913212    2.0777438968
 H   -0.8361816420    3.5170542895    2.6417618716
 H    0.8807556524    2.3021417227    3.9201571831
 H    2.6551715753    1.1080820963    2.7230092950
 H    2.9651900174    2.8676525769    0.6283512010
 H    2.7169489544    1.1736511194    0.2599239695
 H    1.2079954700    2.9885191137   -0.9263933208