14

 C   -0.0683724785    1.4114901167    0.0909980939
 O    1.3927902334    1.4507355052    0.0420534272
 C    1.4414501121    0.2074308846   -0.7332840508
 C    2.1629688112   -1.0624286227   -0.3019222963
 O    2.0050206847   -1.4788889592    1.0453560204
 C    1.0870984314   -2.0250945223    0.0709689025
 C   -0.2100754464   -1.2670818141    0.1331251654
 C    0.0197673734   -0.0369371878   -0.3262674998
 H   -0.4595207033    1.6220912178    1.0909717598
 H   -0.5052210255    2.1050265987   -0.6388413150
 H    1.6534662998    0.4279324693   -1.7878047175
 H    3.0842061179   -1.3755364393   -0.7847200507
 H    1.1671030584   -3.0966384942   -0.0832387660
 H   -1.0659605987   -1.6110222527    0.7004871069