19

 C   -0.3524773145    1.5331877554   -0.1175083552
 C    0.0877264218    0.0848407862   -0.0812277919
 O    1.2084440161   -0.2505617756   -0.9558297164
 C    1.8287636537   -1.0867898600    0.0588113087
 C    3.0108281898   -0.4628986987    0.8327161858
 C    2.8520032425    1.0218815049    0.9128346884
 C    2.0026637603    0.1660946230    1.8148461194
 C    0.8305985087   -0.5611535203    1.1140411714
 O    0.1313913987   -1.3358014147    2.0346366966
 H   -0.6138710011    1.8250994458   -1.1397954029
 H   -1.2452156378    1.6555496810    0.5053200983
 H    0.4164773937    2.2125191182    0.2529662423
 H   -0.7722859831   -0.5556000817   -0.3486777980
 H    1.9132714001   -2.1356785427   -0.2353027277
 H    3.9471766430   -0.9666043352    1.0383884285
 H    3.6544475766    1.5388576254    1.4299380501
 H    2.4434544155    1.5588475726    0.0669185713
 H    2.0558102349    0.2396349024    2.8938174739
 H   -0.4769807989   -1.9061714659    1.5513518474