23

 C    0.0071507622    1.4067141633    0.0697932503
 O    0.0345141651    0.0003171457    0.0520603870
 C   -1.2519601795   -0.5768571658    0.0111197000
 C   -1.1182293094   -2.1013704994    0.0284773906
 C   -0.4156230491   -2.5701365889    1.3090347406
 C   -2.5052520384   -2.7403125506   -0.1655630244
 C   -2.4712517953   -4.2646707577   -0.3776689149
 C   -3.8628714036   -4.8362517651   -0.5153650173
 O   -4.2600620826   -5.4804497381   -1.4515817807
 H    1.0425103036    1.7548524256    0.1001051639
 H   -0.4794655513    1.8178604141   -0.8290842207
 H   -0.5247258615    1.7947771319    0.9531674398
 H   -1.8518593332   -0.2380182611    0.8756964915
 H   -1.7854024724   -0.2519246609   -0.8989915210
 H   -0.4904872056   -2.3711645752   -0.8317864194
 H    0.5259266563   -2.0324621639    1.4382964605
 H   -1.0403621685   -2.3744938745    2.1896191569
 H   -0.1933326514   -3.6408114575    1.2859989414
 H   -3.1352790573   -2.5093968927    0.7051550956
 H   -2.9958090857   -2.2788103923   -1.0320997492
 H   -1.8928429103   -4.5337199563   -1.2665899993
 H   -2.0066159678   -4.7478996745    0.4926697550
 H   -4.5355756341   -4.6072994759    0.3460346634