18

 C    0.2943219618    1.5154253305   -0.4758529352
 N    0.0756905006    0.1219250751   -0.1069982977
 C    1.2539946034   -0.7208264276    0.0277901370
 C    0.4799589906   -0.3336973638    1.2425143284
 C    1.0483930759    0.5673296452    2.2706725780
 N    2.2181937845    1.1954454965    2.1189005864
 N    2.3655374675    1.9165603313    3.2458467252
 C    1.3391560751    1.7633570388    4.1160742460
 C    0.4569793599    0.8923625310    3.5173025328
 H    1.2152672319    1.9514163402   -0.0654140975
 H    0.3344210687    1.5760073430   -1.5682613032
 H   -0.5564692538    2.1142701983   -0.1342233986
 H    1.1704700547   -1.7290584850   -0.3710925779
 H    2.2318501846   -0.2564818612   -0.0844291486
 H   -0.2236597729   -1.0531774993    1.6556918413
 H    3.1949773890    2.4735440387    3.3607864220
 H    1.3205343674    2.2715010534    5.0672016002
 H   -0.4809321589    0.5380574648    3.9131774414