11

 N    0.0189234355   -1.1510396789   -0.0038291254
 C    0.0050432284    0.0075342427    0.0028236468
 C   -0.0016394152    1.4237727376    0.0107592091
 C   -1.1286452449    2.2284581632    0.0301589946
 N   -0.7054743666    3.5217393899    0.0316613040
 C    0.6692735403    3.5746374284    0.0138069632
 C    1.1395909620    2.2882922700    0.0004739052
 H   -2.1735322869    1.9670645086    0.0425426804
 H   -1.3134748296    4.3224445879    0.0441469868
 H    1.1890223831    4.5184937308    0.0121576859
 H    2.1713407439    1.9771432398   -0.0148887505