21

 C   -0.0296978435    1.6259149567    0.3237487743
 C   -0.0064027790    0.1271246449   -0.0118099697
 O    0.8248281861   -0.5963135431    0.8973472611
 C   -1.3604464596   -0.4296860147   -0.0763434513
 C   -2.4792997315   -0.8828716290   -0.0845016752
 C   -3.8072731965   -1.4213412610   -0.0957580096
 C   -4.2805627223   -2.2771764380   -1.2662270431
 C   -4.0523563987   -2.9214578063    0.0682978064
 C   -2.9074327069   -3.8822726932    0.2854280477
 H    0.9951941362    2.0028029145    0.3748821581
 H   -0.5815736650    2.1871983078   -0.4359125040
 H   -0.5154107453    1.7934236067    1.2904994324
 H    0.4824964270   -0.0042605863   -0.9852254040
 H    0.3395890591   -0.6709869456    1.7265491623
 H   -4.5613594896   -0.7762098491    0.3465106285
 H   -5.2954830672   -2.1253715351   -1.6165015819
 H   -3.5546738400   -2.4690821040   -2.0486200101
 H   -4.9505617984   -3.1536653826    0.6346923001
 H   -2.0168451503   -3.5648619533   -0.2634136784
 H   -2.6381796970   -3.9442930554    1.3452590406
 H   -3.1767771375   -4.8887980238   -0.0524759942