16

 C    0.0832149036    1.5274057566    0.0012804681
 C    0.0392134136    0.0294528345    0.0088199711
 C   -0.0361302893   -0.8023034783   -1.0835943734
 O   -0.1000515519   -0.5748290599   -2.4246766058
 N   -0.0468871183   -2.1023043261   -0.6641876252
 C    0.0230964384   -2.1378905570    0.7186801031
 N   -0.0190610700   -3.3958520151    1.3641683777
 C    0.0827337662   -0.8389223349    1.1544118443
 H    1.0258942940    1.9202441771    0.4024505240
 H   -0.0219022629    1.9355629571   -1.0118599284
 H   -0.7265293593    1.9644984570    0.5979652721
 H   -0.0346334958    0.3738843737   -2.5695843935
 H   -0.1784439467   -2.9064802041   -1.2529077661
 H    0.9094011039   -3.7457068237    1.5854587135
 H   -0.5312197018   -3.3348090574    2.2362008189
 H    0.1610167164   -0.5243023395    2.1850683995