17

 C   -0.0238653852    1.4024742367   -0.1783561598
 N   -0.0146211927   -0.0189011540    0.0669036828
 C   -1.0636257905   -1.0326754442    0.0214197849
 C   -1.4598202341   -1.6030653614   -1.3635372665
 C   -0.3295706576   -1.6589711680   -2.3082222158
 N   -0.4116386267   -2.7050235078   -1.2714515250
 C    0.0347300351   -2.1092952460    0.0652291305
 C    1.0370284326   -0.9223140552    0.0507729664
 O    2.2274085354   -0.7584594782    0.0033892420
 H    1.0142908828    1.7437545775   -0.1851420015
 H   -0.4820405160    1.6406544843   -1.1464744502
 H   -0.5685638151    1.9388964357    0.6063194850
 H   -1.8565037773   -0.9424442213    0.7636703470
 H   -2.4801087716   -1.8349938939   -1.6511123157
 H   -0.5382491239   -2.0537363438   -3.2978783170
 H    0.4677253613   -0.9224780759   -2.2786651871
 H    0.1228943036   -2.8709424844    0.8357570000