18

 C   -0.0224933503    1.4460340853    0.0872422547
 C   -0.0270192899   -0.0086874428    0.0618644574
 C   -0.0439309631   -1.2112348375    0.0377299666
 C   -0.0353812490   -2.6657921679    0.0095904641
 O   -1.3624292492   -3.1605531542   -0.0687426557
 C   -1.4046266837   -4.5573757067   -0.0924408170
 C   -2.8500687903   -5.0082533898   -0.3369618499
 N   -3.1066064382   -6.2765545046    0.1133930139
 O   -3.6623436402   -4.3391842460   -0.9318579403
 H    0.5807619284    1.8578002692   -0.7291956732
 H   -1.0391381869    1.8392291001   -0.0212444817
 H    0.3831727754    1.8295202136    1.0298060210
 H    0.5525348422   -3.0252655656   -0.8531711164
 H    0.4649422906   -3.0564037635    0.9134404986
 H   -0.7843184278   -4.9677401709   -0.9099009332
 H   -1.0158457339   -4.9892773338    0.8474604957
 H   -2.5112549586   -6.7283924302    0.7860600041
 H   -4.0516285254   -6.6138240048    0.0216644713