21

 O   -0.6957824165    0.9559183581    0.6800058709
 C    0.0445227220    1.0732950269   -0.2626938094
 C    1.3683258568    1.8012426942   -0.2444034936
 C    1.3642489339    2.9900729039   -1.2204294664
 C    0.4165437529    4.1756642996   -0.8175761591
 C    1.4433015633    5.3257597210   -0.8112215524
 C    2.2642497360    5.0346455408   -2.1017633985
 C    2.6955640458    3.7729739889   -1.2989269993
 C    2.6369876264    4.6912954355   -0.0416753809
 H   -0.2268406597    0.6440425032   -1.2570890315
 H    1.5764100465    2.1151766507    0.7819314735
 H    2.1460379466    1.0880321762   -0.5545949896
 H    1.1039422133    2.6111023379   -2.2163698179
 H   -0.3877510363    4.3344749090   -1.5416952971
 H   -0.0433227800    4.0218174273    0.1636267782
 H    1.0724152514    6.3235994290   -0.5757697129
 H    1.7205003638    4.8878301325   -3.0405489744
 H    3.0852800885    5.7402132953   -2.2479143884
 H    3.5877654896    3.1998655639   -1.5565733210
 H    3.4988300532    5.3594716171    0.0202555795
 H    2.4455310025    4.2406504487    0.9362063103