16

 C    0.0516711075    1.5928983076   -0.0528733108
 C    1.5476348168    1.8411041294    0.0724137526
 C    2.0790595629    0.5668580932    0.7135352154
 O    1.0051643921   -0.3104835112    0.9665904779
 C    0.0224402899    0.0494313068   -0.0146045703
 C    0.4953760302   -0.5145973030   -1.3525160424
 O    1.7258835986    0.0961733482   -1.7485170000
 C    2.3528883646    0.8431211089   -0.7398542642
 H   -0.4897737341    2.0231397615    0.7947515642
 H   -0.3797405422    1.9801730394   -0.9805847054
 H    1.9310037387    2.8280667950    0.3018315892
 H    2.8526321195    0.5180101836    1.4699852534
 H   -0.9325169403   -0.3860838871    0.2855336237
 H    0.6385521497   -1.5990676006   -1.2538855348
 H   -0.2411648342   -0.3294680555   -2.1452078671
 H    3.3595931102    1.1081998239   -1.0431073714