19

 C   -0.1897588305    1.6734745868   -0.2672474016
 O   -0.0318217518    0.2633812880   -0.3538404901
 C   -1.1599449878   -0.5065211001   -0.0250937361
 C   -2.3601107416   -0.2725998018   -0.9431897566
 C   -0.7867472476   -2.0130733253    0.1541181120
 C   -1.6084978389   -2.0806919217    1.4901258167
 O   -1.1128951812   -2.7500563088    2.6087403221
 C   -1.4964418396   -0.5545935947    1.4927899591
 O   -1.3086826460    0.2026348164    2.4071179668
 H    0.8036092999    2.1002886358   -0.4226203028
 H   -0.8601342637    2.0641342566   -1.0445123970
 H   -0.5604393224    1.9758099369    0.7179177667
 H   -2.0609807900   -0.4416592085   -1.9826189497
 H   -3.1767746311   -0.9603102519   -0.7048972889
 H   -2.7474428463    0.7456908097   -0.8524038560
 H   -1.0976025327   -2.6902697058   -0.6418170406
 H    0.2830544007   -2.1097402579    0.3463279801
 H   -2.6304417569   -2.4228966708    1.2847765738
 H   -0.7192461725   -2.0837445429    3.1866789421