17

 C    0.1310148802    1.5655712563   -0.2642196848
 C    0.0744400330    0.1268056994   -0.0579095239
 C    0.0263086082   -1.0638830957    0.1181206803
 C   -0.0179539258   -2.5010584856    0.3115954433
 O   -0.1689904624   -2.9114927535    1.6956587009
 C   -1.2637566740   -3.7852467330    1.3674282315
 C   -1.3128683598   -3.2844301640   -0.0967025596
 C   -2.5128678930   -2.4282906829   -0.4106580045
 O   -3.2098420384   -2.5679701085   -1.3819509509
 H    1.0602889403    1.8603620007   -0.7631835464
 H   -0.7059017235    1.9098631190   -0.8811942011
 H    0.0812075573    2.0981797695    0.6916114891
 H    0.8769922401   -2.9634886675   -0.1264524144
 H   -0.9990601541   -4.8445193169    1.4684675282
 H   -2.1503717251   -3.5771574486    1.9786284330
 H   -1.1792507073   -4.0312213804   -0.8785999319
 H   -2.7277865356   -1.6453771481    0.3499580810