19

 C    0.1641674329    1.4504611054    0.1688888336
 C   -0.2807418208    0.0066415868   -0.1009375132
 C    0.4703852941   -0.6068093281   -1.2627744632
 N    1.8764367446   -1.0501533873   -1.2407790570
 C    2.1319319947   -1.7173225850    0.0901920206
 C    1.0432031903   -2.7897056806   -0.1461036319
 C    0.7329112253   -2.0595782002   -1.4582342510
 C    0.4986466249   -2.7220568585   -2.7064031072
 N    0.2804173429   -3.2779029179   -3.6978050309
 H    1.2240546816    1.4956751335    0.4379986863
 H    0.0224752164    2.0782435600   -0.7167955159
 H   -0.4129958695    1.8895513367    0.9874988193
 H   -0.1745839483   -0.5933016875    0.8070054490
 H   -1.3481205020   -0.0114784416   -0.3523674101
 H    0.2872993429   -0.0872218261   -2.2025239849
 H    3.1455233850   -2.1192928024    0.0946465245
 H    2.0105991126   -1.0539491930    0.9502239630
 H    1.4597759209   -3.7826404900   -0.3158925491
 H    0.2191285215   -2.8682486242    0.5672397381