15

 O    0.1939806585    1.2251443277   -0.3830912558
 C    0.0720620914   -0.1168675731   -0.0160579871
 C    0.1747945099   -0.4077190120    1.5398827399
 C   -1.3632371793   -0.4679461561    1.5873011575
 O   -2.1583763248    0.7715818879    1.5652864327
 C   -2.7682251663   -0.0335823718    0.5105399673
 C   -2.5295224328   -1.4309073999    1.2372299655
 O   -1.8217186764   -2.0322107067    0.1155410404
 C   -1.4144645147   -0.6240135934    0.0543292566
 H   -0.4254721062    1.7275196262    0.1629291019
 H    0.7331787929   -0.7018117417   -0.6586232352
 H    0.6238839129   -1.3797080399    1.7534909830
 H    0.6518350670    0.3632357989    2.1484223474
 H   -3.6373896196    0.3744227184   -0.0128646529
 H   -3.1939016127   -2.0701106045    1.8260598987