14

 C    0.0799499674    1.3189755035    0.0157819510
 N   -0.0201091429   -0.1197467016    0.0023052753
 N   -0.0037303488   -0.8200932872   -1.1392597044
 C    0.0970503963   -2.0863870431   -0.7436495508
 N    0.1852304704   -3.1680546150   -1.6139215620
 C    0.1557465018   -2.0927374733    0.6656780160
 O    0.2313753034   -3.1900041601    1.4509402518
 N    0.0924961622   -0.8499210139    1.1168912851
 H    1.1243700633    1.6517891568   -0.0174223327
 H   -0.4467721226    1.7070702695   -0.8568651631
 H   -0.3853743192    1.6899035764    0.9299158203
 H   -0.1843949278   -2.9526670007   -2.5304415127
 H   -0.2394019370   -4.0066641496   -1.2408576897
 H    0.2402677535   -2.8925079718    2.3684577760