16

 C    0.2232747022    1.5143000571   -0.0255704199
 C   -0.1080525801    0.0353277128    0.0708243091
 O   -0.3740669006   -0.5105851883    1.1146613429
 C   -0.1257066483   -0.7072971631   -1.2585518864
 O   -0.1076416509   -2.1453564241   -1.1595644259
 C   -1.3229714665   -2.2316295126   -1.9114438294
 C   -2.4523225034   -1.5811717828   -1.1842468374
 C   -1.4830992798   -0.7320433391   -1.9879606968
 H    1.2931947734    1.6372454894   -0.2324141377
 H   -0.3187324929    1.9897416149   -0.8504575652
 H   -0.0180156206    2.0093957124    0.9155693932
 H    0.6871762935   -0.3589943113   -1.9090994034
 H   -1.4013238272   -3.0153275883   -2.6550747102
 H   -3.4285086786   -1.6876635488   -1.6471811733
 H   -2.4428421306   -1.5561006273   -0.0993481949
 H   -1.7751718296   -0.0862359908   -2.8040702346