14

 O   -0.0232217405   -0.0772367105    0.0805284994
 C   -0.0167335024    1.1170547512   -0.0543876212
 C    1.2602232685    1.9458139685   -0.0601254548
 C    1.2976506790    2.9671255488   -1.2064371343
 O    0.2243580617    3.8926822489   -0.9944435255
 C   -0.2221306365    4.5941658664   -2.0746438999
 O   -1.1076378755    5.3816512887   -1.9859640602
 C    2.5891899615    3.6735161379   -1.2452724902
 N    3.6052658982    4.2213942082   -1.2801672349
 H   -0.9557986956    1.6973068984   -0.1675013024
 H    1.3188925251    2.4992255630    0.8852997473
 H    2.1188532047    1.2737888157   -0.1223989793
 H    1.1636010875    2.4560554501   -2.1693812998
 H    0.3164840344    4.3417288749   -3.0066941242