16

 C   -0.1846251313    1.6195269320   -0.0134100028
 C    0.0074642790    0.1109109722    0.0076277270
 C    1.1887767376   -0.5485995575   -0.7759955999
 N    2.3417779236    0.1239935122   -0.1470850448
 C    2.0956988519    0.0344720944    1.2275538663
 O    2.8404646799    0.3182305959    2.1296015989
 C    0.6895100687   -0.5837862759    1.2504795630
 C    0.9715071267   -1.7313913646    0.2151624754
 O    0.9223572968   -2.9173872284    0.1963376287
 H    0.7505613543    2.1514863099    0.1714130093
 H   -0.5738349598    1.9383212279   -0.9855985960
 H   -0.9086149122    1.9203092377    0.7498019282
 H   -0.9279914701   -0.4034824039   -0.2349111723
 H    1.2330787616   -0.6268816491   -1.8592756754
 H    3.2840702013    0.0009155756   -0.4891161779
 H    0.2186866219   -0.7280999183    2.2174262621