25

 C    0.0763443272    1.5415858519   -0.0732414937
 C    0.0226336056    0.0173231005    0.0038910837
 C   -1.4193670401   -0.4557490084   -0.2216408730
 C    0.9973333307   -0.7843007211   -0.9227980922
 C    1.4127141907   -1.6963249349    0.2670790342
 C    2.7748397499   -1.3406193070    0.8933495128
 C    2.1006940286   -0.1574752466    1.6469224467
 C    0.6823303167   -0.6944657380    1.2412960390
 C   -0.1720275672   -1.1228492548    2.4187760200
 H    1.0957977697    1.9287027935    0.0068020958
 H   -0.3303056499    1.8930382593   -1.0289764213
 H   -0.5198437369    2.0012585454    0.7243065127
 H   -1.7696955544   -0.1286473967   -1.2073450308
 H   -1.5012124237   -1.5471754737   -0.1899677660
 H   -2.1042228238   -0.0457019145    0.5287288438
 H    0.5162907673   -1.2884104932   -1.7654189467
 H    1.8277973926   -0.1881666391   -1.3152068119
 H    1.1370098586   -2.7493244273    0.1816705987
 H    3.1345519003   -2.1133153881    1.5788886465
 H    3.5852305319   -1.0955854489    0.1995410709
 H    2.2750596569   -0.1366602719    2.7258222153
 H    2.3514743035    0.8296517964    1.2536694598
 H   -0.5141386010   -0.2531584638    2.9946937381
 H   -1.0568541612   -1.6888924541    2.1143874084
 H    0.4041739781   -1.7562446648    3.1032941393