17

 C   -0.0439578966    1.5546688339   -0.0034201815
 C    0.0532481648    0.0338049085   -0.0728417526
 C   -1.2681121314   -0.5581173297    0.1764582163
 N   -2.3228694720   -1.0021552708    0.3362686514
 C    0.7482335491   -0.7037806307   -1.2585579637
 C    2.1600938213   -0.0677999400   -1.2991171425
 C    2.3411078225   -0.6659020473    0.0942419186
 C    1.2921896686   -1.6821338990   -0.1462870896
 N    1.0410573345   -0.6189746811    0.8675279790
 H    0.9381358309    2.0163141412   -0.1119028520
 H   -0.7043593282    1.9359064872   -0.7879781875
 H   -0.4537897257    1.8532639889    0.9652509385
 H    0.2048973652   -0.9510284515   -2.1672778702
 H    2.7948641788   -0.5939654008   -2.0166194457
 H    2.2519458028    1.0101559980   -1.4551063089
 H    3.2328767897   -0.7303144260    0.7026653412
 H    1.2094670057   -2.7424630806    0.0453527693