17

 C    0.0462493763    1.5845006049   -0.0053956490
 C   -0.0839273896    0.0991587508    0.0962190123
 O    0.4992446407   -0.6415399087   -1.0289222506
 C   -0.4347404641   -1.6899696013   -0.7517643040
 C   -0.5001881563   -1.8531075157    0.7875066032
 C    0.4212655878   -0.7459731175    1.3055479471
 O    1.7988100233   -0.9527639382    1.4007024705
 C   -1.3657044450   -0.8484074532    0.0535711528
 O   -2.7158936571   -0.6542624528    0.1363715622
 H    1.1025165299    1.8707471101    0.0384515072
 H   -0.3728557682    1.9571885750   -0.9445721762
 H   -0.4730116065    2.0677097693    0.8276324971
 H   -0.5653815210   -2.4918796484   -1.4652680010
 H   -0.7989131838   -2.7817139236    1.2557937686
 H    0.0665335278   -0.3417266459    2.2569709224
 H    2.0921132318   -1.1272580250    0.4956469840
 H   -3.0229203360   -0.2704068497   -0.6935101467