23

 C   -0.1145022571    1.5687076368    0.0846956669
 C   -0.0567978213    0.0425688476   -0.0153893833
 C    0.7236493849   -0.4517552902   -1.2410051850
 O    2.0655691151    0.0397876109   -1.2402651676
 C    0.7047114822   -1.9726267116   -1.3541534183
 C   -0.6299234912   -2.6517902937   -1.7307803764
 O   -0.0562167759   -3.2517892942   -2.9043793553
 C    1.2412034136   -2.6515755497   -2.6488660898
 C    1.7226651333   -1.8067532512   -3.8125672633
 H    0.8931953034    1.9920025166    0.0779686378
 H   -0.6595575221    1.9974798678   -0.7633466134
 H   -0.6188796341    1.8874457954    1.0016251801
 H    0.4131017035   -0.3759643711    0.8873159039
 H   -1.0722535578   -0.3721450137   -0.0477813750
 H    0.2764315254   -0.0126068594   -2.1414527832
 H    2.5012326639   -0.3069990310   -0.4530131728
 H    1.1561253958   -2.3953430317   -0.4489708311
 H   -1.0050982931   -3.4001552038   -1.0217867026
 H   -1.4512555613   -1.9653114738   -1.9808368366
 H    1.9815720239   -3.4347594648   -2.4342561133
 H    0.9805298417   -1.0536476557   -4.0918064186
 H    2.6539233541   -1.2956859207   -3.5545149210
 H    1.8958844332   -2.4467078688   -4.6834197320