16

 C   -0.3209958677    1.4085220318   -0.0782782352
 C   -0.0340132117   -0.0601779129    0.0467714938
 N    0.0278644939   -0.7349548738    1.1298471005
 O   -0.1858704613    0.0435398218    2.2662398173
 C    0.2310772761   -0.8244436071   -1.2192230941
 C    0.1310865850   -2.3568154747   -1.2135512714
 C   -1.0428042188   -2.1249115606   -2.1625412939
 O   -1.8303696056   -2.7687988576   -2.7740724647
 O   -0.9278455384   -0.7522026612   -2.1355881203
 H    0.6088513541    1.9651369249   -0.2484184596
 H   -0.9732303609    1.5858504654   -0.9375588484
 H   -0.7884883611    1.7935681037    0.8270510730
 H   -0.1411253142   -0.6083736711    2.9741465852
 H    1.1051902111   -0.4178927557   -1.7387801120
 H    0.9669859055   -2.8993391545   -1.6564827301
 H   -0.1388407161   -2.7951668985   -0.2538155602