21

 C   -0.2037882478    1.3776778002   -0.1826095451
 C    1.2098392293    0.9778215806    0.1599659740
 C    0.1301101393   -0.0681558604    0.0703969857
 C   -0.3646856074   -0.7644723472    1.3097898309
 O   -0.3861488258    0.1437119091    2.3872379323
 C   -0.8409024279   -0.4661758333    3.5875611274
 C   -2.2271520353   -1.0801704538    3.3828574041
 C   -2.1760297669   -1.9903182867    2.1537807939
 O   -1.6477224040   -1.2862454399    1.0387217185
 H   -0.7722823561    1.8936507113    0.5809635195
 H   -0.4286157343    1.6737710989   -1.2009429381
 H    1.9626285626    0.9990688112   -0.6201710929
 H    1.5688151425    1.2334704003    1.1497351964
 H    0.1461334300   -0.7307564506   -0.7885462588
 H    0.3035937647   -1.6085149431    1.5796715989
 H   -0.1259172574   -1.2453776343    3.9030138115
 H   -0.8464959167    0.3164539916    4.3506476816
 H   -2.5339195783   -1.6438202985    4.2710878873
 H   -2.9567819380   -0.2816317852    3.2129533533
 H   -1.5540118425   -2.8771375054    2.3678855371
 H   -3.1698419900   -2.3385011150    1.8604958825