18

 C   -0.0313060136    1.5235411865    0.0216523524
 C    0.0774545448    0.0208810523    0.0247985060
 C   -0.7726422976   -0.8331410881    0.9403226176
 C    0.7400622285   -0.8031287906    1.0965833018
 C    1.4619957663   -1.8994782550    0.3787168904
 N    2.2155418503   -2.7852242147    1.0817648813
 C    1.2579938785   -1.8374312224   -0.9659931345
 C    0.4489204344   -0.6679640311   -1.2957070191
 O    0.1107832670   -0.2588294427   -2.3889374968
 H    0.9334833695    1.9898902944   -0.2040832983
 H   -0.7366014598    1.8365103194   -0.7538665028
 H   -0.3794619996    1.9065233317    0.9858021963
 H   -1.3574358867   -0.3101229018    1.6920492725
 H   -1.2264954582   -1.7403968887    0.5556544276
 H    1.1816380282   -0.3626844466    1.9841708078
 H    2.0689526855   -2.8647965868    2.0742144695
 H    2.5542206070   -3.6148561605    0.6222152751
 H    1.6093066756   -2.5451766652   -1.7046142570