15

 O    0.2188860603    1.3400022987    0.3083126890
 C    0.0763741451   -0.0444716914    0.2421727965
 C   -1.3508396546   -0.4297504843   -0.1231826153
 O   -2.1844507553    0.4369753221   -0.3079540729
 C   -1.6388448718   -1.8368481271   -0.2303617414
 C   -1.8347451457   -3.0249716175   -0.3181387810
 C   -2.1512103965   -4.4380797644   -0.4071636329
 C   -3.5949754073   -4.7497947742    0.0173675339
 O   -3.8972942683   -5.7457106324    0.6113417599
 H   -0.6601344420    1.6982347115    0.1040086475
 H    0.7517031145   -0.4882492564   -0.5079559280
 H    0.3226460501   -0.5271185350    1.2026243184
 H   -2.0537319671   -4.7668452517   -1.4533487733
 H   -1.4713984699   -5.0566420518    0.1871429853
 H   -4.3397844714   -3.9857400361   -0.2885473857