19

 C   -0.0476135966    1.4533339225   -0.1433161700
 C   -0.8769783248    0.2192797866   -0.4418473614
 O   -0.4609806616   -0.8173821639    0.4510584448
 C   -1.1028939378   -1.9891226121    0.3168895037
 C   -2.1081598758   -2.4529345173   -0.5080276111
 C   -2.2981790531   -3.8012110592   -0.0991230502
 C   -3.2690846312   -4.7970420555   -0.6502742193
 N   -1.4811747986   -4.1380342324    0.8916548634
 N   -0.7560329063   -3.0115069847    1.1319825363
 H   -0.3398282706    2.2696870394   -0.8099647730
 H   -0.1971127977    1.7788487959    0.8897882358
 H    1.0163620763    1.2489698986   -0.2909812384
 H   -1.9480711094    0.4125707726   -0.2956821406
 H   -0.7337180872   -0.1177562218   -1.4771470055
 H   -2.6267909516   -1.9139723680   -1.2825001229
 H   -3.0993723183   -4.9748765003   -1.7181431037
 H   -3.1634254632   -5.7467008997   -0.1214180219
 H   -4.3036137536   -4.4529426780   -0.5399118994
 H   -0.0527954387   -3.0019324026    1.8499050135