19

 C    0.0305412780    1.3250384129    0.2763366936
 C    0.0092806968   -0.1780586581   -0.0014568799
 C   -1.3902444727   -0.7749664995    0.0349240930
 O   -2.3785543656   -0.1964804323    0.4055188576
 N    0.6670858308   -0.5758925140   -1.2437792738
 C    0.1308154677   -0.1149922726   -2.5165074496
 C    1.9057574487   -1.1858313339   -1.1471783709
 N    2.5391908222   -1.4304228281   -2.3539849058
 O    2.4314645105   -1.4572356891   -0.0797595407
 H    1.0621301415    1.6773284482    0.3499208922
 H   -0.4809757292    1.8912170677   -0.5078981375
 H   -0.4857832112    1.5350191947    1.2157032613
 H    0.5784704645   -0.6974470721    0.7811425974
 H   -1.4283118188   -1.8312901744   -0.3186556091
 H    0.8244400571    0.5558237159   -3.0368211815
 H   -0.1148425435   -0.9501241030   -3.1863295932
 H   -0.7964711219    0.4319875659   -2.3384759941
 H    1.9927490383   -1.5779136093   -3.1867352475
 H    3.3320218469   -2.0445812491   -2.2522808916