20

 C   -0.2124858594    0.9444539070   -1.8868715577
 C   -0.0628446476   -0.2299659844   -0.9445859969
 C    1.2862955691   -0.6618698304   -0.3757930574
 C    2.5840370366    0.0395938166   -0.7148790426
 C    0.2610394504   -0.0207527302    0.5210139311
 O    0.5690914877    1.2692882920    0.9644545875
 C   -0.4352270546   -0.8681013152    1.5831347022
 C   -1.7131022783   -0.2694409133    1.9750680666
 N   -2.7049980049    0.2535659961    2.2557003802
 H    0.3837125400    1.8001941057   -1.5639358284
 H    0.0986817597    0.6774931362   -2.9021932334
 H   -1.2581020624    1.2672244745   -1.9368373355
 H   -0.7485982791   -1.0485726982   -1.1523510595
 H    1.3934570036   -1.7367244070   -0.2459007566
 H    2.4711814372    1.1242423189   -0.7094478745
 H    3.3585351686   -0.2126011110    0.0169419594
 H    2.9458320726   -0.2676849732   -1.7017659787
 H   -0.2544893776    1.7665208291    1.0437341622
 H   -0.6140241318   -1.8822982572    1.2122632982
 H    0.2015659201   -0.9462292762    2.4719218340