17

 C   -0.2180902597   -1.2861797875   -0.1503871826
 C   -0.1527165814   -0.0877726631   -0.0731682352
 C   -0.1081376785    1.3564310939    0.0127450096
 C   -0.0869160114    1.8903301186    1.5031288034
 N    1.3974252270    2.0845107925    1.3634520230
 C    1.2610889351    2.0231441808   -0.0170684748
 N    1.6705615877    2.6103792335   -1.0597067384
 C    0.5957259733    2.3385124034   -2.0591022989
 C   -0.7054090288    2.0776776463   -1.2210733032
 H   -0.2603177728   -2.3449947721   -0.2182127964
 H   -0.6358823931    2.8303209317    1.6233022399
 H   -0.3654368760    1.1702017117    2.2730729081
 H    1.8710456993    2.8737064430    1.7879608890
 H    0.4915756734    3.2050758887   -2.7170654450
 H    0.8486860812    1.4743307106   -2.6867357664
 H   -1.4602112274    1.4903789929   -1.7471668032
 H   -1.1450712178    3.0364755450   -0.9274669588