19

 C    0.1258978870    1.4725198951    0.1747898897
 C   -0.2250440711    0.0096382124   -0.1539573272
 C    0.5221995618   -0.5143841234   -1.2922296188
 C    1.1451544262   -0.9314164952   -2.2354588420
 C    1.8999474508   -1.4302784548   -3.3794882075
 C    3.3621106712   -0.8857296564   -3.4368090890
 O    4.1314800048   -2.0235042535   -3.7813426468
 C    3.4576499770   -3.0913541072   -3.1659375351
 O    2.0783515476   -2.8560402341   -3.3477263994
 H    1.1873630228    1.5730400356    0.4168509638
 H   -0.0894485471    2.1244277551   -0.6761058017
 H   -0.4582042508    1.8201274546    1.0318560888
 H   -0.0319555080   -0.6201874021    0.7237963176
 H   -1.3007702590   -0.0739309342   -0.3544088227
 H    1.3636372596   -1.1992566653   -4.3073385022
 H    3.5042225443   -0.1201766171   -4.2013940491
 H    3.6550414673   -0.4859045962   -2.4565447524
 H    3.7329322073   -4.0253176192   -3.6629989924
 H    3.7043720785   -3.1402280341   -2.0894925236