23

 C    0.1108837400    1.5211574580   -0.0087120380
 C   -0.0647594042   -0.0071976893    0.0045416124
 C   -1.5720982405   -0.3445143758    0.0510454628
 C    0.5827067841   -0.6035206189   -1.2719272356
 C    0.7573211960   -2.1210466715   -1.2251219536
 C    2.1254731845   -2.7083672763   -0.9648597329
 C    1.0649857013   -2.7393079949    0.1178762570
 C    1.1277174401   -1.8181251492    1.2796029773
 C    0.6148149133   -0.5880802828    1.2337006884
 H    1.1702971532    1.7986004953    0.0046067538
 H   -0.3408029724    1.9590993893   -0.9059634746
 H   -0.3673657116    1.9807995869    0.8635491610
 H   -2.1009511299    0.1210266975   -0.7891754301
 H   -1.7336696403   -1.4252013387    0.0033883178
 H   -2.0281646278    0.0195200724    0.9778603516
 H   -0.0187982336   -0.3251833838   -2.1452469777
 H    1.5595660794   -0.1257949537   -1.4100440123
 H    0.1098845362   -2.6919967770   -1.8827009209
 H    2.3900430596   -3.6448690533   -1.4445354724
 H    2.9507432235   -2.0141224532   -0.8408572423
 H    0.6410306794   -3.7184754026    0.3273982145
 H    1.5952026419   -2.1842955824    2.1912116183
 H    0.6565484779    0.0500905238    2.1143582054