20

 O   -0.0977602116    1.4514148414    0.0472512611
 C    0.0315088687    0.0366826626    0.0190354218
 C    0.7599487709   -0.5029644433    1.2594583138
 C    0.6223852051   -1.9992516209    1.3791793355
 C   -0.3131919700   -2.6929054412    0.7278712995
 C   -1.3307576112   -2.0617120904   -0.1471849452
 C   -1.7023813134   -2.7787168782   -1.4061626521
 N   -2.6502366652   -2.7168408245   -0.2877580186
 C   -1.3775028552   -0.5460608887   -0.0628015902
 H    0.7859025580    1.8309409085    0.0879196417
 H    0.5930816724   -0.2770278242   -0.8769977392
 H    1.8227716841   -0.2265394092    1.2232322335
 H    0.3470020927   -0.0029850152    2.1474664911
 H    1.3312534682   -2.5190926566    2.0179444114
 H   -0.3597044205   -3.7766051141    0.8246385844
 H   -1.9886233645   -2.2022760189   -2.2823593599
 H   -1.2056468463   -3.7206967711   -1.6261080852
 H   -2.6548452504   -3.6010963636    0.2164514812
 H   -1.9310725254   -0.2517990314    0.8370655055
 H   -1.9089942665   -0.1237606508   -0.9195809902