17

 N    0.2416874213    1.3374939155   -0.0609070981
 C   -0.0050540981   -0.0459435641   -0.0132051797
 C   -1.1537275096   -0.7807118247    0.1895064161
 C   -0.7745649492   -2.1542729108    0.2273968517
 C    0.5864134375   -2.2251520990    0.0460086634
 C    1.5269731203   -3.3859120535   -0.0524070293
 C    2.0923825730   -3.4289470283   -1.4631579560
 O    3.2025783383   -3.0642245458   -1.7589158901
 N    1.0427864381   -0.9255968506   -0.1005777251
 H    0.5516662332    1.6480865677   -0.9771755977
 H   -0.5934532115    1.8569592480    0.1782173732
 H   -2.1497324352   -0.3774617507    0.2906802647
 H   -1.4308404688   -3.0005057163    0.3656170766
 H    2.3621008361   -3.3127429571    0.6540587725
 H    0.9696424356   -4.3060494424    0.1497482049
 H    1.3665728392   -3.7661476947   -2.2367392426
 H    2.0084790298   -0.6563177633   -0.1898790946