20

 C   -0.0546962280    1.4058519915    0.0953350002
 N    0.0388146865   -0.0063673259   -0.1878233095
 C   -1.1456642986   -0.8499728709    0.0333405327
 C   -0.6145252371   -2.2901063502   -0.1325073132
 C    0.8852865747   -2.1028423032   -0.0104637705
 C    1.8025743092   -3.2031690318    0.0625669696
 O    1.4695448472   -4.3789900400    0.0693609773
 C    1.1747228167   -0.7678560451   -0.0604274078
 C    2.5183742711   -0.1108870169   -0.0299400845
 H    0.8609132386    1.9206096266   -0.2004605518
 H   -0.8825758680    1.8394738862   -0.4752355314
 H   -0.2399849766    1.6099225860    1.1632073224
 H   -1.5341695481   -0.6744404607    1.0491234550
 H   -1.9385180050   -0.5871333420   -0.6740122241
 H   -1.0163900193   -2.9765505609    0.6162114052
 H   -0.8764272149   -2.7054438795   -1.1131417143
 H    2.8807258256   -2.9298960396    0.1253468747
 H    3.3148578634   -0.8537589698   -0.0064435525
 H    2.6640813352    0.5178922183   -0.9155577344
 H    2.6271256173    0.5338351378    0.8495255169