15

 C    0.0442850786   -1.2134268943    0.0065140396
 C    0.0394778447   -0.0111446997    0.0308087468
 C    0.0277806934    1.4204990383    0.0663895775
 C    0.4415385424    2.2330084036    1.2860581809
 C    1.6452061811    1.5769523869    1.9471089464
 O    2.3768010723    1.5599320170    0.6880782104
 C    1.3116889206    2.2534780676    0.0395194419
 C    1.5982675760    3.2415670045   -0.9393004910
 C    1.8346325918    4.0716642849   -1.7770649021
 H    0.0550294251   -2.2746844740   -0.0261971731
 H   -0.7759659674    1.8972121029   -0.4890534225
 H   -0.1910405778    3.0027097044    1.7059616519
 H    2.1503400061    2.2239741167    2.6708295859
 H    1.5071510781    0.5718132065    2.3566025662
 H    2.0487662649    4.8037413646   -2.5161289087