19

 C    0.0087878266    1.4042272707    0.3891519543
 C    0.1456108646   -0.0569031778   -0.0072204410
 O    1.2187258019   -0.5511249380   -0.2739129731
 C   -1.1373086896   -0.8646173067   -0.0378217915
 C   -1.1213773945   -2.3362983656   -0.4289979250
 C   -0.8166499456   -3.1592766193    0.8310644631
 C   -0.6331466434   -2.1846658888    1.9902881987
 C   -1.7611569085   -1.3504738884    1.3202366576
 C   -2.2157364403   -2.6638454464    0.5614532252
 H    0.9945074969    1.8650636287    0.4634117449
 H   -0.5897611625    1.9407710826   -0.3564178975
 H   -0.5194089045    1.4979141990    1.3447946622
 H   -1.9062343683   -0.3191590738   -0.5981816921
 H   -0.9684901136   -2.7558615924   -1.4140764245
 H   -0.4432365476   -4.1710608961    0.7423392286
 H   -0.9768215030   -2.6213300533    2.9320080376
 H    0.3435269309   -1.7105661476    2.1340092428
 H   -2.3949520735   -0.6843732892    1.9019070164
 H   -3.1673231661   -3.1624684977    0.4527688933