18

 C   -0.3592335947    1.3533564087    0.1126445558
 C   -0.0429681443   -0.1048178443    0.0073626312
 C   -0.0953687361   -0.8863491121   -1.0765390786
 C    0.2766313979   -2.3289118094   -0.8215886943
 C    0.4888570227   -2.3671708450    0.7061014041
 C    0.3620410680   -0.9119081565    1.2099310742
 O   -0.7935973025   -1.3040241796    2.0532442634
 C   -0.7379567909   -2.5960604019    1.5707744533
 N   -1.4756405997   -3.5840849050    1.7996112303
 H    0.5036668384    1.9213009314    0.4827096264
 H   -0.6547980353    1.7732643152   -0.8521920586
 H   -1.1755628907    1.5218529600    0.8252614763
 H   -0.3828654136   -0.5371153485   -2.0636857580
 H   -0.5044833602   -3.0271128078   -1.1424279999
 H    1.1884091367   -2.6121579461   -1.3619884401
 H    1.3603901924   -2.9379923944    1.0257320568
 H    1.1377084889   -0.4735184331    1.8425229736
 H   -2.2289870672   -3.3423911617    2.4460221042