14

 O   -0.8236749998    0.9753168624    0.3706850947
 C    0.3214956118    0.8295358536    0.0589788955
 C    1.3899408328    1.9506410019    0.0864028653
 O    2.6645548989    1.3527864663    0.2559855366
 C    3.5382685508    1.7197932038   -0.8207547841
 C    2.6652604894    2.4697330202   -1.7820691997
 C    1.4471475404    2.6198429634   -1.2781412458
 C    1.1054774095    2.9212708731    1.1619360098
 N    0.8988743571    3.6911478542    1.9973438424
 H    0.7466446428   -0.1209939736   -0.3271085588
 H    4.3670965339    2.3363330578   -0.4436040610
 H    3.9693523074    0.8059609269   -1.2491419835
 H    3.0183241408    2.8490747529   -2.7322624364
 H    0.5944464143    3.1307048869   -1.7020009550