13

 O   -0.1482403472    1.4049334754    0.0426223887
 C   -0.0859344812    0.0136883613   -0.0326029115
 C   -1.3331323855   -0.7719298748    0.0182305274
 C   -2.4634647187   -0.0192315342   -0.7036331693
 C   -1.6008854788   -0.0903903754   -1.9865210802
 O   -1.8299420069    0.1412468818   -3.1395331021
 C   -0.4571750996   -0.7675430772   -1.2885013003
 H    0.5407276843    1.7709041759   -0.5221286462
 H    0.7613484720   -0.4305597974    0.4916421217
 H   -1.4774555448   -1.6020726108    0.6969472022
 H   -3.3741371438   -0.6109193306   -0.8302825880
 H   -2.7112716634    0.9718646710   -0.3210746354
 H    0.2095857938   -1.5105233149   -1.7098150969