22

 C   -0.0587385018    1.5453116123   -0.0287614963
 C   -0.0955849903    0.0300871924    0.0973534436
 C   -1.3341278620   -0.5556301733   -0.5568435837
 O   -1.2742680367   -0.2473660479   -1.9466167979
 N    1.1996923696   -0.6525788239   -0.0956449727
 C    0.5848939510   -0.6611527835    1.2470887945
 C    1.3236637213    0.1409293092    2.3072506065
 C    0.0620794837   -1.9740039776    1.8022049118
 O    1.1864626827   -2.7464651064    2.2134092929
 H    0.9192150953    1.9460155450    0.2343931746
 H   -0.2751432634    1.8259995461   -1.0623338030
 H   -0.8139170248    2.0092899783    0.6166471996
 H   -1.3915319543   -1.6418978904   -0.4155319783
 H   -2.2314748954   -0.1126732209   -0.0945751472
 H   -2.1084140268   -0.5099561726   -2.3463786360
 H    1.0641378131   -1.5509184306   -0.5555466115
 H    1.8829921880    0.9661549452    1.8686827012
 H    0.6243257912    0.5452228523    3.0486100023
 H    2.0297709420   -0.5119944434    2.8258678045
 H   -0.6049411414   -1.7665124422    2.6549656564
 H   -0.5196859486   -2.5267242232    1.0543446781
 H    0.8606767377   -3.5269627847    2.6708507205