19

 C    0.1162031703    1.3824593344    0.0802447225
 C   -0.1338409334   -0.1164088575   -0.1348665743
 N    0.6062681887   -0.6276841467   -1.2800160386
 C    1.8078842009   -1.0114064854   -1.1140665229
 N    2.5983218530   -1.0456524850    0.0264125800
 C    3.9499460218   -1.5519577809   -0.1838088138
 C    3.9711709441   -1.8748983746   -1.6690339726
 O    3.0482804820   -2.9014260174   -2.0211052455
 C    2.6605232053   -1.5278716245   -2.2321694651
 H    1.1664809887    1.5738312761    0.3211876827
 H   -0.1279085493    1.9389938720   -0.8290275466
 H   -0.5006590951    1.7674832445    0.8987914304
 H    0.0851420348   -0.6646752314    0.7983630079
 H   -1.1996161956   -0.2770845936   -0.3311886776
 H    2.1818683655   -1.0624549306    0.9418100541
 H    4.7070820518   -0.7940676060    0.0587154253
 H    4.1567716250   -2.4469824890    0.4164561813
 H    4.9002873111   -1.8426573010   -2.2296350115
 H    2.4662182805   -1.2290561134   -3.2553006957