13

 N    0.0521998525    1.3894430376    0.1659603547
 C    0.0119390075    0.0006305418    0.0489632081
 C   -1.0898293976   -0.8242157532    0.0288349546
 N   -0.6354142940   -2.1322426401   -0.0175413151
 C    0.7158923175   -2.1674265790   -0.0271297616
 C    1.1674231981   -0.8548197269    0.0106643639
 C    2.5079515211   -0.4124026690   -0.0022578377
 N    3.5926085484   -0.0012633111   -0.0205865940
 H    0.9225891710    1.7900586656   -0.1583396446
 H   -0.7333342377    1.8623742307   -0.2583022730
 H   -2.1422820346   -0.5976663022    0.0533979286
 H   -1.2297666665   -2.9419271190   -0.0395972160
 H    1.2693899245   -3.0904708852   -0.0661801980