19

 C    0.1080183334    0.7478734322    1.0250478993
 C   -0.4774269530   -0.5338246477    0.4388114305
 N   -1.3232719342   -0.2261027825   -0.7150093854
 C   -1.9233825756   -1.3849643652   -1.3785525221
 C   -2.9439251938   -2.1406391942   -0.5717163217
 N   -4.2433632385   -1.8851146867   -0.6647971019
 N   -4.7726873142   -2.7341004433    0.2482424292
 C   -3.7980665073   -3.4530554309    0.8379306089
 N   -2.6252760801   -3.1067110445    0.3473457176
 H    0.7779780971    0.5217969042    1.8601146320
 H    0.6675110380    1.3013398639    0.2653242918
 H   -0.6833175432    1.4050092938    1.4051934047
 H    0.3331314150   -1.1846533767    0.0858552817
 H   -1.0011669259   -1.0999654918    1.2263306428
 H   -2.0626163067    0.4117465284   -0.4334966456
 H   -2.4047452596   -1.0405822466   -2.2988977908
 H   -1.1172687398   -2.0724637120   -1.6554469285
 H   -5.7694774187   -2.7686835094    0.3850469386
 H   -3.9871525528   -4.1988948910    1.5955927888