19

 C    0.1359707335    1.5295811354    0.0265963458
 C    0.1194266144    0.0070745403    0.1964299460
 O    0.6534632299   -0.3911047526    1.4519437889
 C   -1.2914851935   -0.5631733178    0.0615717091
 O   -2.0185581141   -0.0893635079    1.1603763262
 C   -2.0861840886   -0.6308021729   -1.2865142018
 C   -1.1870598070   -1.7803676192   -1.7831914811
 C   -1.5572461616   -2.0601515182   -0.3133178948
 O   -2.9601617033   -1.6541350117   -0.6375125392
 H    1.1443431828    1.9068021987    0.2142807330
 H   -0.1597162092    1.8186334140   -0.9881714789
 H   -0.5540559751    2.0010256936    0.7314670621
 H    0.7774603337   -0.4430642493   -0.5513666436
 H   -0.0323076444   -0.1969047767    2.1033257326
 H   -2.8900986994   -0.5049311866    1.0768326187
 H   -2.5858764834    0.1609317356   -1.8453326549
 H   -1.6766801439   -2.4447397607   -2.4943180096
 H   -0.1487048000   -1.5747018509   -2.0440297581
 H   -1.4269613210   -2.9620481131    0.2841065095