19

 O    0.0908426088   -0.0925200850   -0.6264564077
 C    0.0638286005    1.0260991358   -0.1839772655
 C    1.2818809143    1.9270976106   -0.0332851283
 C    1.2678061625    2.9633661330   -1.1347064390
 C    0.8697764938    4.2240620741   -0.9549883420
 C    0.8748347120    5.2301168077   -2.0748337884
 C    1.7132319899    4.7076455891   -3.2437961712
 O    1.3765967252    3.3650713469   -3.5486675589
 C    1.7018091254    2.4781012437   -2.5002056086
 H   -0.8948866588    1.5091350504    0.1122839941
 H    1.2395764963    2.4185065339    0.9448566387
 H    2.1791358410    1.3010678771   -0.0857037099
 H    0.5386127718    4.5569505920    0.0264231431
 H   -0.1529823791    5.4325537202   -2.4062522093
 H    1.2798823132    6.1887997012   -1.7266190280
 H    1.5341222339    5.2836954363   -4.1555500755
 H    2.7851796971    4.7852303087   -2.9965627881
 H    2.7900628463    2.2767865655   -2.4823863848
 H    1.2127367157    1.5258896488   -2.7368146005