25

 C   -0.0902701995    1.5688331600   -0.1704049634
 C   -0.0005460740    0.0481075152   -0.0592183269
 C    1.1732109484   -0.5680511145   -0.8785899778
 C    2.0047416180   -0.6649961467    0.4280540725
 C    0.6855551278   -0.5085508739    1.2362210916
 C    0.6844949569    0.2995951418    2.5284173841
 C    1.4778878343   -0.3793745499    3.6510438687
 C    1.4868804811    0.4240954264    4.9442459766
 O    2.2444600837   -0.2962563733    5.9059174493
 H    0.8824561900    2.0484979215   -0.0146596606
 H   -0.4394823422    1.8569575664   -1.1680730747
 H   -0.7890097311    1.9891999681    0.5608078174
 H   -0.9859769646   -0.3821602866   -0.2655399423
 H    0.9240267068   -1.5539904236   -1.2807459552
 H    1.5803920427    0.0424663482   -1.6897146566
 H    2.5954579099   -1.5701707327    0.5881334230
 H    2.6637176748    0.1998435393    0.5590626972
 H    0.2747675955   -1.5046189985    1.4433764956
 H    1.1012813350    1.2981439812    2.3417148319
 H   -0.3522829189    0.4577538712    2.8583119121
 H    1.0597196119   -1.3714819612    3.8620861707
 H    2.5160669330   -0.5403139561    3.3362103689
 H    1.9221871159    1.4204446257    4.7598436583
 H    0.4519020032    0.5827888051    5.2904431211
 H    2.2449242517    0.2062708169    6.7256179085