15

 O    0.1083050551   -0.0009896487   -0.1717014717
 C    0.1633106278    1.1738566277   -0.3577946894
 O    0.8774170495    1.9901230697    0.4739758049
 C    0.8971426816    3.3472016293    0.1982379959
 C    0.4229723087    4.4894457515    1.1579818820
 C    0.9988025382    5.2526070405   -0.0839573690
 C    2.1736325958    4.2154142018   -0.0606020541
 C    0.2533893396    4.2027932992   -0.9187073434
 O   -0.4355158716    4.0941174302   -1.8849445709
 H   -0.3268920260    1.7201660067   -1.1788814716
 H   -0.6457443418    4.5746394577    1.3585766144
 H    1.0264315565    4.5857691689    2.0622290119
 H    1.0636441295    6.3241377016   -0.2317407472
 H    2.8315048729    4.3032262795    0.8057691153
 H    2.7240825143    4.0471877644   -0.9870730068