15

 O   -0.0000792737    1.3062207036    0.1201041759
 C    0.0105927095   -0.0950847438   -0.0208343873
 C   -1.4218620230   -0.5995632734   -0.1463030118
 C   -1.3957191397   -0.4593380203   -1.6482531088
 C    0.1655282876   -0.5798018606   -1.4975103569
 O    0.0945637875   -2.0255397740   -1.3799865889
 C   -1.2806797536   -1.8480345335   -1.0731134721
 C   -2.2508250299   -2.9464098680   -1.0697874022
 O   -1.9837761404   -4.1068131018   -1.2547053038
 H    0.9132575051    1.6111718823    0.1167682050
 H    0.6699460716   -0.5867195370    0.7061850359
 H   -2.2481253188   -0.4706475573    0.5402572238
 H   -2.0736546993   -0.0312097398   -2.3725644290
 H    0.9429162253   -0.2186510870   -2.1677302051
 H   -3.2918755983   -2.5982009094   -0.8749305048