18

 C   -0.0151501644   -1.2093698679   -0.0039629774
 C   -0.0511019929   -0.0081665777    0.0155678746
 C   -0.0519370374    1.4517837628    0.0369732144
 C    1.3518254899    2.0243541780    0.0044713539
 C    2.3509691586    1.8115516798    1.1775400216
 C    3.0092563881    3.1041578102    0.7019282311
 C    1.7847417710    3.5500654244   -0.0002461315
 N    2.9768855767    3.1664628691   -0.8047354021
 C    2.2811447357    1.9026714648   -1.2166707267
 H    0.0018804948   -2.2708904858   -0.0209404889
 H   -0.6230723845    1.8314780916   -0.8210410762
 H   -0.5765728648    1.8060251241    0.9343903532
 H    1.8714445276    1.9570200699    2.1497210889
 H    2.9298513254    0.8824861605    1.1829516808
 H    3.7764228649    3.6960822757    1.1830456117
 H    1.2646686358    4.4958032949   -0.0812888278
 H    2.9179599746    1.0146058364   -1.2978073623
 H    1.7733048807    2.0856012791   -2.1679744874