17

 O   -0.1077865112    0.3958406838   -1.1504754132
 C   -0.0660470033    1.3384700793   -0.4059000740
 C   -1.2121027168    1.9963804659    0.2767657203
 C   -1.0205081810    2.2995241993    1.7623030918
 C   -0.7397444324    3.3623828138    0.7565291450
 C    0.7157259326    3.5597360666    0.3364222223
 C    1.2358216236    2.1541481397   -0.0849641566
 C    2.0407244472    1.4774136550    0.9213640212
 C    2.6961248130    0.9173234489    1.7600371634
 H   -2.2082156074    1.7973592673   -0.0965927360
 H   -1.9385421343    2.3742202456    2.3340890409
 H   -0.1973792914    1.8276901572    2.2867747445
 H   -1.4083384377    4.2131477978    0.6937768618
 H    0.7580364912    4.2297747533   -0.5277678815
 H    1.3244327518    4.0006135038    1.1297499780
 H    1.8077556419    2.2067470788   -1.0163178494
 H    3.2824938141    0.4161092440    2.4898757113