19

 C   -0.0383687772    1.5365061813    0.0419423925
 C    0.0387484978    0.0370098071    0.0179884135
 C   -0.8466445500   -0.8422810366    0.8580162641
 C    0.6464749360   -0.9463339478    1.0301041472
 C    1.3128104614   -1.7452074210   -0.1172692652
 C    0.6852692399   -0.7577832839   -1.1520002103
 C   -0.1030397058   -1.9159569764   -1.8289581623
 C    0.4848168810   -2.8803244697   -0.7645433607
 O    0.3669798096   -4.0525995775   -0.5604569327
 H    0.9222130600    1.9918961776   -0.2254979002
 H   -0.7887788709    1.9054457906   -0.6685243772
 H   -0.3174456648    1.9024795908    1.0355075983
 H   -1.3507329236   -0.3201339530    1.6659731756
 H   -1.4342971882   -1.6571381532    0.4452752000
 H    1.1218015521   -0.7537427247    1.9845242863
 H    2.3878944388   -1.9007127841   -0.0234337093
 H    1.3271414188   -0.1589920971   -1.7967810059
 H   -1.1933399368   -1.8508159734   -1.8774776494
 H    0.2706922519   -2.1670164288   -2.8277349343