18

 O   -0.0144761374    1.4041828598    0.0311501750
 C    0.0174631764   -0.0124028507    0.0431627131
 C   -1.3764550365   -0.5669730785    0.0161560276
 N   -2.3853503277   -0.1282057208    1.0476501157
 C   -3.1445054360   -1.0480024102    0.1367896733
 C   -2.4387703270   -0.4971982444   -1.1317662753
 C   -2.0770115789   -1.9005718471   -1.6683004371
 C   -1.9275001207   -2.0209737601   -0.1363566004
 O   -1.4827683049   -3.0717868134    0.6382508765
 H   -0.7606140948    1.6596808144    0.5888770389
 H    0.5797782030   -0.3389426086   -0.8391725318
 H    0.5483356451   -0.3961863837    0.9306467000
 H   -2.1940318013   -0.6036834960    1.9346007076
 H   -4.2015925435   -1.2844068221    0.2670585047
 H   -2.7213543120    0.3997440820   -1.6747662041
 H   -2.8913181679   -2.4660889685   -2.1320939285
 H   -1.1625426171   -1.9806993166   -2.2625427161
 H   -2.0568114288   -3.8317695855    0.4916337408