17

 N   -0.0480139056    1.3523614686   -0.0829251275
 C   -0.0000381284    0.0918876826    0.0384721825
 C   -1.2806029106   -0.7131807686    0.0590825185
 C   -1.4414458476   -1.7393051656    1.2024401240
 C   -0.5391823885   -2.9381554880    1.0573641131
 C    0.7852850609   -2.8434517352    0.9585166767
 C    1.5159498217   -1.5284822927    1.0405821788
 O    1.2014826211   -0.5708975864    0.0111734746
 H    0.9039830519    1.7250376799   -0.1243029581
 H   -2.0927392911    0.0152465578    0.0929008833
 H   -1.3509909275   -1.2479030568   -0.8965011081
 H   -1.2591488338   -1.2399940992    2.1647487664
 H   -2.4861975119   -2.0617317253    1.2226305084
 H   -1.0105728757   -3.9159252335    0.9991133869
 H    1.3900541720   -3.7362279296    0.8282618893
 H    1.3475095845   -1.0547675165    2.0190593746
 H    2.5915176286   -1.6828170514    0.9350823564