18

 O   -0.1162285079    1.4547631443    0.1134988444
 C   -0.0286448401    0.0454400930   -0.0014239480
 C    0.7535837672   -0.5382575792    1.1857651091
 N    0.6286033183   -1.9914912471    1.2541385930
 C   -0.4515099702   -2.7047641487    0.8328648405
 O   -0.6818787960   -3.8464636094    1.2008744616
 C   -1.3646566832   -2.0403460602   -0.2063338504
 O   -2.6353806971   -2.6297119342   -0.1447150844
 C   -1.4414736793   -0.5260543563   -0.0224797691
 H    0.7601781497    1.8285274064   -0.0238403267
 H    0.4812933488   -0.2368772320   -0.9365480806
 H    1.8160725288   -0.2802802734    1.1015998097
 H    0.3699010272   -0.0647355946    2.1005095091
 H    1.1879193567   -2.4744201987    1.9444752295
 H   -0.8904659227   -2.2465876798   -1.1851970607
 H   -2.4845543485   -3.4948971115    0.2695050398
 H   -1.9523324417   -0.2924411318    0.9187564249
 H   -2.0196915801   -0.0737094568   -0.8324356619