21

 C    0.0387463217    1.4739142751    0.0068828642
 C    0.0302704296   -0.0373419147   -0.0224884690
 C   -1.2954286510   -0.8323774261   -0.2010718096
 C   -0.3839178600   -1.9487028487   -0.7283277728
 C    0.6927699848   -2.2138444412    0.3641977802
 C    1.8505865029   -1.6168906621   -0.5058797309
 C    2.2949893849   -0.7401239744    0.6774742407
 C    0.7983618806   -0.8036996618    1.0779508371
 C    0.6637919838   -0.8900096865   -1.2094534501
 H    1.0571551620    1.8750800417    0.0460734208
 H   -0.4470295800    1.8913148166   -0.8818281558
 H   -0.4994492062    1.8505851005    0.8853969092
 H   -1.9073151809   -1.0195336095    0.6891555456
 H   -1.9212346866   -0.4055379026   -0.9918392361
 H   -0.7360874519   -2.7834855066   -1.3334955133
 H    0.7700426578   -3.1247238029    0.9556318073
 H    2.5359956223   -2.2122602631   -1.1089467606
 H    2.9284352416   -1.2974373324    1.3746307222
 H    2.7446830938    0.2395843470    0.4830600048
 H    0.4740809588   -0.6443005655    2.1078619766
 H    0.7002833021   -0.4629881530   -2.2108362206