17

 O    0.0334087258    1.3616896556   -0.0685635921
 C   -0.0491729486   -0.0281345371    0.0063633897
 C   -0.5350033268   -0.7694756616    1.2666353522
 C   -1.2230774286    0.0483733393    2.3152543306
 O   -0.9598269607    0.0438513765    3.4925739894
 C   -2.3443750488    0.8575782882    1.6524768690
 C   -2.6062999157    0.1783517417    0.2944827573
 C   -1.3783765166   -0.6888635131   -0.0001551599
 O   -1.5631142023   -1.8441645912   -0.7565447299
 H    0.8025236833    1.6478020433    0.4367822116
 H    0.7348833625   -0.5714254615   -0.5210174753
 H    0.0088453881   -1.6560617343    1.5669313089
 H   -3.2173763243    0.8913271173    2.3077272404
 H   -1.9824296838    1.8822964638    1.5246523764
 H   -3.4642460220   -0.4977112175    0.3573088033
 H   -2.8017712802    0.8959956331   -0.5079803616
 H   -1.6411593012   -1.5877752923   -1.6825979700