21

 C   -0.0015813254    1.3591654581    0.2022809931
 N   -0.0635393855   -0.0927285794    0.3091933478
 C   -1.1185496506   -0.6837510876   -0.0083470245
 O   -2.3288913474   -0.1838366938   -0.4576933040
 C   -2.8681420075   -1.5289067217   -0.6250870541
 C   -1.5658067742   -2.1383139919   -0.0573226065
 N   -0.8286767918   -3.0121767063   -0.9464855086
 C    0.5384023168   -3.2312990715   -0.4808862682
 C   -1.5281381732   -4.2741845835   -1.1412586405
 H    0.8575702433    1.6339349154   -0.4188637330
 H   -0.9038455182    1.8155717499   -0.2203936224
 H    0.1737233197    1.7843257905    1.1968070714
 H   -3.7779991039   -1.6629722238   -0.0359101224
 H   -3.0461377028   -1.7465907851   -1.6806705590
 H   -1.6985391052   -2.5652775376    0.9551124066
 H    0.5766274317   -3.8030982360    0.4660560026
 H    1.0900192953   -3.7956455920   -1.2390684087
 H    1.0304395647   -2.2707383351   -0.3208287014
 H   -2.5309525058   -4.0974723380   -1.5431172049
 H   -0.9796652395   -4.8860614101   -1.8635217563
 H   -1.6318396504   -4.8594559707   -0.2070140270