17

 O   -0.0323317088    1.3483372855    0.0100803548
 C   -0.0012089678   -0.0392642938   -0.0571954579
 C    0.9027866292   -0.6965717392   -1.1078638176
 C    0.0833390814   -1.8729101008   -1.5912903032
 C   -1.1126655479   -1.9223871931   -0.9978017767
 C   -1.2837364491   -0.8079493901   -0.0193189084
 C   -0.3610234686   -0.8056173333    1.2234666220
 C    0.3593280948   -1.9965965710    1.7222049232
 O    0.7020084213   -2.1291200814    2.8757182223
 H    0.7568696426    1.6490300205    0.4745328296
 H    1.0945563927    0.0256989686   -1.9121467508
 H    1.8809766599   -0.9972346346   -0.7133891228
 H    0.4556030435   -2.5829775286   -2.3203095058
 H   -1.8754119606   -2.6715174029   -1.1736390736
 H   -2.2410141099   -0.3152563241    0.1060791396
 H   -0.6900305986   -0.1416228826    2.0168180045
 H    0.5750546961   -2.7827886089    0.9701893508