21

 C   -0.8118036491    1.2245851018   -0.0145208187
 C    0.0223218817   -0.0580224115    0.0107297044
 C    0.9732631291   -0.2506122294   -1.1651734877
 C    2.3025525343    0.4917512209   -1.1524283607
 C    2.2350413640   -0.9204597452   -0.6629975529
 O    2.9520076105   -1.8650520093   -1.4002405452
 C    2.0663345499   -1.1527315040    0.8331111483
 C    0.9145759935   -0.2205253413    1.2736830907
 O    1.3818536613    1.0677867271    1.6703813021
 H   -0.1714165164    2.1087720286   -0.0198722321
 H   -1.4425605343    1.2497544286   -0.9090262172
 H   -1.4663863380    1.2902430184    0.8609373266
 H   -0.6670262894   -0.9146133689    0.0110889918
 H    0.5594833026   -0.5151512215   -2.1326928777
 H    2.7767863401    0.6152544095   -2.1197631924
 H    2.4583869224    1.2959239045   -0.4441905527
 H    2.4728357666   -2.7006643479   -1.3594237429
 H    1.7796292505   -2.2008591270    0.9980634635
 H    2.9813286942   -0.9752873366    1.4108808365
 H    0.3370508042   -0.6642359340    2.0971144567
 H    1.9753847625    0.9474713971    2.4180078297