16

 O   -0.2057256814    0.0947143212   -0.0135546989
 C   -0.1099287074    1.2872427052   -0.0520360866
 N   -1.0792833743    2.3095342233    0.0005874979
 C   -0.0622625748    3.3627983665   -0.0259906999
 C    0.9517334058    3.2268942446    1.0731763168
 C    0.6472842324    2.7417765210    2.4511332321
 C    1.6064221150    2.9092028129    3.5498831937
 O    0.4640403337    3.7604491671    3.4407461569
 C    1.0220974998    2.3064541752   -0.1562531261
 H   -1.8716443272    2.2962679344    0.6328181279
 H   -0.2073350995    4.2547529416   -0.6207020504
 H    1.7159476826    4.0020285892    1.0516507882
 H   -0.0607637316    1.9172598310    2.5236525547
 H    1.5959316071    2.2115331757    4.3857286554
 H    2.5658223523    3.3876255488    3.3564582781
 H    1.8865509172    2.2661778625   -0.8029906499