25

 C    0.2763539798    1.5102069711    0.0897652149
 C    0.0663684400   -0.0018832671   -0.0370363364
 C    0.7332395922   -0.6423978805   -1.2721345390
 C    2.2648882669   -0.6285353170   -1.1601159465
 C    0.1590235422   -2.0554033476   -1.5117927487
 O   -1.2622964003   -2.0132221361   -1.6529326649
 C    0.7369644215   -2.8068567985   -2.7200088946
 O    2.0067983938   -3.3381441157   -2.4110882354
 C    2.5491987503   -4.1018095875   -3.4617883750
 H    1.3309352053    1.7757692477    0.2119418651
 H   -0.0965658627    2.0371607640   -0.7964081847
 H   -0.2612589497    1.9050533241    0.9576857410
 H    0.4474090808   -0.5023733541    0.8639692606
 H   -1.0059179162   -0.2152427699   -0.0746392308
 H    0.4524460032   -0.0427828123   -2.1562772707
 H    2.6314352344    0.3909879485   -1.0109271844
 H    2.5958062497   -1.2326288594   -0.3079115752
 H    2.7461758839   -1.0367968629   -2.0495400078
 H    0.3398194790   -2.6769197910   -0.6261025034
 H   -1.4664727693   -1.3904333959   -2.3598901593
 H    0.0327772359   -3.6151469390   -2.9716803113
 H    0.7982711454   -2.1367601694   -3.5982541613
 H    1.9010552185   -4.9538929395   -3.7208630578
 H    2.7007121809   -3.4992469129   -4.3716431255
 H    3.5166868743   -4.4822595889   -3.1253205589