21

 C   -0.0037255821    1.5741017833   -0.1509041728
 C    0.0039609673    0.0423022605   -0.0548474973
 C    0.5849900841   -0.5654773338   -1.3420113353
 C    0.7765341332   -0.4752622774    1.1866263560
 C    0.2261303320    0.0734426566    2.5246429474
 C    1.0625272646   -0.3346576865    3.7222298405
 O    0.6173770479   -0.8001858546    4.7381597839
 C    0.7076885038   -1.9941296459    1.2420243661
 O    1.6573095176   -2.7294141087    1.3119329877
 H    1.0176774010    1.9718371904   -0.1743495972
 H   -0.5014882800    1.8903641759   -1.0728570832
 H   -0.5328612469    2.0469219774    0.6806879495
 H   -1.0378772329   -0.2966260872    0.0423870937
 H    1.6255352500   -0.2523459927   -1.4852675065
 H    0.5710975989   -1.6597249406   -1.3280900076
 H    0.0138408512   -0.2367134798   -2.2154352494
 H    1.8364411506   -0.2066788963    1.0933400041
 H    0.2426433596    1.1702406072    2.4922301728
 H   -0.8087418954   -0.2395009033    2.6983028995
 H    2.1553566165   -0.1521576771    3.6027489946
 H   -0.3332793112   -2.3981792973    1.2325808535