15

 C   -0.0506758175    1.5236344737    0.0106337610
 C    1.4182675496    1.8857594124   -0.0010751087
 C    2.1954387160    0.7885666931   -0.0146947294
 C    1.3373078229   -0.3972694514   -0.0134691293
 N    1.7109805266   -1.6757109414   -0.0243345933
 C    0.6894930641   -2.5427702488   -0.0196976603
 N   -0.6156757044   -2.2717370304   -0.0059265607
 C   -0.9635277078   -0.9734279445    0.0048143922
 C   -0.0074772463    0.0197480448    0.0015657870
 H   -0.5615173056    1.9271646052    0.8951732069
 H   -0.5780037779    1.9372752150   -0.8594414561
 H    1.7654588724    2.9111672961    0.0015698140
 H    3.2762568318    0.7506055074   -0.0250611505
 H    0.9589924392   -3.5964523160   -0.0284004461
 H   -2.0301980929   -0.7569784851    0.0160706533