22

 C   -0.0437818110    1.5572474828    0.1090992522
 C   -0.0005109867    0.0247045528    0.0253979471
 C    0.6459119946   -0.5496098997    1.2907694391
 O   -1.3306411866   -0.4943598010    0.0304129088
 C    0.7340719234   -0.4784122306   -1.2873894103
 C   -0.0251158359   -0.0496012938   -2.5662220724
 C    2.2000564515    0.0071724811   -1.3834553214
 C    0.7470130291   -1.9526924058   -1.2652322249
 N    0.7905521848   -3.1076949080   -1.2779412319
 H    0.9533107908    1.9971191588    0.1891326684
 H   -0.5409391181    2.0028845933   -0.7586255622
 H   -0.6098103332    1.8407039046    1.0004822567
 H    0.0541360250   -0.2451645805    2.1575198485
 H    0.6626353273   -1.6411557980    1.2580038501
 H    1.6664139375   -0.1842596582    1.4270002748
 H   -1.8700882647    0.0334232934   -0.5665388918
 H   -0.0169155745    1.0379836968   -2.6745026678
 H    0.4577503306   -0.4767706801   -3.4486518201
 H   -1.0582693317   -0.4035813321   -2.5544233814
 H    2.7884764078   -0.2961337193   -0.5155823578
 H    2.6761115224   -0.4150081778   -2.2723607129
 H    2.2355482779    1.0962482212   -1.4690497107