13

 O   -0.0813198020    1.4453762074    0.0105570046
 C    0.0479113290    0.0365172808    0.0018598060
 C   -1.3771072652   -0.5302913107    0.0122638180
 C   -1.4139339783   -1.9822879990    0.0051163765
 C   -1.4386583518   -3.1902400130   -0.0012595160
 C   -1.4318754740   -4.6294846450   -0.0093928286
 O   -2.4233299708   -5.3228432508   -0.0033706874
 H    0.7987525425    1.8325965905    0.0040265011
 H    0.5772214054   -0.3227548843   -0.8930577699
 H    0.5939113912   -0.3321870849    0.8828102683
 H   -1.9027249856   -0.1491664971    0.8965029921
 H   -1.9191907034   -0.1400600179   -0.8579694472
 H   -0.4163526069   -5.0761659661   -0.0220282175