12

 O   -0.0446497545    0.0766792372   -0.0244874398
 C    0.0422933873    1.2560805713    0.0308229358
 O   -0.9921801115    2.1807379481    0.1827859282
 C   -0.0591003645    3.2669571236   -0.0144659910
 C    0.9400476534    3.3026259233    1.1007071018
 C    0.6566072532    2.8827961153    2.4421401057
 C    0.4320608289    2.5412146520    3.5717367748
 C    1.1069291095    2.3214568796   -0.0905134479
 H   -0.3717206655    4.0885841027   -0.6430227955
 H    1.6427786337    4.1300233546    1.0146426149
 H    0.2238460488    2.2319342859    4.5662952321
 H    1.9968232612    2.2957100463   -0.7015101790