19

 C    0.2503829834    1.7286303109    0.1638250078
 C    1.5751166597    1.9450771995   -0.5971057615
 C    2.1668545742    0.5162583552   -0.6009487787
 O    1.0162787637   -0.3055971475   -0.7816186797
 C   -0.0099567594    0.2002132551    0.0451011448
 O   -0.0852730511   -0.5029071150    1.2601060604
 C    0.9169874991   -0.3249093891    2.2435003975
 C    2.3579748051   -0.1346044901    1.8452330489
 C    2.9030350897    0.2150787072    0.6806490458
 H    0.3235770139    2.0279529982    1.2115378371
 H   -0.5747076362    2.2917637310   -0.2763410707
 H    1.3850292081    2.2621239737   -1.6265901756
 H    2.2314285542    2.6795736875   -0.1258274108
 H    2.8207499477    0.3399630330   -1.4594278677
 H   -0.9588727247   -0.0353863063   -0.4422999231
 H    0.6520478954    0.5202701850    2.9061703847
 H    0.8462209000   -1.2205546101    2.8726477885
 H    3.0246990878   -0.2612154992    2.6979721372
 H    3.9811250593    0.3579551409    0.6426763852