19

 C   -0.0292021242    1.5177842415   -0.0149127007
 C    1.3039468016    0.8073677169   -0.0355955334
 C    0.0132543105    0.0080505908   -0.0511255388
 C    0.1488747294   -0.7031400983   -1.3940419265
 C    1.6640206205   -1.1888380440   -1.4302264110
 C    1.8968430892   -1.5363922257   -2.8912597171
 C    1.2875653245   -0.5400102485   -3.5387352834
 C    0.7311236235    0.3368519268   -2.4239069231
 C    1.9035121032    0.3834968871   -1.3729316095
 H   -0.3126760594    1.9570282138    0.9368205171
 H   -0.3714907720    2.0871298875   -0.8710668586
 H    1.9435811921    0.8490052843    0.8385745818
 H   -0.3241312394   -0.5553671621    0.8112956653
 H   -0.6458304331   -1.3809756479   -1.7117760411
 H    2.0567258039   -1.8381929261   -0.6459718012
 H    2.4317842212   -2.3926885922   -3.2766938543
 H    1.1858431689   -0.3551723490   -4.5986727579
 H    0.1805561210    1.2314770597   -2.7120492749
 H    2.8697886085    0.7962208754   -1.6694795729