17

 N    0.0617263693    0.9081247870    0.7833098522
 C    0.0145889815   -0.0516307413   -0.0392217905
 O    1.0624224337   -0.3656185280   -0.8600989431
 C    1.2818032695   -1.7268793604   -1.2682643124
 C    0.1873730181   -2.6648434741   -0.7948084514
 C   -0.0846090539   -2.7584792188    0.7520210807
 C   -1.4121131801   -2.0198956155    0.5288534911
 C   -1.1962298391   -2.0192626431   -0.9576766152
 N   -1.1818053462   -0.7812571578   -0.2057706201
 H    1.0006984021    1.3069796222    0.7821859732
 H    1.3386288703   -1.7283263714   -2.3633032464
 H    2.2624404425   -2.0256109850   -0.8776519570
 H    0.3024738643   -3.6435731295   -1.2637915091
 H   -0.2276606020   -3.7935102862    1.0689631040
 H    0.6286065307   -2.2737309329    1.4256593834
 H   -2.3234581403   -2.1095774976    1.1064528178
 H   -1.8921937904   -2.1213007876   -1.7822470271