20

 C   -0.0372954807    1.5749768177    0.0243490107
 C    0.0102463062    0.0462675585    0.0016667995
 C   -1.3975483824   -0.5834572296    0.0381876160
 C   -1.3782097270   -2.0399086101    0.0174194698
 C   -1.3176262239   -3.2456671835   -0.0012120102
 C   -1.3404112880   -4.6684450836   -0.0201436687
 C   -2.6688367633   -5.3865345445    0.0127307096
 N   -0.2022001229   -5.2715334902   -0.0651412875
 O   -0.3770830931   -6.6586866188   -0.0786569799
 H    0.9703681619    2.0000726873   -0.0021498657
 H   -0.5876448766    1.9693546847   -0.8372227209
 H   -0.5308544748    1.9449009799    0.9300421348
 H    0.5299784375   -0.3031233151   -0.8971353024
 H    0.5862827570   -0.3273711060    0.8552573304
 H   -1.9281243284   -0.2382716021    0.9365657136
 H   -1.9843815383   -0.2140492718   -0.8144038753
 H   -2.7740060454   -6.0232060163   -0.8713376469
 H   -2.7175742612   -6.0472458697    0.8839818401
 H   -3.4941574742   -4.6759521093    0.0490088935
 H    0.5316648777   -6.9759289072   -0.1123159806