17

 C    0.0763431583    1.4427455428   -0.0693713450
 C   -0.0140185390   -0.0105149405   -0.0692209868
 C   -0.0759584853   -1.2130252919   -0.0804469640
 C   -0.1974361554   -2.6652034993   -0.0727553543
 C   -1.5730260064   -3.1298370922    0.4581407672
 N   -1.6960037454   -4.5770471524    0.5125847171
 C   -2.0545191993   -5.3179054509   -0.5696826258
 O   -2.3303698081   -4.8625575823   -1.6595382634
 H    0.3202187062    1.8262756341   -1.0662751554
 H   -0.8709475709    1.9001460914    0.2371455398
 H    0.8516110278    1.7953584712    0.6199586383
 H   -0.0720686035   -3.0668552137   -1.0848831665
 H    0.5952732569   -3.1095626765    0.5433293013
 H   -1.7437762989   -2.7255713827    1.4593150472
 H   -2.3573547519   -2.7515389581   -0.2008762858
 H   -1.4321895856   -5.0613321452    1.3553757237
 H   -2.0784436693   -6.4022382138   -0.3403930476