14

 C   -0.0619985189    1.5953832464    0.0722210648
 C    1.4621779633    1.3567599728   -0.0007724973
 C    1.8004864379    0.7002689522    1.3552947504
 C    0.6370689227   -0.3449356684    1.3617285881
 C    0.0121430321    0.0540641891    0.0072477808
 O    1.1940393804    0.1916389950   -0.8446720862
 H   -0.4898828354    2.0771031411    0.9559317476
 H   -0.4525114605    2.0243824279   -0.8507370138
 H    2.1636864756    2.0695705414   -0.4340565970
 H    2.7869926469    0.2330757461    1.3352953219
 H    1.7628053037    1.4039364295    2.1912863862
 H    0.9961811139   -1.3757746965    1.3451954454
 H   -0.0534272125   -0.2277547732    2.2013314953
 H   -0.7741030993   -0.5697087434   -0.4178080664