22

 C   -1.5695458995   -0.8224410168    2.4316835516
 C   -0.6889603129   -0.9647697096    1.2077212178
 C   -0.5461523901    0.1591044676    0.2288206236
 N    0.5932480018   -0.2991940916    1.0119496161
 C    1.3350202588    0.5021147483    2.0002761767
 C    2.0635542587   -0.4628694450    2.9386175151
 C    2.3377694775    1.3546841660    1.1958643767
 C    0.4970898386    1.5019622839    2.8028559171
 O    0.4939560737    1.6018618755    4.0036944903
 H   -1.6902856497    0.2146758842    2.7527245888
 H   -2.5671414861   -1.2144263294    2.2055619531
 H   -1.1767001433   -1.3930943147    3.2794162943
 H   -0.6841658819   -1.9778443688    0.8045038085
 H   -0.4857827059   -0.0270425844   -0.8416273438
 H   -1.0475818171    1.0895259913    0.4873221095
 H    2.6863216074   -1.1425580524    2.3521637227
 H    2.6908114567    0.0858353450    3.6443343218
 H    1.3531602964   -1.0552237742    3.5205511036
 H    1.8179759100    2.0668049516    0.5462580601
 H    2.9994978926    1.9153913948    1.8627073518
 H    2.9385924351    0.6959161096    0.5637293543
 H   -0.1071627509    2.1987679592    2.1770870603