17

 C   -0.0728259583    1.5815846413    0.1575940979
 C    0.0054238763    0.0796612969   -0.0021064735
 C    0.5712196276   -0.5958732410   -1.2189166982
 C    1.1214063199    0.1888801047   -2.4019846956
 C    1.8921173901   -0.6663317918   -3.3058136669
 N    2.4826997993   -1.3583482531   -4.0175116486
 C    1.3345151405   -0.6719617290    0.1024819144
 C    2.5490623821    0.0761376055    0.2603311609
 N    3.5168840058    0.7000779965    0.3770799726
 H    0.8159300976    2.0902300032   -0.2224540347
 H   -0.9469442475    1.9790393932   -0.3683954125
 H   -0.1698709924    1.8460939399    1.2147641060
 H   -0.8204462685   -0.4543986883    0.4594062761
 H    0.0984706888   -1.5292592137   -1.5069918534
 H    0.2973340761    0.6356363014   -2.9706474817
 H    1.7645813780    1.0100552151   -2.0719218664
 H    1.3347723946   -1.6264013509    0.6169914335