19

 C   -0.2380809197    1.4017687351    0.0647523707
 C   -0.0399115865   -0.0741186494    0.1517672297
 C    1.1525369461   -0.8607775170   -0.3426940135
 C    0.6814070724   -1.0093542669    1.0897594615
 O    1.4541157461   -0.7218955440    2.1977846415
 C   -0.6157467499   -1.8152344080    1.1209814491
 C   -1.4293457195   -1.7135074597    2.4005656867
 O   -2.7788465599   -2.0525299517    2.1488518162
 O   -1.2034133317   -0.9223680654    0.1163034301
 H    0.7104845284    1.9203928233    0.2287555059
 H   -0.6148766763    1.6853369547   -0.9242305522
 H   -0.9563118766    1.7432090203    0.8163005993
 H    1.0219417618   -1.6588219692   -1.0691150819
 H    2.0638358248   -0.2775656438   -0.4412573906
 H    2.2090758411   -1.3207909128    2.2093245315
 H   -0.5907727228   -2.8485838536    0.7536886749
 H   -1.0510599599   -2.4174169360    3.1491707785
 H   -1.3315464925   -0.6986390563    2.8156082335
 H   -3.0487255757   -1.5052735498    1.4006911192