21

 C    0.0841182889    1.5431321847   -0.1568426648
 C   -0.0042635529    0.0366391004    0.0719419592
 C    0.7618521899   -0.4443773400    1.2958084861
 O    1.2457359677    0.3258571545    2.0952875452
 C    0.9040270698   -1.9594903342    1.4629891932
 C    2.1793458191   -2.4249704391    0.7328111576
 C    0.9376382125   -2.3233709008    2.9655748972
 C    1.0057086061   -3.7589432997    3.2041073142
 C    1.0531688148   -4.9476439124    3.3794218796
 H    1.1180380676    1.8513716802   -0.3344694684
 H   -0.5172668755    1.8402716369   -1.0203777888
 H   -0.2702247146    2.0890880225    0.7205618948
 H   -1.0487128614   -0.2802935588    0.2105799735
 H    0.3444975386   -0.5276107103   -0.8030421878
 H    0.0412503241   -2.4489306587    0.9956303991
 H    2.3029811027   -3.5044887032    0.8491532433
 H    2.1365516673   -2.1988671473   -0.3368144733
 H    3.0610409663   -1.9287353436    1.1510673032
 H    1.7911422276   -1.8154740236    3.4275108112
 H    0.0469292065   -1.9134862471    3.4569813146
 H    1.0982355248   -5.9941285303    3.5527767013