21

 C    0.0108302176    1.5401965229   -0.0378879320
 C   -0.0455277209    0.0114603183    0.0116812380
 O    0.6957872256   -0.4958141552    1.1218108749
 C   -1.4664479052   -0.5091102523   -0.0075471330
 C   -2.5787273017   -0.1628103504   -1.0257080044
 C   -3.2469717577   -1.1472836197   -0.0538851439
 C   -1.9464444847   -2.0067853343    0.1017687865
 C   -2.0295845029   -1.9702738030    1.6402427739
 C   -2.4954044069   -0.5668501395    1.1936830163
 H    1.0504494457    1.8775242213   -0.0118010165
 H   -0.4597104726    1.9272637753   -0.9467914237
 H   -0.5152128328    1.9753937388    0.8209852556
 H    0.4768817131   -0.3890694941   -0.8673742580
 H    0.3272197466   -0.0991703257    1.9190863883
 H   -2.9512139114    0.8672709412   -1.0207691067
 H   -2.4271547694   -0.5100670590   -2.0538156852
 H   -4.2675128791   -1.5329206003   -0.0520317803
 H   -1.6357222740   -2.8214694449   -0.5548184060
 H   -2.7988817786   -2.6046935195    2.0936791449
 H   -1.0885736768   -2.0458828224    2.1872701837
 H   -2.8309175937    0.2792353825    1.7978996174