22

 C   -0.1464734628    1.5831565802    0.0314436781
 C    0.0790273146    0.0707385369   -0.0270056205
 C    0.7415190516   -0.4928550348    1.2361350038
 O   -0.0204509737   -0.1884417934    2.4070149927
 C    1.0062516615   -1.9985643957    1.1262181143
 C    1.7207359537   -2.5691946199    2.3525381585
 C    1.6379424679   -4.0914881634    2.4221234796
 N    2.6695120908   -4.6926483574    3.0881823004
 O    0.7248851416   -4.7302209161    1.9339759713
 H    0.8060977721    2.1205958560    0.0979018796
 H   -0.6700714161    1.9411510464   -0.8600195767
 H   -0.7377452857    1.8504976489    0.9110468693
 H   -0.8797196221   -0.4471403604   -0.1776938544
 H    0.7001271116   -0.1860604145   -0.8942717974
 H    1.6932583834    0.0325190066    1.3977028267
 H   -0.8740803144   -0.6282955849    2.3156767318
 H    0.0567270041   -2.5336294568    1.0029804902
 H    1.5900097200   -2.2011941744    0.2203625437
 H    2.7664062161   -2.2409642040    2.3897820207
 H    1.2377644066   -2.1705967615    3.2538801552
 H    3.3593449385   -4.1602896764    3.5887431580
 H    2.5989411907   -5.6802862513    3.2724740448