13

 O   -0.0643845911    1.3427450214    0.0098606146
 C    1.2570566999    1.7078805179   -0.0006215209
 N    2.1218360821    0.7564399744   -0.0141186947
 C    1.3373497574   -0.4014041203   -0.0130147920
 C   -0.0125361771   -0.0213561953    0.0018692664
 C   -1.0293514320   -0.9540979973    0.0063746452
 C   -0.5893020485   -2.2774239375   -0.0050762683
 C    0.7829045882   -2.5712324156   -0.0196985061
 N    1.7604890286   -1.6599590072   -0.0239540046
 H    1.4421466440    2.7716111083    0.0034644918
 H   -2.0784857962   -0.6846721914    0.0178027127
 H   -1.3061278049   -3.0904103566   -0.0027581293
 H    1.1030574098   -3.6097745809   -0.0284521248