21

 C   -0.2112525314    1.5220606995   -0.0366900757
 C   -0.0125038355    0.0122483852   -0.0028515598
 C    1.1317604969   -0.5888969016   -0.8813840806
 C    2.1138803182   -0.2440078820    0.2756024673
 C    0.8854458755   -0.5916207751    1.1548916428
 C    0.7086341016   -2.1068960686    0.8838936879
 C    0.9177099983   -2.0999168316   -0.6704953753
 C    0.7239043994   -0.1152640162    2.5559522820
 O    1.5126925029    0.5831013314    3.1460100850
 H    0.7191190194    2.0799354249    0.0941636729
 H   -0.6450911889    1.8207541228   -0.9972993016
 H   -0.9020751786    1.8457903590    0.7489513370
 H   -0.9836257201   -0.4841914626   -0.1166053216
 H    1.2981818220   -0.2390418645   -1.9012974635
 H    3.0039729331   -0.8688086879    0.3894017069
 H    2.3950676810    0.8061422605    0.3312402842
 H    1.4588610417   -2.7046703397    1.4085939283
 H   -0.2803064989   -2.4701227838    1.1789746093
 H    0.0470435742   -2.4796517092   -1.2125036579
 H    1.7869731585   -2.6902082077   -0.9728465470
 H   -0.2245107693   -0.4416259728    3.0472894193