18

 O   -0.1812930096    1.3438249839   -0.0355054014
 N   -0.0332867839   -0.0522243116    0.0406756539
 C   -1.1597495830   -0.6447958259    0.0458744724
 C   -2.5522662320   -0.0483283146    0.0471653800
 C   -3.3975323694   -1.1051771927    0.7907236826
 C   -2.7201945858   -2.4400816262    0.4843218203
 O   -2.9911772620   -2.9106454610   -0.8586325001
 C   -1.5961290040   -2.8422794438   -1.2157635496
 C   -1.2370462940   -2.1471530256    0.1209136472
 H    0.7311490535    1.6466339363    0.0221431329
 H   -2.5649015582    0.9403192093    0.5078980505
 H   -2.9007007766    0.0713528874   -0.9859102399
 H   -3.3584592480   -0.9283404707    1.8721750585
 H   -4.4483296809   -1.1120883462    0.4895736129
 H   -2.9206263666   -3.2200879226    1.2267510256
 H   -1.1540760777   -3.8405312652   -1.3288514077
 H   -1.4258582631   -2.2662719178   -2.1323387662
 H   -0.4306057988   -2.5942629028    0.6997984382