18

 O   -0.0833317838    1.3871828043   -0.0354439669
 C    0.0398699465    0.0078275311   -0.0345883774
 C    0.8632500621   -0.7962433603   -1.0385951804
 C   -0.1463673845   -1.9776409694   -0.8257977897
 C    0.3613991445   -2.9598301350    0.2397352914
 C    0.5424643300   -2.0746183160    1.5051455047
 C   -0.2856783042   -0.8264129636    1.1986190914
 C   -1.0876854271   -0.9937932807   -0.0748254467
 H    0.6232007432    1.7543793887    0.5071296643
 H    0.7717635347   -0.3648780511   -2.0388252153
 H    1.9217754603   -0.9876581526   -0.8226619001
 H   -0.5186597309   -2.4440562706   -1.7376860124
 H   -0.3906104217   -3.7358006770    0.4220466853
 H    1.2862515473   -3.4622018480   -0.0618340255
 H    0.1792240319   -2.5771948477    2.4068558525
 H    1.5965556228   -1.8325917827    1.6817823125
 H   -0.7374047590   -0.2575565461    2.0043699114
 H   -2.1562215623   -0.8624282431   -0.1771396292