19

 C    0.1367596016    1.6188192286    0.2215423633
 C    0.0447769522    0.0969191098    0.0261411163
 C    0.8582135096   -0.4717188153   -1.1693726186
 C    1.1748490292    0.4454576807   -2.3492816081
 C    2.1195248711   -1.0522805779   -0.5227864871
 O    3.1420540231   -1.3975873779   -1.0618963954
 N    1.8603278733   -1.1493365911    0.8370033013
 C    0.6424825003   -0.6051453494    1.2423476300
 N    0.1028769128   -0.6191875151    2.3902149897
 H    1.1750736624    1.9493606004    0.3314644279
 H   -0.3013454635    2.1516136291   -0.6266654775
 H   -0.4040776804    1.8992309489    1.1281172208
 H   -1.0102888251   -0.1773063589   -0.0474059746
 H    0.3217872189   -1.3492642876   -1.5565001974
 H    1.7002230384    1.3503575632   -2.0332233223
 H    1.8209892032   -0.0837761251   -3.0538010694
 H    0.2618610177    0.7448122800   -2.8717375703
 H    2.5219795282   -1.5813250313    1.4658984296
 H    0.6725718669   -1.1151045911    3.0781304617