17

 O    0.5911026898    0.3174915723    0.9745379849
 C   -0.0302764702   -0.3358752380   -0.0944625067
 C   -1.5049241923    0.0012735822   -0.1652819266
 C   -2.3629157061   -0.5758299594   -0.9982269473
 C   -1.9838933286   -1.6379411873   -2.0074985932
 C   -0.8294286724   -1.3197165562   -2.9217216345
 C    0.2686205108   -0.5907373824   -2.6750388280
 C    0.6773106073    0.0330766641   -1.4070452938
 O    1.6193693789    0.8060180407   -1.3553409813
 H    1.3085059247    0.8316640935    0.5646011381
 H    0.0759765559   -1.4314165334    0.0174586608
 H   -1.8190279241    0.7664351083    0.5372938915
 H   -3.4111163141   -0.2945703958   -0.9678803700
 H   -1.7470978838   -2.5778207279   -1.4772318506
 H   -2.8514030653   -1.8802659979   -2.6282880361
 H   -0.9171752363   -1.7419782795   -3.9213605844
 H    0.9843806259   -0.4242805834   -3.4755211127