16

 C   -0.0329603340    1.4189967997   -0.0705349599
 N   -0.0606630520   -0.0223024472    0.0882993751
 C    0.6223590696   -0.6266290302    1.0977366167
 C    1.2431332010   -0.1062861018    2.1767193347
 C    1.7736527778   -1.1947146835    2.9825915907
 N    2.4188735791   -1.1213043831    4.0707789084
 O    1.4621589577   -2.3954056201    2.3531026547
 C    0.7309793039   -2.1316309773    1.1658450185
 H    0.9824267889    1.8056374734   -0.2378602641
 H   -0.6623832952    1.7002203901   -0.9169243223
 H   -0.4351938924    1.8982869416    0.8279654839
 H   -0.2033392011   -0.5634635496   -0.7490601777
 H    1.3623514000    0.9290125936    2.4514961482
 H    2.6653199833   -2.0553816225    4.3994639668
 H   -0.2554624809   -2.6123569514    1.2198200719
 H    1.2655044643   -2.5503418318    0.3007728442