18

 N    0.0173332388    1.1831340174    0.4180999105
 C    0.0382710721    0.0239482527   -0.0684763848
 O    1.1069156532   -0.6024760617   -0.6418551557
 C    0.7529078694   -1.9291910566   -1.0416302569
 C    1.4974054660   -3.0243737618   -0.2578587883
 C    0.4057340123   -4.0634946868    0.0607810750
 C   -0.8342669980   -3.2027556976    0.3666605797
 C   -0.7438388411   -2.0465179121   -0.6448809337
 O   -1.0554336577   -0.7733581788   -0.0798586312
 H    0.9331269977    1.6152651009    0.3246907102
 H    0.9140292216   -2.0082395439   -2.1200268226
 H    2.3470778610   -3.4364033722   -0.8066699687
 H    1.8815248872   -2.5805626316    0.6667523030
 H    0.2204209640   -4.6988442832   -0.8139830577
 H    0.6776764877   -4.7258579133    0.8861278012
 H   -1.7757577282   -3.7521644884    0.3003601802
 H   -0.7659054266   -2.7794548049    1.3743081639
 H   -1.3998949794   -2.1988514780   -1.5060296541