16

 C   -0.1210173932    1.5856762067    0.0624782967
 C    0.0197071034    0.0584663819   -0.0346552872
 C    0.8035534573   -0.4618358234   -1.2092605521
 C    1.8210913781   -1.2215281844   -0.7626379262
 N    1.8088766801   -1.2768723640    0.6489556191
 C    0.7856377442   -0.5136765379    1.1772825758
 O    0.5611790624   -0.3332701770    2.3512773048
 C    2.8133198817   -1.9164868698   -1.4910111130
 C    3.6720521473   -2.5163188560   -2.0844514470
 H    0.8567085092    2.0725038007    0.0020372965
 H   -0.7460635822    1.9716978627   -0.7475051768
 H   -0.5787513450    1.8489497067    1.0195840475
 H   -0.9865978206   -0.3843678036   -0.0131128472
 H    0.5833060193   -0.2664973711   -2.2473444445
 H    2.5051831297   -1.7389723818    1.2103885639
 H    4.4232316082   -3.0417015596   -2.6210971403