22

 C    0.5020230153   -0.7062934016    1.9457350846
 C    0.1715005742   -0.0149101783    0.6226591931
 O    0.9877144040   -0.5209878402   -0.4351217460
 C   -1.2813764964   -0.1771587315    0.0997595531
 C   -1.6384889007   -1.6408794033   -0.1536536691
 O   -2.7473038865   -2.1029784646   -0.0400155480
 N   -2.2532568486    0.6224933079    0.8297147273
 C   -3.2644861559    1.2376383683   -0.0201768236
 C   -2.8595048983    0.0289607099    2.0200228633
 H    1.5733361474   -0.6046271811    2.1590822656
 H   -0.0328278810   -0.2474044759    2.7803429054
 H    0.2655702141   -1.7748219287    1.9174787121
 H    0.3272381495    1.0669283677    0.7423173954
 H    1.8980630719   -0.5511143465   -0.1249845229
 H   -1.2139022328    0.2417402209   -0.9155585772
 H   -0.7837943972   -2.2646295395   -0.4924479904
 H   -3.9715659086    0.5123166192   -0.4560838828
 H   -3.8425079468    1.9563366776    0.5712629176
 H   -2.7852921523    1.7886917139   -0.8357857925
 H   -2.1078645011   -0.4853081524    2.6207469017
 H   -3.2823720969    0.8314507755    2.6355925601
 H   -3.6553015232   -0.6928630070    1.7907782932