17

 O   -0.2092640265   -0.0293469198   -0.1986971299
 C   -0.0366937603    1.1577529311   -0.1000192599
 C    1.3126792360    1.8411576056   -0.1329458463
 C    1.3868928527    2.8905249443   -1.2405891761
 C    0.5558817316    4.1863754481   -1.1069392519
 O    1.7230870939    5.0130617458   -1.2863523168
 C    2.6102330095    3.8669953759   -1.2721633626
 C    3.5109165289    3.8517310926   -0.1303578520
 C    4.2576577611    3.8328432538    0.8118003809
 H   -0.9030717980    1.8493364220    0.0256419538
 H    1.4720724711    2.3307713579    0.8375047590
 H    2.0862741897    1.0784000760   -0.2578642354
 H    1.2545101358    2.4158096471   -2.2156783242
 H   -0.1980313454    4.3686438695   -1.8800619111
 H    0.0997497851    4.3397102428   -0.1194427516
 H    3.1931221626    3.8175638534   -2.1999684247
 H    4.9238726624    3.8242259038    1.6393687989