17

 C   -0.0087128315    1.4497486414    0.0139785765
 N   -0.0226677241   -0.0095839862   -0.0188066935
 C   -0.1211974909   -0.6958783753   -1.1873158941
 N   -0.1404760551   -1.9866987467   -1.2938614940
 C   -0.0524256166   -2.6842447046   -0.1170646676
 C    0.0504448240   -2.1221287426    1.1196192766
 C    0.1449586556   -2.9069428921    2.3933610330
 C    0.0706370733   -0.6742162788    1.2291770944
 O    0.1571996557   -0.0252396162    2.2596788586
 H    0.9157974056    1.8026791135    0.4759243960
 H   -0.0870523847    1.8302622533   -1.0052160281
 H   -0.8429082562    1.8162191950    0.6160687471
 H   -0.1874242324   -0.0841555681   -2.0840316161
 H   -0.0701315535   -3.7666179114   -0.2220828741
 H    0.1203706872   -3.9817732118    2.1973977620
 H    1.0683085910   -2.6661045664    2.9309982411
 H   -0.6776813573   -2.6512900031    3.0697508620