18

 C    0.1446059926    1.5181044342    0.1145850945
 C    0.0544228506    0.0320291948    0.0022563581
 C   -0.0594519284   -0.7385214179   -1.0976106179
 C   -0.0678125290   -0.3775202435   -2.5468258136
 C   -0.0814278626   -2.1679680618   -0.6808126061
 O   -0.0567062442   -3.1399722724   -1.3912783324
 N   -0.1081476164   -2.2262665593    0.7679715532
 C    1.1757557656   -1.8236969989    1.3755596949
 C    0.0574352440   -0.8437225460    1.2129047365
 H    1.0616747437    1.8153870941    0.6376354862
 H    0.1301512338    2.0076191337   -0.8612295016
 H   -0.6921975384    1.9129405547    0.7041858455
 H    0.1665234350    0.6760025530   -2.7165456058
 H    0.6555965022   -0.9927958850   -3.0917298193
 H   -1.0468570262   -0.5870132816   -2.9927762212
 H    1.3791076667   -2.2594608455    2.3498447396
 H    2.0358993170   -1.7223122041    0.7182568213
 H   -0.5122017759   -0.5387132284    2.0873783279