14

 O    0.1378295870    1.4407673194    0.1642737399
 C   -0.0132801589    0.0445839482    0.0462389198
 C   -1.4334976403   -0.4263705698   -0.0891691488
 C   -1.5215765912   -1.2288360434   -1.1652874772
 N   -0.2709933156   -1.3211726422   -1.8337675774
 C    0.6456323145   -0.4779176947   -1.2503168742
 O    1.7350332157   -0.1605854600   -1.6682246989
 C   -2.6305062617   -1.9533159544   -1.6579149374
 C   -3.5590947173   -2.5735505160   -2.1072217409
 H    1.0207494768    1.6403683649   -0.1769273087
 H    0.4703276597   -0.4766776468    0.8940930653
 H   -2.2296050705   -0.2171956890    0.6073459705
 H   -0.1639875581   -1.6898607212   -2.7660375241
 H   -4.3878353501   -3.1164409749   -2.4910401981