14

 O    0.1774079453    1.4124096636   -0.2065870426
 C    0.0771321448    0.0190035124   -0.0179746482
 C    0.6486072210   -0.5372815363    1.2638813524
 C   -0.2676567498   -1.2811426176    1.8846106387
 N   -1.4919410096   -1.3007610953    1.1753762875
 C   -2.6421943429   -1.9587003808    1.5890320079
 O   -2.7002998599   -2.6190775540    2.5967531397
 C   -1.3910135783   -0.4925768891    0.0193202364
 O   -2.2872361552   -0.2546924585   -0.7428904761
 H   -0.2093390176    1.8495876891    0.5607480648
 H    0.5585889880   -0.4255235076   -0.8984675714
 H    1.6617736754   -0.3676475736    1.5962090017
 H   -0.2167670197   -1.8473560924    2.8024315655
 H   -3.4721200515   -1.8010301799    0.8837806438