15

 C   -0.0886948453    1.5447900975    0.0559013963
 C    0.0126584337    0.0181953971    0.0102679781
 C    0.7706086089   -0.5150111150   -1.2306178746
 C    2.2557277605   -0.1040926667   -1.2723889395
 C    0.6519847789   -1.9762917207   -1.2936231804
 N    0.5612752548   -3.1281025185   -1.3304976292
 H    0.8912199521    2.0213493423    0.1515771260
 H   -0.5673045245    1.9385940042   -0.8477268317
 H   -0.6905493274    1.8597063400    0.9131795118
 H    0.5104296082   -0.3559243231    0.9125223337
 H   -0.9931624050   -0.4147071917    0.0108157376
 H    0.2752363611   -0.1204848454   -2.1281597748
 H    2.7522332691   -0.5256545726   -2.1496408650
 H    2.3472333024    0.9833413907   -1.3183554820
 H    2.7800848127   -0.4594882981   -0.3804217363