17

 O   -0.0750544009    1.4439647870   -0.0484294233
 C   -0.0936196716    0.0375972280   -0.0240617267
 C   -0.4518871955   -0.7636586618    1.2280657973
 C   -1.1426639967    0.0187709715    2.3014781747
 C   -2.3057166802    0.5182578072    1.8743356377
 C   -2.6234407064    0.0857595930    0.4495117947
 O   -2.9266540793    1.1456889313   -0.4450014356
 C   -1.3864333834   -0.7307401748    0.0378602738
 O   -1.5630527747   -1.8685568374   -0.7435826435
 H   -0.1355893874    1.7559647514    0.8631975647
 H    0.6838208068   -0.3954749120   -0.6473724184
 H    0.1514115930   -1.6323338502    1.4637683042
 H   -0.7087935180    0.1722340983    3.2836080867
 H   -2.9764452672    1.1560183634    2.4383379785
 H   -3.5027474301   -0.5708617055    0.4361027391
 H   -2.1056664926    1.6499741810   -0.5397945914
 H   -1.8339301355   -1.5773672905   -1.6225386824