19

 C    0.1027769954    1.5360462922    0.3887613105
 C    1.5898326859    1.8497456726    0.2613886726
 O    2.1728605124    0.5560607116    0.2534049799
 C    1.2147466570   -0.3690655647   -0.2750718168
 C    1.6098071037   -0.9435049589   -1.6568194563
 C    2.0808391900   -2.3940731604   -1.4003305889
 C    1.6208160899   -2.6687782581    0.0114751759
 C    1.1496634900   -1.5836934182    0.6185928444
 O   -0.0160842882    0.3444561201   -0.3713060735
 H   -0.1814202828    1.3727582348    1.4391872580
 H   -0.5550439340    2.2931887631   -0.0456267633
 H    1.8021188323    2.3893480371   -0.6737726639
 H    2.0013670422    2.4153748695    1.1016944542
 H    0.7203962847   -0.9312667783   -2.2908796799
 H    2.3714288669   -0.3163161108   -2.1241784442
 H    1.6572766073   -3.1051692603   -2.1188056959
 H    3.1710245043   -2.4937616791   -1.4778189384
 H    1.6974852227   -3.6526135693    0.4624692461
 H    0.7856206004   -1.5149857430    1.6365445397