17

 C    0.0078779905    1.5840394740    0.0906434286
 C    0.0334019780    0.0815410386    0.0881645011
 C   -1.2510420429   -0.7972184970    0.1973813417
 C   -0.3341785874   -1.8781673635    0.7712059377
 C    0.7242960676   -0.8856817189    1.1399211397
 C    0.9832768603   -1.8581243599   -0.0336106910
 O    1.8719152206   -2.9008421687   -0.0251752147
 C    0.8896719527   -0.6818574572   -0.9590075766
 O    1.4543069778   -0.3394210271   -1.9601015072
 H    1.0212941736    1.9963482655    0.0637207295
 H   -0.5197744084    1.9531696889   -0.7952312425
 H   -0.5019411630    1.9755691223    0.9766612358
 H   -1.9422796660   -0.4122987294    0.9537589199
 H   -1.7947067352   -1.0057411539   -0.7316123529
 H   -0.5916790949   -2.7908890232    1.2953824103
 H    1.3517333322   -0.7217990557    2.0023850517
 H    1.4896412945   -3.6399698246   -0.5111288212