17

 C   -0.0441607258    1.6122110838   -0.0142732200
 C    0.0825589630    0.0785676054    0.0312679199
 C   -1.0672753088   -0.5953429163   -0.5346676950
 C   -2.0283848793   -1.1431142879   -1.0075637140
 C    1.3498692584   -0.7459502491   -0.2070584159
 C    2.6332803678   -0.1580828511    0.4573281021
 O    2.3216787512    1.0680711686    1.1300068082
 C    1.9953855901   -0.1718359895    1.7696942019
 C    0.6849243718   -0.7602817584    1.1609596055
 H    0.7588069745    2.0621853347   -0.5981260850
 H   -0.9985965414    1.8771452844   -0.4755618048
 H   -0.0111187880    2.0455787546    0.9853400208
 H   -2.8792544776   -1.6204700817   -1.4261544235
 H    1.3735012121   -1.5347041380   -0.9470254228
 H    3.6576726817   -0.3161720986    0.1431250090
 H    2.3825248681   -0.3436697075    2.7665352810
 H    0.1241907623   -1.5616270433    1.6231995524