15

 O    0.1473674025    1.6199658257   -0.0232484426
 C    0.1156296406    0.2005278303    0.0472037971
 C    0.6477098625   -0.4293620742   -1.1615883827
 C    1.1279761085   -0.9328803509   -2.1493932927
 C    1.6961027304   -1.5004410259   -3.3474225683
 O    1.6744661085   -2.6769800987   -3.6224627506
 C    0.8460855271   -0.3054631331    1.2885785982
 C    0.1418864664   -0.4121932485    2.5681887314
 O    0.4405258891   -1.5730388908    1.7848861274
 H    1.0194796370    1.8848736557   -0.3360117262
 H   -0.9407867490   -0.0730100286    0.1526286259
 H    2.1694288026   -0.7551290225   -4.0185047103
 H    1.9235576440   -0.1327250684    1.2876391806
 H    0.6990597810   -0.3193214207    3.4983291108
 H   -0.9116877112   -0.1428757994    2.6238734518