21

 C   -0.1493552015    1.5503748674   -0.0897129057
 C    0.0210301336    0.0381705214    0.0085116234
 O   -1.2564205888   -0.5696256155   -0.1102993635
 C    1.2192013706   -0.6777005221   -0.7112638646
 C    2.1472115423   -0.1154906258    0.4037490641
 C    0.8709122769   -0.6138075586    1.1482295938
 C    0.5828020179   -0.5802782899    2.6267827490
 O    1.5297055153   -1.3210474297    3.3862386045
 C    0.9652415322   -1.8882775611    0.2349960193
 H    0.7776864100    2.1108843885    0.0323144300
 H   -0.5584024219    1.8133686050   -1.0741563336
 H   -0.8636197872    1.8935756058    0.6650432380
 H   -1.6945490778   -0.1934967475   -0.8803170257
 H    1.4232134925   -0.7121567641   -1.7832906022
 H    3.0503849845   -0.6966198708    0.5987139289
 H    2.3678640589    0.9521847722    0.4138153666
 H    0.6431719696    0.4482357267    3.0007960908
 H   -0.4446979081   -0.9341866542    2.8062356219
 H    1.4886131634   -2.2337767605    3.0826466922
 H    0.0504915215   -2.4560843463    0.0806071564
 H    1.8307028959   -2.5330111109    0.4108509162