18

 C   -0.1634672859    1.4283329308    0.1609867149
 C    1.2364425757    0.9121054394   -0.0472340314
 C    0.0822813170   -0.0574471217    0.0661659655
 C   -0.2757182117   -0.9821448292    1.1819119721
 C   -0.5480720340   -2.1899943480    0.6368910716
 C   -2.0194089938   -2.3628515062    0.2115837150
 C   -1.4823029063   -1.7539300471   -1.1473069798
 C   -0.0984222103   -2.1690774283   -0.8474026283
 N   -0.2972219406   -0.7715440793   -1.1686768586
 H   -0.4311631096    1.8439434146    1.1265428633
 H   -0.6657673810    1.8783899130   -0.6880992059
 H    1.6765616401    1.0267873222   -1.0308991397
 H    1.9341096207    0.9573069042    0.7810770390
 H   -0.7708976938   -0.6071103585    2.0737369310
 H   -2.3591386209   -3.3846357628    0.0066833537
 H   -2.7715212059   -1.8236751568    0.7928813616
 H   -2.0099139679   -1.8056059779   -2.0936642862
 H    0.5968945880   -2.8177259683   -1.3673211879