17

 O    0.0463963353    1.4459350559    0.0241182808
 C    0.0322951397    0.0528131171    0.0235168664
 C   -0.5400907078   -0.7218476280    1.2367940052
 C   -1.0355078286   -0.0054361930    2.4282165334
 O   -1.0325661486   -0.4614945170    3.5483673851
 C   -1.2898952729   -0.5810975380   -0.0909545146
 C   -2.6394819815    0.0625652009   -0.3854427591
 C   -2.8472995235   -1.1875845057   -1.2700679499
 O   -1.5392133923   -1.7087478816   -0.9085566911
 H    0.7838324727    1.7458186357    0.5672452458
 H    0.8636870067   -0.4410271734   -0.4789849809
 H   -0.1038770156   -1.6971043298    1.4280044451
 H   -1.4274939221    1.0151282393    2.2274991808
 H   -3.3211809778    0.1521589333    0.4606092828
 H   -2.5785206109    1.0158082793   -0.9110543977
 H   -3.6471088859   -1.8664719708   -0.9583892810
 H   -2.9191470069   -1.0042585043   -2.3467807312