21

 C    0.8204985306   -0.5699165202   -1.0597563622
 O   -0.0681491700   -0.0310659212   -0.0978880927
 C   -1.4256699977   -0.5167504020   -0.1241182613
 C   -2.0809702089   -0.0565314166   -1.4397325073
 O   -1.9369922635    1.3373571709   -1.6226962178
 C   -1.5521062035   -2.0456840161    0.1199051506
 C   -2.6549060930   -2.2197577817    1.1964219432
 C   -2.7898389897   -0.8354152935    1.7790645311
 C   -2.1252354856    0.0775384789    1.0777984390
 H    1.8147224680   -0.1921502917   -0.8078385664
 H    0.8484373625   -1.6671022920   -1.0322214513
 H    0.5791200782   -0.2548791154   -2.0842640001
 H   -1.6517644525   -0.6193675591   -2.2856639355
 H   -3.1524282205   -0.2810047965   -1.4120573559
 H   -1.0560782404    1.5535318863   -1.2912858957
 H   -1.7632238851   -2.6061542266   -0.7953806827
 H   -0.5971738126   -2.4049854135    0.5135199254
 H   -3.6040164972   -2.5515360400    0.7543078838
 H   -2.3915528108   -2.9732023847    1.9475572302
 H   -3.3966123225   -0.6283086106    2.6540324729
 H   -2.0937998959    1.1420959452    1.2709040030