15

 C   -0.0009247015    1.5226170599   -0.0639246694
 C    0.0012485542    0.0142146088    0.0506680000
 O    0.0044405357   -0.5610467535    1.1228388819
 C   -0.0007187555   -0.7481782225   -1.2117743795
 C    0.0005228371   -2.1093148814   -1.4239318267
 C    0.0028138262   -3.2665752418   -0.4949443501
 O   -0.0012143674   -2.3299687388   -2.7254720895
 N   -0.0042921581   -1.0094752209   -3.3717254053
 N   -0.0036598828   -0.1609091658   -2.4609376382
 H    0.8726320710    1.8647543029   -0.6281595613
 H   -0.8811316766    1.8623458888   -0.6193124946
 H    0.0032800718    1.9557651688    0.9363176805
 H   -0.8870904878   -3.8832609496   -0.6572168532
 H    0.8778142412   -3.8979696099   -0.6790973199
 H    0.0170958124   -2.9012512950    0.5308361253