17

 C    0.1790310946    1.0079619651   -0.3428915668
 O   -0.1837805538    0.1017382922    0.6757744112
 C   -1.2940344703   -0.6623161581    0.3628540567
 C   -1.5025454153   -1.6548417524   -0.7629343618
 C   -0.3466938987   -2.6516976551   -1.0382485586
 N    0.8353117769   -2.2842161875   -0.2210017714
 C   -0.2975669965   -3.0441877982    0.3790759290
 C   -1.4766864781   -2.0936755808    0.7296557430
 H    1.0134953936    1.6000263236    0.0401912467
 H    0.5003968953    0.4785704948   -1.2496192272
 H   -0.6481412415    1.6875035273   -0.6027879555
 H   -2.2296741886   -0.1077119667    0.5080596540
 H   -2.3616124340   -1.5801612142   -1.4190210636
 H   -0.2573079963   -3.2492215732   -1.9361318013
 H    1.5539848620   -2.9791608476   -0.4306881107
 H   -0.1441880426   -4.0147021051    0.8316471320
 H   -2.3041802668   -2.4308025539    1.3425592743