18

 O    0.5916724814    0.0594123766    1.2155651978
 C   -0.1672082917    0.3746956748    0.0575132227
 C   -1.5538219007   -0.2236363013    0.2172676041
 C   -1.6993680946   -1.5255065786    0.9098721576
 N   -2.1500487925   -0.2722556297    1.5568067331
 C   -2.5060147771    0.1949338183   -0.8999487548
 O   -1.9758456747   -0.1293244389   -2.1588305441
 C   -3.8915598226   -0.4077838432   -0.7424735256
 O   -4.4032798554   -1.0220535387   -1.6493339688
 H    1.4879944630    0.3814151051    1.0895180031
 H   -0.2607570554    1.4664878467   -0.0660288490
 H    0.2903057764   -0.0264918070   -0.8558382944
 H   -2.4923423687   -2.2135816756    0.6275679711
 H   -0.7962876588   -1.9916573657    1.2886908888
 H   -1.4442261704    0.0138184191    2.2323016185
 H   -2.6487270749    1.2907647434   -0.8169079552
 H   -2.6680623047   -0.6484313560   -2.6007106297
 H   -4.3947903385   -0.2412901692    0.2249814347