15

 C   -0.0067629375    1.5115140709   -0.1326580663
 C   -0.0102969150    0.0229637240    0.1367220942
 N   -0.0417618611   -0.5562814741    1.2762173270
 N    0.0254602336   -0.7399567145   -1.0120618549
 C    0.0305891871   -2.1202033562   -1.0526249910
 C    0.0056031867   -3.0860880034   -0.0928525022
 O    0.0272888791   -4.2716107728   -0.7232787018
 N    0.0663409511   -4.0154232371   -2.0987439979
 N    0.0676154620   -2.7604663696   -2.2679705661
 H    0.8934072237    1.8071389412   -0.6827150412
 H   -0.8740704469    1.8018139271   -0.7357863546
 H   -0.0365909753    2.0680705353    0.8047635265
 H   -0.0655878012    0.1319936982    2.0243081965
 H    0.0499204408   -0.2848353575   -1.9095265478
 H   -0.0254854571   -3.0617285914    0.9788005197