15

 O   -0.6549767030    0.7830791632    0.3813719821
 C    0.0278610385    1.2054591118   -0.5125867248
 C    1.3593753130    1.9071797969   -0.2909333876
 C    1.5183342035    3.1390966141   -1.2091889951
 N    0.4910823912    4.1466607004   -0.9878475042
 C   -0.5115893555    4.3435605458   -1.8956114426
 O   -0.6544368117    3.6912163387   -2.9059414372
 C    2.8550716494    3.7297075184   -1.0577792074
 N    3.9043987405    4.1887378756   -0.9072512653
 H   -0.2702314528    1.0942206793   -1.5778306813
 H    1.4516858938    2.1768109048    0.7643439780
 H    2.1600673897    1.1929542699   -0.5262788238
 H    1.3912538509    2.8278481160   -2.2527452218
 H    0.5490865049    4.7375178367   -0.1727883762
 H   -1.1861785527    5.1655928083   -1.5961749328