19

 C   -0.1844012126    1.4906029540   -0.0403252397
 N    0.0796283024    0.0594061068    0.0702743074
 C    1.3783214364   -0.5204765444   -0.2861345590
 C    2.5500556960    0.3981222696   -0.3243692321
 N    3.3190187917    0.5759389632   -1.3099804876
 O    2.6669376356    1.0413819162    0.8840543727
 C    1.8241678434    0.4266769756    1.8719493307
 C    0.8847623916   -0.5174824631    1.1314740835
 C    0.3282539349   -1.7080650736    1.8705821270
 H    0.6438393078    2.1487099895    0.2535959138
 H   -0.4433661122    1.7111669025   -1.0795890239
 H   -1.0543794626    1.7262963786    0.5804856884
 H    1.3727217933   -1.3728325543   -0.9557559374
 H    4.0648716218    1.2314062377   -1.0686512907
 H    2.4498577222   -0.1267603567    2.5821059643
 H    1.3034698487    1.2224829041    2.4156665827
 H   -0.2901092074   -1.3878038268    2.7172292788
 H   -0.3007480989   -2.3005777190    1.2030915096
 H    1.1302153477   -2.3436512400    2.2604731315