16

 C    0.0858730292    1.4748602383    0.0651648353
 C   -0.0669988364   -0.0568555778   -0.0107005652
 C    0.7238198743   -0.6653219205   -1.2157171653
 N    2.0075310085   -0.9412312129   -0.5985510698
 C    1.8762496863   -1.1433874571    0.7700279251
 O    2.7131782527   -1.5645568460    1.5300716637
 N    0.5788034108   -0.7498039688    1.0982573428
 C   -1.4960827587   -0.4075155524   -0.0921364682
 N   -2.6227550369   -0.6527030373   -0.1603601610
 H    1.1481718452    1.7312926057    0.0481396660
 H   -0.4134003357    1.9570276378   -0.7797979601
 H   -0.3576115026    1.8586526350    0.9879399323
 H    0.2229785761   -1.5697132627   -1.5830249043
 H    0.8013700313    0.0535948931   -2.0351772691
 H    2.7019175789   -1.4934274728   -1.0765402873
 H    0.4069657470   -0.4611658616    2.0493328950