21

 C   -0.0192073534    1.5726083273   -0.0089106226
 C   -0.0017670739    0.0415955059   -0.0106369270
 N    0.6831678069   -0.5197254292   -1.1632586749
 C    0.0774544988   -0.8816143499   -2.3509595029
 C    1.0469520727   -1.2189714130   -3.2643672365
 C    0.8236887191   -1.6854923125   -4.6711466746
 C    2.3018391169   -1.0633695962   -2.5993561212
 C    2.0461705239   -0.6320361598   -1.3162338311
 N    2.9028882969   -0.2515351016   -0.2574306705
 H    1.0012644401    1.9608410808    0.0325214856
 H   -0.5017766159    1.9547014642   -0.9132405532
 H   -0.5696839916    1.9454641642    0.8611130318
 H    0.4813161756   -0.3246950046    0.8997953265
 H   -1.0218698045   -0.3550308409   -0.0128033924
 H   -0.9983825712   -0.8816412470   -2.4368506928
 H    1.3054187431   -1.0237612475   -5.4013293689
 H    1.2282947635   -2.6911315500   -4.8392885313
 H   -0.2436477488   -1.7172031304   -4.9105755617
 H    3.2803918076   -1.2674508836   -3.0098687289
 H    3.8380727622   -0.0887149201   -0.6102476208
 H    2.9718921519   -0.9687361762    0.4601788074