13

 O   -0.5591333978    0.9170283508    0.9796927859
 C   -0.0151427981    1.1010790458   -0.0754274822
 C    1.3574407691    1.7475374294   -0.2354927866
 C    1.3362440273    2.8630474418   -1.2357038517
 C    1.8382374462    2.9021500821   -2.4997400553
 O    1.5892144085    4.0836393839   -3.0785514066
 N    0.8887900596    4.8858077366   -2.1826765824
 C    0.7447932369    4.1564339400   -1.1062716853
 H   -0.4902934459    0.8051123228   -1.0381041679
 H    1.6919319546    2.0822851518    0.7504736399
 H    2.0463850011    0.9632642860   -0.5756705237
 H    2.3862961696    2.1898088496   -3.0976347783
 H    0.2230148188    4.5724958095   -0.2551292458