14

 O    0.3275697065    0.0699826585    0.4147501214
 C    0.4050947687    1.2493415136    0.5463506552
 O    0.8021504160    2.0642848169   -0.4678123797
 C    0.8660793541    3.4580135642   -0.2238070853
 C    2.3466812736    3.9176146546   -0.1194355404
 C    2.4287680090    5.3762648925   -0.0844377421
 C    2.4506605382    6.5757009536   -0.0696599963
 C    2.9855614687    3.3101930145    1.0585762327
 N    3.4550738817    2.8135595907    1.9893751545
 H    0.1624145611    1.8066453567    1.4700947454
 H    0.4054337216    3.9669076856   -1.0728026142
 H    0.3271473272    3.7325021859    0.6897017659
 H    2.8647513069    3.5375403888   -1.0095733495
 H    2.4887423866    7.6377117341   -0.0533130976