22

 C   -0.5594585035    1.7359810372   -0.8313702968
 C   -0.0629548744    0.5296194853   -0.0202004450
 N   -1.1614105487   -0.2130273403    0.6228293020
 C    0.7853415101   -0.5177837521   -0.8053366687
 C    0.2217004704   -0.7647356055   -2.1591520403
 N   -0.1764731699   -0.9497654388   -3.2295173308
 N    2.2243733751   -0.2640897801   -0.8274448248
 C    2.9774787822   -1.4622832627   -1.1883197033
 C    2.6558626267    0.8914405079   -1.6065489544
 H    0.2481159134    2.3204415387   -1.2787584130
 H   -1.2227554393    1.4124333860   -1.6401568077
 H   -1.1270174791    2.4043975774   -0.1757601049
 H    0.6028005313    0.8710713577    0.7798533553
 H   -1.6810909072    0.4193307218    1.2257135768
 H   -1.8258266258   -0.5110457436   -0.0899568434
 H    0.6482640060   -1.4463310515   -0.2423977177
 H    2.8166398219   -1.7857478369   -2.2314655702
 H    4.0451465879   -1.2667647510   -1.0541409968
 H    2.6975300676   -2.2878326596   -0.5269135859
 H    2.2472008435    1.8125862441   -1.1876388580
 H    3.7454401856    0.9612896423   -1.5475067019
 H    2.3749927663    0.8334149737   -2.6723886106