19

 C    0.0059385817    1.3762731813    0.6458215848
 C    0.0003282023   -0.0151172080    0.0356823673
 C    0.9782186270   -0.2974317700   -1.0787137628
 C    1.1918157447   -0.9083141850    0.2853619934
 C   -1.3748032107   -0.6532859744    0.0092149059
 C   -2.3149700584   -0.3671770855   -1.1202260199
 N   -1.7595467680   -1.7098599115   -0.9448430288
 C   -1.9424561412   -0.8479532759    1.3336628609
 N   -2.3743183938   -0.9667210446    2.3992977352
 H    1.0226023868    1.7778197198    0.6807654652
 H   -0.6107507811    2.0675828706    0.0607853605
 H   -0.3838539015    1.3594668368    1.6686259962
 H    0.7075011394   -0.9574380606   -1.8967892979
 H    1.6182157674    0.5221947363   -1.3869268761
 H    1.9938973537   -0.5272072402    0.9075214028
 H    1.0145709071   -1.9734570628    0.3888719158
 H   -3.3805344129   -0.2809946028   -0.9334109761
 H   -1.9247546285    0.2643560499   -1.9141300036
 H   -1.0037972539   -1.8752387634   -1.6040636127