15

 O   -0.7337370072    1.4418601738   -0.3797449809
 C    0.2903516329    0.9809728495    0.0567081682
 C    1.5688888247    1.7965900687    0.2599267040
 O    2.5736465533    1.2695340412    0.7069194653
 N    1.4222685830    3.0883895053   -0.1046286732
 C    2.4712094994    4.0551057665   -0.0113984635
 C    2.6033938358    5.1359710193   -1.0510502609
 C    2.1596543095    5.4819456091    0.3542424152
 H    0.4075549315   -0.0791672566    0.3548522182
 H    0.5100911895    3.3469343754   -0.4564525367
 H    3.3703302871    3.6003961909    0.3844723593
 H    3.6002760768    5.4161950260   -1.3720950875
 H    1.8551445947    5.1720501175   -1.8359856236
 H    1.1176182571    5.7470854997    0.4997160599
 H    2.8480308320    6.0027025736    1.0102300662