19

 C   -0.1185668450    1.4778995842   -0.0367464130
 C   -0.0299387610    0.0266548512   -0.0041450331
 C    0.0533372134   -1.1782482683    0.0220000275
 C    0.0897837702   -2.5896156938    0.0583876716
 C    1.1589993076   -3.3976556274   -0.0196877644
 C    2.5949204806   -3.0246429026   -0.1656899812
 C    0.6967352047   -4.8265733982    0.0642468335
 O   -0.7175929976   -4.7791776908    0.1963281085
 C   -1.1627950516   -3.4288446056    0.2002448396
 H    0.4491059699    1.9309335458    0.7840947327
 H    0.2789600924    1.8810400124   -0.9752186236
 H   -1.1575365074    1.8132563736    0.0542219727
 H    3.1907896281   -3.4076844740    0.6727110787
 H    3.0256468333   -3.4571746055   -1.0778783890
 H    2.7160622565   -1.9399467326   -0.2077826577
 H    0.9736216789   -5.4027349141   -0.8349430937
 H    1.1398015974   -5.3530187652    0.9266384356
 H   -1.6997254521   -3.2095055202    1.1356526355
 H   -1.8662341080   -3.2592859091   -0.6291005404