16

 C   -0.0376477549    1.5006510578   -0.0023237320
 C    0.0070196297    0.0093221517    0.0122677053
 C   -0.0599587274   -1.0045304053   -1.1248601736
 C    0.8183073924   -1.9899823568   -0.3019863823
 C    0.8910109111   -0.9926589641    0.8281781969
 C   -0.2562600115   -2.0151446255    0.7973722816
 C   -0.5813170858   -3.0340356868    1.7221476354
 N   -0.8587707335   -3.8667080995    2.4790858485
 C   -1.1191698973   -1.0147543842   -0.0295236251
 H    0.9284414948    1.9273623079   -0.2950013720
 H   -0.7882051020    1.8539633695   -0.7175415973
 H   -0.3002999009    1.9032095644    0.9825574923
 H   -0.1735078962   -0.8484793737   -2.1885712921
 H    1.4985138844   -2.7848463108   -0.5746896850
 H    1.6367727734   -0.8645283838    1.6011085671
 H   -2.1895056162   -0.8755942110   -0.0899085475