19

 O   -0.0296315638    1.3392817251   -0.2765054368
 C   -0.0127547801   -0.0498983483   -0.0806573654
 C   -0.4378820834   -0.6462329535    1.2460276461
 C   -0.8839541936    0.2457514862    2.3983473579
 O   -2.2806186732    0.4788005007    2.4228141567
 C   -2.7262984467    1.0769995238    1.2198090869
 C   -2.6260484730    0.1124622890    0.0190282020
 O   -2.8096078800    0.8145175929   -1.2016572178
 C   -1.3482437188   -0.7171788066    0.0268151994
 H    0.7437420051    1.7269556278    0.1469123990
 H    0.7685041187   -0.5679734258   -0.6351384595
 H    0.0655634773   -1.5632900351    1.5352055822
 H   -0.6448203041   -0.2366990998    3.3491303854
 H   -0.3511922283    1.2118636147    2.3698751780
 H   -3.7706598192    1.3592788422    1.3748227515
 H   -2.1514099288    1.9892436246    1.0021722617
 H   -3.4681454135   -0.5846746403    0.0801285097
 H   -2.0302054956    1.3732971183   -1.3118891625
 H   -1.4378381391   -1.6768911860   -0.4719510946