20

 C   -0.1143132568    1.4050321621   -0.0286866283
 O   -0.0713801767    0.0092345157    0.1663824813
 C   -1.3207013020   -0.6528074564    0.0384407803
 C   -1.7832765412   -0.7729060382   -1.4130077598
 C   -1.0969286759   -2.0185253933    0.6947733686
 C   -0.7728161580   -1.9528836025    2.2097589447
 N   -1.9153337427   -2.6053190693    2.8764638646
 C   -2.6717154695   -3.0041458473    1.9447380063
 O   -2.3339105729   -2.7796524461    0.6486261879
 H    0.8795937997    1.7914987253    0.2097431978
 H   -0.3547187626    1.6786393936   -1.0655579938
 H   -0.8501731070    1.8841145882    0.6354475699
 H   -2.0858409500   -0.1153903219    0.6259659004
 H   -2.6983130087   -1.3680306316   -1.4636161960
 H   -1.9911154118    0.2072733600   -1.8508002348
 H   -1.0116355722   -1.2634289131   -2.0153345985
 H   -0.3467522869   -2.5723256718    0.1223535620
 H    0.1520345411   -2.4786412363    2.4654776049
 H   -0.6649917842   -0.9212016107    2.5569532325
 H   -3.6075696218   -3.5367437262    2.0735653899