21

 C    0.0426651213    1.4417985341   -0.0238242410
 C   -0.1308921146   -0.0443438987    0.0033426530
 C   -0.2489880372   -0.8908708097   -1.0256815978
 C    0.2651757074   -1.1123084907   -2.4340709173
 C    0.8641019043   -2.4514375890   -1.8631336028
 C   -0.1322288488   -2.3438244241   -0.6447292346
 C    0.1792528046   -2.3151630662    0.8412335600
 C    1.3682957418   -1.5477342406    1.3563816256
 C    0.0252439848   -0.8463600110    1.2687281719
 H    0.9852783951    1.7432882059    0.4509967390
 H    0.0317591195    1.8281284222   -1.0469026851
 H   -0.7597739377    1.9462051544    0.5301107436
 H   -0.5241691141   -1.3113629512   -3.1672021147
 H    0.9565634084   -0.3757172997   -2.8510751093
 H    0.7728752287   -3.3392253587   -2.4936012480
 H    1.9044413939   -2.3259654027   -1.5550570496
 H   -1.0312425603   -2.9374801349   -0.8518255674
 H   -0.2117728295   -3.1009076790    1.4769873460
 H    1.7269868189   -1.8257789780    2.3423493102
 H    2.1486982815   -1.2390922844    0.6676172574
 H   -0.4740005978   -0.5591514179    2.1894116709