23

 C    0.0011126072    1.4800537955   -0.1515477857
 C   -0.1139071364   -0.0304189753   -0.1449136544
 C   -0.3698332564   -0.7908365475    1.1346419735
 C   -1.4476618825   -0.6950976896    0.0829558532
 C    1.4339148952    2.0087235253    0.0425936961
 C    1.5401890221    3.5534453678   -0.0930190751
 C    2.6079477071    4.0025894227    0.9359779567
 C    2.6673661610    2.8324677667    1.8897168662
 C    2.0425195019    1.7599170529    1.4076299781
 H   -0.3827070186    1.8658147005   -1.1064992929
 H   -0.6457411159    1.8996145623    0.6311444834
 H    0.5375626603   -0.5271553743   -0.8609983101
 H    0.1242247351   -1.7452235915    1.2817085225
 H   -0.5028543404   -0.2163455857    2.0456805684
 H   -2.3008913325   -0.0571591993    0.2908385216
 H   -1.6893045104   -1.5832916465   -0.4904524617
 H    2.0654964699    1.5233778601   -0.7194301388
 H    1.7698970968    3.8713231012   -1.1135642091
 H    0.5733683118    3.9972242008    0.1716952471
 H    3.5879564662    4.1655790018    0.4646356848
 H    2.3473016409    4.9466213483    1.4281969890
 H    3.2015160462    2.8741320186    2.8331677285
 H    1.9912331414    0.7934180752    1.8954401284