17

 O   -0.0388146927    0.0607336531    0.7599299748
 C    0.0090623412    1.1068059737    0.1386220047
 N    1.1452324513    1.6146905225   -0.4226856460
 C    2.4399011315    0.9652701323   -0.2938176240
 C    3.5126858293    1.9404321046    0.1267420381
 C    4.9197019481    1.7223691177   -0.2799993457
 N    4.1439797500    2.8299997105   -0.8684779266
 C   -1.1645446710    1.9451665134   -0.0769240329
 C   -2.1501544758    2.6138661661   -0.2403446563
 H    1.0860639293    2.4990761458   -0.9026203336
 H    2.3118088962    0.1710356670    0.4464840470
 H    2.7282180291    0.4867157002   -1.2419495268
 H    3.3204490754    2.4339979228    1.0771071874
 H    5.7278160197    2.0256956497    0.3784680491
 H    5.1420144584    0.8568874891   -0.8993474361
 H    3.8464903034    2.5655091867   -1.8061665382
 H   -3.0292742733    3.1955502049   -0.3760864048