22

 C    0.7474373077    0.6876281510   -0.6391904092
 C    0.1188038264   -0.7091460696   -0.5186443918
 C   -1.2976919535   -0.7125558283    0.0365609554
 C   -2.3492798989   -0.0436142050   -0.8507690757
 O   -2.3184062717    1.3668641589   -0.7338969668
 C   -1.8364512414   -1.7699781246    0.9259305913
 C   -0.8079493949   -2.3485898016    1.8952641611
 C   -0.5471312311   -0.8900646260    2.3452112218
 N   -1.6271472328   -0.3487559286    1.4430225900
 H    1.7428665515    0.6209884026   -1.0891216716
 H    0.1286802470    1.3505986667   -1.2463105680
 H    0.8553313244    1.1570768358    0.3443435114
 H    0.0765325619   -1.1766086491   -1.5108383883
 H    0.7725249535   -1.3517509537    0.0778840391
 H   -2.1655707817   -0.2790344814   -1.9042639026
 H   -3.3456825310   -0.4327442656   -0.5904232147
 H   -2.3318275413    1.5323523995    0.2184109747
 H   -2.8339657278   -2.1766867978    0.7820038521
 H   -1.2680566053   -2.9519467199    2.6796546725
 H    0.0203270895   -2.9156216141    1.4609620677
 H   -0.8187883708   -0.6981844485    3.3848587461
 H    0.4457978905   -0.4713440605    2.1594259955