19

 C    0.3285188642    1.3926890308   -0.0171960077
 O    1.1662947567    0.2667132573   -0.2531810281
 C   -0.2265113637    0.0265650174    0.0342842571
 C   -0.5449744550   -0.6680542011    1.2942555348
 C   -1.4799372018   -1.6166148491    1.4423670308
 C   -1.4873547729   -2.1905191318    2.8155353757
 C   -0.2078163266   -2.9095018761    3.2078938407
 C   -0.3778865367   -1.4545277800    3.5533953481
 C    0.1931924398   -0.4071826967    2.5977154626
 H    0.5202312357    1.9350827294    0.9071178879
 H    0.1211217860    2.0174363375   -0.8856607448
 H   -0.7985642203   -0.3063482008   -0.8322219959
 H   -2.1305738696   -1.9714444113    0.6499818673
 H   -2.4199846094   -2.4778908284    3.2882049061
 H   -0.2639376394   -3.6169314088    4.0290331587
 H    0.4773597896   -3.1887303428    2.4136452374
 H   -0.4876046337   -1.1948724634    4.5994938467
 H    1.2782309212   -0.4907057582    2.4673243946
 H    0.0001866459    0.6097567762    2.9656993579