16

 O    0.0655276756    1.3774218151    0.1264692827
 C   -0.0001152280   -0.0196405269    0.0176631071
 C   -1.3688396781   -0.6248925692   -0.4016491208
 C   -1.4895605243   -0.0301254130   -1.8181105042
 O   -0.1126544458    0.0250009505   -2.2795084779
 C    0.6437753245   -0.6046814524   -1.2474748229
 O    0.3651894065   -1.9822238136   -1.1809197740
 C   -0.9459869837   -2.0889953201   -0.5677242421
 H    0.1037786408    1.7265039863   -0.7728708916
 H    0.3909286971   -0.4528919113    0.9408190045
 H   -2.2163163796   -0.4445574601    0.2577752903
 H   -2.0774850582   -0.6588967699   -2.4951817305
 H   -1.9101776811    0.9808628179   -1.8192736229
 H    1.7031661723   -0.4492755453   -1.4434695291
 H   -0.8611531414   -2.6179204522    0.3898785852
 H   -1.6057068266   -2.6614559558   -1.2288955138