22

 C    0.1954044596    1.0668291889    0.5707482192
 C   -0.1142377650   -0.4165557668    0.3452592983
 C   -1.5646937560   -0.7136466120   -0.0840540177
 C   -1.9775390420   -0.0421651006   -1.4142869159
 C   -1.2425525390   -0.5316519472   -2.6683174919
 C   -1.7996306214   -2.2432929087   -0.1069994330
 C   -3.2363434205   -2.6009142754   -0.3991805884
 O   -3.6120155736   -3.2623000819   -1.3337494878
 H    1.2097543720    1.1951908444    0.9610826568
 H    0.1259374853    1.6477171418   -0.3538072235
 H   -0.4970877583    1.5106487541    1.2949744963
 H    0.5806237161   -0.8288924152   -0.3970469517
 H    0.0846221296   -0.9652354875    1.2746998394
 H   -2.2222853316   -0.2970134692    0.6940507071
 H   -3.0546675888   -0.1929216515   -1.5599639336
 H   -1.8453579934    1.0407732822   -1.3139540256
 H   -0.1580186252   -0.4054341848   -2.5867730629
 H   -1.4461034364   -1.5877309937   -2.8682674253
 H   -1.5714675010    0.0344319324   -3.5450981121
 H   -1.1584236047   -2.7410259088   -0.8398933935
 H   -1.5548496340   -2.6478928818    0.8854446636
 H   -3.9686180417   -2.1877950987    0.3359452222