25

 C    0.0334542649    1.6470191512    0.6160391100
 C   -0.1212496192    0.1503716881    0.4646224435
 C    0.8718511727   -0.6477167854   -0.3512909367
 C    0.8199918665   -0.8148071840    1.1395753942
 C    1.8902151726   -0.4621926520    2.1808961724
 C    1.2332342900   -1.4909245953    3.1537520035
 C    0.4158280465   -0.8438633534    4.2676693789
 C    0.4184686065   -2.0677656079    1.9408090299
 C   -1.0507224847   -2.4315711155    2.1034892980
 H    1.0884687869    1.9351142239    0.6653610969
 H   -0.4125945139    2.1766025988   -0.2332457524
 H   -0.4523035614    2.0137028463    1.5280699998
 H   -1.1540336224   -0.1843509141    0.3925262825
 H    0.5015793681   -1.4565299447   -0.9749902349
 H    1.7212507241   -0.1165881045   -0.7729842148
 H    2.8998104548   -0.7489130313    1.8697154618
 H    1.9195441904    0.5735129570    2.5340039967
 H    1.9330645948   -2.2095036560    3.5911593368
 H   -0.2704058053   -0.0846803597    3.8761689546
 H   -0.1801316305   -1.5812139421    4.8161744552
 H    1.0765265508   -0.3478108164    4.9872399768
 H    0.9540768164   -2.9374416657    1.5390330057
 H   -1.6377542830   -1.6017181280    2.5082049820
 H   -1.4938709051   -2.7113004844    1.1406334231
 H   -1.1717447903   -3.2875174048    2.7767877165