20

 O   -0.2109662114    1.3785259059    0.1306795085
 N    0.0078045745   -0.0148777687    0.1227535385
 C   -1.0787785159   -0.6400996103   -0.0524185775
 C   -2.5206870651   -0.2667595045   -0.3254727710
 C   -2.7663389169   -1.7628203732   -0.7263965871
 C   -1.3357713664   -2.1250790090   -0.1884755216
 C   -3.9412552334   -2.4691417259   -0.1104858962
 C   -5.2790577683   -2.4879706636   -0.8083941361
 C   -4.4636851519   -3.7534278581   -0.7064945434
 H    0.6813836456    1.7205421140    0.2496843124
 H   -3.0624217504    0.0326734315    0.5789544216
 H   -2.6822665255    0.4985917661   -1.0885191381
 H   -2.8026161386   -1.8660731073   -1.8155196424
 H   -0.6725331936   -2.6816266842   -0.8550727825
 H   -1.3701874789   -2.6428492640    0.7768271602
 H   -3.9760046291   -2.4041710537    0.9754905736
 H   -6.1770102472   -2.4027572695   -0.2065932140
 H   -5.3498349619   -2.0080232066   -1.7791520975
 H   -3.9869615646   -4.1224424307   -1.6088996883
 H   -4.8039089608   -4.5340150780   -0.0352047490