15

 C    0.0058573309    1.4261618159   -0.0081305478
 N   -0.0122638090   -0.0181431074    0.0420436481
 N    0.0403565303   -0.7564485562   -1.1116885046
 C    0.0751094209   -2.0488129243   -0.7366393133
 C    0.0388296925   -2.1300348873    0.6581980237
 C   -0.0084851876   -0.8456989284    1.0963920644
 O    0.0143000974   -0.7351527879    2.4515756903
 C   -0.2280098650   -2.1223517817    2.8399852291
 O    0.1137592300   -2.9832372290    1.7494790299
 H    1.0276666214    1.8156031728    0.0526188175
 H   -0.4383266702    1.7332855306   -0.9550387806
 H   -0.5796038453    1.8287296504    0.8217934514
 H    0.1134594825   -2.8202509585   -1.4889344839
 H    0.3965423815   -2.3560116638    3.7034726244
 H   -1.2989620303   -2.2220548652    3.0715042414