21

 C    0.2262867642    0.2208048014   -2.0160856813
 C    0.0503765663    0.1973309016   -0.4960862957
 C    0.1216037805    1.6031519374    0.1037126887
 N   -1.2757780990   -0.3670967174   -0.1996503266
 C   -1.5070856927   -1.8006093436   -0.1198488723
 C   -0.4414000391   -2.8580671857   -0.3077946521
 C   -1.5600769616   -0.9409776208    1.1210753004
 C   -0.5177952450   -1.0816555181    2.1091356946
 N    0.3122741871   -1.1737340192    2.9106205686
 H    1.1938793710    0.6586395580   -2.2787318156
 H    0.1853713033   -0.7861424743   -2.4413632845
 H   -0.5637878201    0.8181774672   -2.4816042142
 H    0.8590466743   -0.4046206266   -0.0551870975
 H    0.0255429676    1.5749281417    1.1926732668
 H    1.0822767094    2.0685736411   -0.1355454830
 H   -0.6804624745    2.2298012533   -0.2984300152
 H   -2.4798432274   -2.0860733197   -0.5194180671
 H    0.4957872881   -2.6105047355    0.1932165847
 H   -0.7960349585   -3.8081485160    0.1041338673
 H   -0.2376813007   -3.0142598716   -1.3716887398
 H   -2.5205403231   -0.6628310534    1.5479816538