17

 O   -0.1248864301    1.3991974670    0.1052747339
 C   -0.0371376394    0.0020949550    0.0304458112
 C   -0.7966231717   -0.8360803224    1.0414613252
 C   -1.3168126922   -0.7147743432   -0.3572948549
 C    1.2330563362   -0.5727506492   -0.5254420739
 O    1.4475295233   -1.7659564862   -0.5256327460
 C    2.2364363009    0.4080287684   -1.0825173400
 C    3.6622089121    0.2248364601   -0.7260740707
 O    3.1783028180   -0.1384761173   -2.0029850608
 H    0.2973452374    1.6852277775    0.9226222596
 H   -0.3313548192   -1.7702281285    1.3327783668
 H   -1.3089184784   -0.2845502062    1.8217734469
 H   -2.1676411185   -0.0669397838   -0.5318050765
 H   -1.2157416122   -1.5676987636   -1.0173484177
 H    1.8737240686    1.4035930837   -1.3187923318
 H    4.3129149384    1.0976675276   -0.6890575607
 H    3.9281847367   -0.6081315891   -0.0775320905