14

 N   -0.5533904123    1.5448561458   -0.3284390697
 C    0.0169250357    0.2105664178   -0.0972630237
 C   -1.0027163624   -0.6727361060    0.4915353607
 N   -1.8001802885   -1.3875145076    0.9234317007
 C    0.6237885925   -0.4379564037   -1.3170703866
 C    0.3460868350   -1.6034423199   -1.9487379222
 O    1.1767678182   -1.7027959327   -3.0300976036
 C    1.9178604338   -0.5746367749   -2.9893387765
 N    1.6433843134    0.2154379146   -2.0048933114
 H    0.1853953124    2.1278422628   -0.7139804109
 H   -1.2698581226    1.4810362707   -1.0475116420
 H    0.8092356413    0.3347990383    0.6525118435
 H   -0.3419178016   -2.4133416030   -1.7815016632
 H    2.6531790850   -0.4463683823   -3.7680093550