21

 C    0.0982379669    1.5356264901    0.2306217357
 C    0.0278152584    0.0324469309    0.0442146117
 O    0.6906877110   -0.5786115633    1.1697254481
 C    0.7250272114   -1.9246391858    1.1713781514
 O    0.2418877003   -2.6091594025    0.3023773864
 C    1.4427972506   -2.4455590118    2.3961230626
 C    1.4982953358   -3.9660318872    2.4273829058
 O    2.1836165230   -4.3434366714    3.6012523598
 C    2.2973103881   -5.7391969959    3.7390324920
 H    1.1366638670    1.8762841791    0.2717300572
 H   -0.3961831886    2.0368990491   -0.6067563344
 H   -0.3994617029    1.8385696292    1.1561414584
 H   -1.0047124964   -0.3285772346    0.0026962767
 H    0.5230708754   -0.2911106214   -0.8767637232
 H    2.4548559657   -2.0269424103    2.4199902584
 H    0.9402805776   -2.0642199426    3.2917373011
 H    0.4803045535   -4.3858575778    2.4126294065
 H    2.0113141851   -4.3480700109    1.5309313287
 H    2.8376351690   -5.9339081473    4.6686723985
 H    1.3109019306   -6.2269215550    3.7919316175
 H    2.8552281186   -6.1889442806    2.9022957609