25

 C   -0.1932532565    1.5438251853   -0.1107806331
 C    0.0585192166    0.0323891456   -0.0244649675
 C    0.7992319731   -0.4634572959   -1.2676529726
 O   -0.0040312469   -0.2026805261   -2.4108693919
 C    0.8287018378   -0.3771730472    1.2442852632
 C    0.0868495424   -0.1248907298    2.5511816235
 C   -1.2001176767   -0.9435044265    2.8674155051
 C   -0.7354397688   -1.0307672227    4.3459038548
 C    0.6985451457   -0.6685700659    3.8745825806
 H    0.7514940946    2.0991136366   -0.0516422046
 H   -0.6722258020    1.7934857386   -1.0600162620
 H   -0.8376250744    1.8955485784    0.6998014654
 H   -0.9139429750   -0.4797494003   -0.0179978558
 H    1.7739359386    0.0482084568   -1.3428802492
 H    1.0023263807   -1.5421069511   -1.1693008538
 H    0.4969236545   -0.4486924463   -3.1934450216
 H    1.0690538650   -1.4484683844    1.1856305766
 H    1.7933747576    0.1514919555    1.2684748797
 H   -0.1239272777    0.9440195530    2.6663374987
 H   -2.1691315224   -0.4823738065    2.6603867667
 H   -1.1727861161   -1.9240323985    2.3792439976
 H   -1.1741820050   -0.2353952105    4.9554904304
 H   -0.8747266854   -1.9807241729    4.8674003552
 H    1.3001652119   -1.5657426774    3.6920388595
 H    1.2839303283    0.0205270520    4.4889863549