13

 N   -0.0192003371    1.3946802045    0.1626319934
 C    0.0609186037    0.0228652348    0.0386366711
 N   -1.0461877274   -0.7054977787    0.0026463519
 O   -0.6327805681   -2.0889722780   -0.0304506728
 C    0.6837981513   -2.0418759974   -0.0344262704
 C    1.2313935010   -0.7962636029    0.0072952280
 C    2.6540521482   -1.0278738203    0.0132428905
 C    2.7992888207   -2.3783947837   -0.0280903543
 O    1.5659745109   -3.0382094563   -0.0568878285
 H    0.6911699198    1.9032586217   -0.3433016384
 H   -0.9474350358    1.7558871138   -0.0139304203
 H    3.4615391605   -0.3138976147    0.0464565135
 H    3.6535187121   -3.0329589228   -0.0425722437