18

 C    0.3172361314    1.5006679378   -0.1615114341
 C   -0.0296311667    0.0099439399   -0.0166112331
 N    0.3660787467   -0.7988479689   -1.1884092934
 C    1.5644664357   -1.5849866328   -0.8681023601
 C    2.9047262050   -0.8376175834   -1.0300997768
 O    3.0150704159   -0.6463236834    0.4046825206
 C    1.8434226266   -1.4668117908    0.6470354746
 C    0.7033294405   -0.6000143624    1.1920732287
 O    0.4322519003   -0.4209531752    2.3501966838
 H    1.3954545288    1.6428288678   -0.2703935023
 H   -0.1806922373    1.9163685583   -1.0412748706
 H   -0.0104301093    2.0464318594    0.7280849924
 H   -1.1071758672   -0.0812503853    0.1551202672
 H   -0.3880368601   -1.4211063704   -1.4467951652
 H    1.5133844268   -2.5758367333   -1.3189346849
 H    3.7357408157   -1.4435225113   -1.4112354137
 H    2.8493042138    0.1073292568   -1.5792027757
 H    2.0567025134   -2.3458770229    1.2609573725