20

 C   -0.0616950183    1.5408161580    0.0230363737
 C   -0.0022666501    0.0340432840    0.0289481410
 C    0.9421436979   -0.8018601044   -0.9124833599
 C    0.6675613175   -1.9310787519    0.1201845973
 C    0.6453019398   -0.8053168363    1.1921514100
 C   -0.8382190908   -2.2011536015   -0.0926618084
 C   -1.2822293293   -0.7465143866   -0.1528281800
 N   -2.4256097870   -0.2223446597   -0.3132271878
 O   -3.4211627519   -1.2147892663   -0.4553570809
 H    0.9333727040    1.9742536245    0.1640961241
 H   -0.4682738427    1.9099644509   -0.9238016700
 H   -0.7144653185    1.9071039648    0.8216621659
 H    0.6295419220   -0.9548928087   -1.9497669355
 H    1.9706188649   -0.4340211324   -0.8753159430
 H    1.3213434773   -2.7977371633    0.2109689721
 H    1.6437649133   -0.4378134910    1.4420731567
 H    0.0580756735   -0.9615541250    2.1020151167
 H   -1.0654501301   -2.7385419012   -1.0188691329
 H   -1.3125123701   -2.7414953337    0.7327810701
 H   -4.2176233514   -0.6851076001   -0.5668523791