14

 C   -0.0987883425    1.5450733890   -0.0382761166
 C   -0.0101512599    0.0281194110    0.0148962582
 C    1.3400280083   -0.6539431434   -0.2211271616
 C    0.7410350510   -0.6427853420    1.1552348355
 O    1.2471271931    0.2097881381    2.1318328021
 C   -1.1741305841   -0.6708640137   -0.4708600425
 N   -2.1099255578   -1.2279305673   -0.8618060525
 H    0.7786320879    1.9846288179    0.4371774924
 H   -0.1582424994    1.8916632375   -1.0737375912
 H   -0.9862006654    1.8984923712    0.4939354881
 H    1.3589348457   -1.5834671532   -0.7775645049
 H    2.1708411629    0.0186183247   -0.4056004735
 H    0.3173944218   -1.5747828666    1.5261412695
 H    2.1014177283   -0.1325433232    2.4157309670