16

 C    0.0267541918    1.4982163537    0.0373466072
 C   -0.0269455056    0.0077962446   -0.0349818839
 C   -0.0691158657   -0.7995869625   -1.1074356353
 C   -0.0351479666   -2.2488472782   -0.7398056030
 C    1.2416122316   -2.6901326855   -0.0578594242
 C    0.0276274219   -2.2764223226    0.7636542771
 C   -0.0177670003   -0.8315352044    1.2068109943
 O   -0.0590091974   -0.4200508784    2.3443390066
 H    0.9522229951    1.8319471829    0.5204822896
 H   -0.0320302618    1.9551156131   -0.9537360788
 H   -0.7943008843    1.8817153447    0.6522943030
 H   -0.0691750763   -0.4662460079   -2.1401259376
 H   -0.6103762528   -2.9704298337   -1.3075413340
 H    1.4828000637   -3.7484309281   -0.0546963249
 H    2.0974943951   -2.0248752434   -0.0984580138
 H   -0.4654279884   -3.0247468641    1.3699891776