17

 O    0.0639247213    1.5046529899   -0.0562432782
 C    0.0274909936    0.1204511169    0.0042003005
 C    0.1234399201   -0.6348154836    1.3719701043
 C   -1.1457578549   -0.0189464886    2.0457590120
 C   -2.1141985990   -0.0513380356    1.1074795034
 C   -1.3465622708   -0.7094477004   -0.0280803993
 O   -1.6290715896   -1.4491732744   -1.2108574567
 C   -0.5566532548   -2.3841532835   -0.8088589833
 C   -0.5988620112   -1.8398782389    0.6597778322
 H   -0.5688907201    1.8329959058    0.5974006956
 H    0.7367901258   -0.2338633150   -0.7443053554
 H    1.0328431598   -0.6935899911    1.9695890534
 H   -1.1864226588    0.3905994487    3.0451882211
 H   -3.1340615536    0.3016240547    1.1446855381
 H   -0.8947477368   -3.4179771955   -0.9107809556
 H    0.3493045222   -2.2304275746   -1.4008610730
 H   -1.1689432933   -2.4917767147    1.3203078211