18

 C   -0.0731859688    1.6162582914    0.0996763708
 C    1.4096140204    1.2518793785    0.0102253242
 N    1.2081328827   -0.0217907732    0.8899160767
 C    1.9355975536   -0.8535418135   -0.1662187253
 C    1.1848393959    0.1263840248   -1.0630070612
 C    0.5489313485   -0.0907543172   -2.4107674563
 O   -0.5806374833   -0.9506536493   -2.1083961408
 C   -0.9747030019   -0.8850272357   -0.7130916794
 C   -0.0139744470    0.0993531689   -0.0964064679
 H   -0.4238677593    1.9680680784    1.0731468918
 H   -0.4889158062    2.2075684969   -0.7198179040
 H    2.2995101455    1.8668389997    0.1559865657
 H    3.0253569015   -0.7681287937   -0.1078760663
 H    1.6365442703   -1.9063621897   -0.1731911920
 H    0.2021987308    0.8493856624   -2.8633818938
 H    1.1702826291   -0.6213305136   -3.1377501739
 H   -2.0168369656   -0.5522740535   -0.6508234207
 H   -0.9015872263   -1.8889511417   -0.2788862974