19

 C   -0.0814563670   -1.2405453640   -0.0976298429
 C   -0.0565351372   -0.0396863947   -0.0257687239
 C    0.0104856077    1.4084676126    0.0538821087
 C   -0.2552265037    2.0891710531    1.4170028898
 C    0.8121370172    1.7444219838    2.4147898016
 C    1.1082700253    2.7808593118    1.3634629016
 C    1.4123720685    2.0948571281    0.0483070149
 C    2.7115125318    1.5197007752   -0.4238290650
 C    2.0768631802    2.6850731589   -1.1551563540
 H   -0.1183781905   -2.3001142636   -0.1549658657
 H   -0.6202543321    1.8539510297   -0.7227885446
 H   -1.2162095702    2.4916031086    1.7107887867
 H    0.6418050843    2.1289332185    3.4154412975
 H    1.3015570737    0.7748163867    2.3812228918
 H    1.3577449497    3.8068611465    1.6064942098
 H    3.6006237513    1.7076875416    0.1695184678
 H    2.6836346267    0.5441966831   -0.8985907779
 H    1.6352881507    2.5000297013   -2.1297563731
 H    2.5362638838    3.6636736230   -1.0544705033