16

 N    0.7337849524   -0.0393972851   -0.5828504816
 C   -0.2567735443    0.2271906397    0.2966941397
 O   -0.2488095684    1.1012112425    1.1339605506
 C   -1.4913435041   -0.7107090460    0.1325773883
 C   -2.4585753488   -0.0796034042   -0.7750018922
 N   -3.2245380387    0.4051160010   -1.4908924094
 N   -1.1024073127   -2.0167917746   -0.3983702586
 C   -0.8128249546   -3.0461097965    0.6045357186
 C   -2.0579768444   -3.1082914958   -0.2065952530
 H    1.5702084858    0.5196845237   -0.5627279733
 H    0.6504495277   -0.8252238353   -1.2075171779
 H   -1.9524191961   -0.7629427470    1.1309761494
 H    0.0277387563   -3.6932480826    0.3757712946
 H   -0.9078634814   -2.7718686236    1.6529037742
 H   -2.9957500547   -2.8768975364    0.2930098439
 H   -2.1419608139   -3.7999301298   -1.0383387833