18

 C   -0.4849047445    1.5086395706    0.1313299924
 C   -0.0978614362    0.0416227010    0.0046597936
 C    0.7414981849   -0.4437948614   -1.2250927221
 C    1.5741558055    0.5260793638   -2.0236155180
 C    2.8710596428    0.3867446773   -1.7410164367
 C    3.1126050545   -0.6765626496   -0.6841312958
 N    1.7439408795   -1.0194684036   -0.2792446321
 C    1.1390250241   -0.3943693835    0.8220147071
 O    1.5403401125   -0.2065534415    1.9371536018
 H    0.3635116308    2.1640028797   -0.0858205129
 H   -1.2998755236    1.7635704643   -0.5535066992
 H   -0.8179772965    1.7188582887    1.1517031808
 H   -0.9629352678   -0.6037578969    0.1861596816
 H    0.2381747068   -1.1826272615   -1.8598236672
 H    1.1588878812    1.1935086589   -2.7686626288
 H    3.6831253736    0.9270359434   -2.2134481696
 H    3.6533791720   -1.5422068281   -1.0888397503
 H    3.6701624902   -0.3146213814    0.1865381054