18

 C   -0.3076433009    1.4608666047   -0.0663555213
 C    0.0590705145   -0.0282629358   -0.0627989145
 C    0.9757405596   -0.4122138624   -1.2063062258
 C    2.1699832181   -0.8117077228   -0.7709547280
 C    2.2115701516   -0.7878260283    0.7317171160
 N    0.8182049713   -0.4109791914    1.1509468500
 C    0.5410209215   -1.7733975710    1.6822814651
 C    2.0085160357   -2.1509632552    1.4334766140
 O    2.7050048880   -3.0837669091    1.6909887153
 H    0.5942513525    2.0771816699   -0.0063647542
 H   -0.8460495243    1.7283317178   -0.9821202298
 H   -0.9424665598    1.6971378589    0.7921418962
 H   -0.8740434420   -0.6107094711   -0.0891128925
 H    0.6838638432   -0.3186493766   -2.2462205229
 H    3.0169837751   -1.1042876441   -1.3786501445
 H    3.0242829175   -0.1764410518    1.1438321579
 H    0.2212485375   -1.7973443013    2.7297662939
 H   -0.1650580291   -2.3688862805    1.0857100349