13

 N    0.1815383964    1.3377600703   -0.6629801078
 C    0.1049716822    0.2176186265   -0.0521795949
 C   -1.2759443220   -0.3843766324    0.0388593743
 O   -1.5196437319   -1.4648688012    0.5104003690
 N    1.1113348142   -0.4667620809    0.6081321299
 C    1.4891324152   -1.8378768233    0.3245500251
 C    2.4283712372   -0.7029786029    0.0486500653
 H    1.1454073673    1.6806077934   -0.6903629248
 H   -2.0471418029    0.2787122869   -0.3995648434
 H    1.6374137937   -2.4730807328    1.1920849141
 H    1.0272831480   -2.3258630236   -0.5284754774
 H    2.5897322020   -0.4233147127   -0.9908344344
 H    3.2662101704   -0.5132896973    0.7128254650