19

 C    0.5191758716    0.6537972371    0.6297837039
 O   -0.1001066016    0.0463018915   -0.4812232761
 C   -1.3783537590   -0.5171286058   -0.2329486725
 C   -1.9757853354   -0.8352847983   -1.5989475205
 C   -1.2823512597   -1.7759403847    0.6555260232
 C   -1.2908800869   -1.4933198449    2.1509182385
 O   -1.8996720939   -0.5673378775    2.6445419090
 C   -0.5510998780   -2.4360752268    2.9745497961
 C    0.0637705862   -3.2289811005    3.6401311439
 H    1.4015750365    1.1787294441    0.2549433524
 H   -0.1463849349    1.3729945032    1.1282868059
 H    0.8506743228   -0.0800644804    1.3809879250
 H   -2.0096644018    0.2158044052    0.2911046906
 H   -3.0006881890   -1.2039719321   -1.4975870495
 H   -1.9865966117    0.0648511275   -2.2183224174
 H   -1.3800998628   -1.5960200492   -2.1136528465
 H   -2.1581105588   -2.4141598407    0.4740378041
 H   -0.4030583477   -2.3651442550    0.3775640756
 H    0.6032147540   -3.9195334827    4.2420832943