18

 N   -0.0926704455    1.2189809843   -0.0317290228
 C   -0.0704340470   -0.0401338169   -0.0088111421
 O    1.0474950092   -0.8514090739   -0.0309626827
 C    0.4539701324   -2.1674930589    0.0136335320
 C   -0.7364905985   -2.1197832959   -0.9846689577
 C   -1.5830247747   -3.3542750841   -0.6771464924
 C   -1.5308110309   -3.3249522912    0.8830555245
 C   -0.6671740705   -2.0808482919    1.0867618888
 C   -1.2030957576   -1.0201246276    0.0475150915
 H    0.8576576692    1.5929857020   -0.0705544557
 H    1.2331763778   -2.9282500682    0.0018584244
 H   -0.5598222825   -1.8509342137   -2.0265858087
 H   -2.5995385521   -3.2651470804   -1.0697466031
 H   -1.1459528417   -4.2658813822   -1.0958890121
 H   -2.5189244861   -3.2198800929    1.3390931904
 H   -1.0655808408   -4.2207457268    1.3055699487
 H   -0.4216128683   -1.7732980336    2.1037155662
 H   -2.2150441924   -0.6231213181    0.0739162267