18

 N    0.1587457519    1.3957867722    0.0283293591
 C    0.0212661082    0.0004114913   -0.0386612681
 C   -1.0527490880   -0.8246234570    0.2162566815
 C   -0.5821540784   -2.1720498182    0.1154588216
 N   -1.3720764035   -3.3111773294    0.3621944287
 C    0.7567717707   -2.1312456988   -0.2160240299
 C    1.7687905477   -3.1898520958   -0.4432292309
 O    2.8749380454   -3.1253704604    0.4694936385
 N    1.1044519576   -0.7777300200   -0.3240082210
 H    0.4714222750    1.8006033378   -0.8484143084
 H   -0.7146982854    1.8341170802    0.2902813966
 H   -2.0640257739   -0.5094050059    0.4260324813
 H   -2.3260525906   -3.1883839077    0.0466022057
 H   -0.9972972471   -4.1477449929   -0.0664812314
 H    1.2813115233   -4.1764539161   -0.4037017640
 H    2.2363558878   -3.1062435665   -1.4329437490
 H    2.4942159517   -3.0741254886    1.3536157441
 H    2.0552852079   -0.4520290343   -0.2732020944