19

 C   -0.1720967180    1.6697393931    0.2380469484
 C   -0.1079259571    0.1432987399    0.0748877261
 C    0.7356212327   -0.5161767788    1.1726666290
 O    2.0721068270   -0.0641946309    1.0006017483
 C   -1.4886144603   -0.4817444480   -0.0082929396
 C   -2.1719887060   -0.6100389137   -1.3169262326
 O   -1.5860176650   -1.7441150916   -0.7060977219
 C   -2.4093227961   -0.4683488130    1.1773941992
 O   -2.2321379723    0.1523106796    2.1949109266
 H    0.8422559087    2.0708740685    0.2850060341
 H   -0.6899399473    2.1368344757   -0.6059811059
 H   -0.6971650042    1.9414126915    1.1568885438
 H    0.3902327035   -0.0909186647   -0.8740127834
 H    0.3421635191   -0.2413441533    2.1602068266
 H    0.6727717265   -1.6107983663    1.0704465488
 H    2.5892773573   -0.3641167233    1.7531874371
 H   -3.2601145421   -0.6143577262   -1.3746659022
 H   -1.6568482383   -0.2186504406   -2.1927986282
 H   -3.2984795779   -1.1217067479    1.0323162756