19

 C    0.4705941703    0.9876555438    1.0479625175
 O    0.0880206251   -0.2697855214    0.5277903006
 C    0.0747553627   -0.3180612918   -0.8809115725
 C    1.4983394376   -0.3902889668   -1.4403513857
 O    1.7913730646   -0.1126594470   -2.5746747683
 C   -0.7012462317   -1.5648648089   -1.3097582445
 C   -0.9647828931   -1.7650036270   -2.8168401347
 C   -0.2233962584   -3.1026788139   -2.6214661668
 O    0.0968050277   -2.7714866892   -1.2495313140
 H    1.4873002819    1.2761527059    0.7415958261
 H   -0.2220377171    1.7814387074    0.7288911702
 H    0.4437308586    0.9067383563    2.1366353091
 H   -0.4288211389    0.5651433818   -1.3088104948
 H    2.2467283082   -0.7497322862   -0.7014164976
 H   -1.5855928773   -1.6431614282   -0.6646102616
 H   -2.0127436984   -1.8222959052   -3.1126860974
 H   -0.4357568828   -1.0540468637   -3.4521965983
 H   -0.8517265097   -3.9995962171   -2.6820871390
 H    0.6785187309   -3.2517162189   -3.2241127984