14

 O   -0.0337138135    1.3947440904   -0.0737452251
 C    0.0164288474   -0.0036513046   -0.0105576783
 C    0.9945375111   -0.5254466283   -0.9719154900
 N    1.7959929247   -0.8976278023   -1.7168525101
 C   -0.0124542923   -0.6938362892    1.4175221128
 C   -1.4824631008   -0.1461015679    1.5147469822
 C   -1.3975453669   -0.6753193173    0.0342924373
 C   -0.6797805641   -1.8711245655    0.6891408261
 O   -0.7075293738   -3.0587981593    0.7008950393
 H    0.8541374852    1.7433266750    0.0659274868
 H    0.7726905355   -0.6818708932    2.1694343886
 H   -2.1580816926   -0.6753612996    2.1853572903
 H   -1.5581551203    0.9343508934    1.6011657992
 H   -2.1527029597   -0.6405263117   -0.7460609990