19

 C   -0.0236343086    1.5479956190   -0.0257013076
 C    1.2901902463    0.8014513111    0.0080757304
 C    2.1609094202    0.7986516448    1.2747292944
 C    2.0563914873   -0.5877366274    1.9092724730
 O    2.2564467005   -0.7009053168    3.3500630194
 C    0.9536473749   -1.3256689333    3.5212152263
 C    0.6209775591   -0.9922836356    2.0895932525
 C   -0.3823986621   -0.6676317782    1.2877282430
 C   -0.0239511471    0.0330449898    0.0198609008
 H   -0.3162122584    2.0751669410    0.8769827452
 H   -0.3232430499    2.0352894494   -0.9478396119
 H    1.8408938796    0.7690260658   -0.9263543718
 H    3.1930956140    1.0702740891    1.0327187588
 H    1.7933660468    1.5262504917    2.0048568274
 H    2.6906524815   -1.3153335037    1.3823386651
 H    1.0489438579   -2.3955033094    3.7556664622
 H    0.3536308914   -0.8421399909    4.3016896355
 H   -1.4275292641   -0.8275527835    1.5410035114
 H   -0.3051105292   -0.4643669229   -0.9050961543