19

 N   -0.1206399775   -1.1423512352   -0.1765515457
 C   -0.0665963685    0.0086927073   -0.0836996991
 C    0.0024130005    1.4601357036    0.0437550894
 C   -0.5826540051    2.0043166763    1.3712140676
 C   -0.0333721885    3.4374447181    1.4058709004
 C    1.3927995700    3.3016667623    0.8654596991
 C    2.2522669459    4.4846726821    0.6279798157
 N    2.5625426035    3.5478614111    1.7246312590
 C    1.4503960498    2.0271024999    0.0090501875
 H   -0.5712951203    1.8902952915   -0.7864216678
 H   -1.6727150349    1.9465930999    1.4022180599
 H   -0.1892305128    1.4194158043    2.2091218792
 H   -0.6296404267    4.0778152733    0.7434816134
 H   -0.0630394607    3.8866631329    2.4031782146
 H    2.9691188451    4.4837987022   -0.1894107134
 H    1.8522184778    5.4661565345    0.8738535666
 H    2.2706620390    3.9485025548    2.6133377793
 H    2.1517393883    1.3220469188    0.4617450836
 H    1.7815728951    2.2124242022   -1.0154517494