22

 C   -0.5276384384   -2.8783728092   -1.4456689387
 C   -0.3428417000   -1.8637153081   -0.3109576872
 O    0.5427577296   -0.8158317677   -0.6953042111
 C   -1.6619599372   -1.2911529462    0.2057406131
 C   -2.4795256965   -0.4969892001   -0.7990177317
 O   -1.8067430989    0.7133780920   -1.1577330990
 C   -2.3721005073   -1.9423319075    1.3438938726
 N   -1.7226399354   -0.6488526216    1.5306888835
 C   -0.5356621686   -0.5952795207    2.3800650372
 H    0.4490660348   -3.2731550030   -1.7375261341
 H   -1.1638135490   -3.7137462149   -1.1338322488
 H   -0.9749004639   -2.4158692806   -2.3309264027
 H    0.1576732930   -2.3813068771    0.5145607607
 H    0.0088824196   -0.1527888575   -1.1578390900
 H   -2.6279020598   -1.0464279734   -1.7326047550
 H   -3.4665176445   -0.2765795958   -0.3730892482
 H   -1.7028655063    1.2034642415   -0.3318437481
 H   -3.4588620422   -1.9543157205    1.3899318671
 H   -1.8936555231   -2.8131743002    1.7917533082
 H   -0.0319942516   -1.5627508868    2.5182653282
 H    0.1867729043    0.1026075355    1.9495540340
 H   -0.8357037486   -0.2319888681    3.3679783000