23

 C   -0.1413196279    1.4005198152    0.1670942608
 O   -0.0481002113    0.0013138764    0.0637545131
 C    0.6807486014   -0.5784483162    1.1250475548
 C    0.6894802513   -2.0903935948    0.9338716257
 C    1.4558599058   -2.7929414145    2.0411960804
 O    0.8331565920   -2.6236199298    3.3398406947
 C    0.7847051941   -4.0463331097    3.5619853042
 C    1.3941921246   -4.3435693325    2.1733623485
 C    0.5374691674   -5.1436756736    1.2009931291
 H    0.8505078452    1.8808168770    0.1459976083
 H   -0.7218887511    1.7555252009   -0.6882115196
 H   -0.6489958036    1.7106541296    1.0945279995
 H    1.7135079518   -0.1864392676    1.1402261225
 H    0.2237506166   -0.3268284618    2.0952164221
 H   -0.3456531112   -2.4440634112    0.9019569069
 H    1.1487036106   -2.3266221181   -0.0340975185
 H    2.4877484249   -2.4104642842    2.0681404305
 H    1.3910707856   -4.3485144086    4.4253693784
 H   -0.2433425710   -4.4026978541    3.7111240861
 H    2.3916259619   -4.7871722275    2.2329775692
 H   -0.4839225085   -4.7556528590    1.1434089272
 H    0.9594183709   -5.1335379280    0.1906364679
 H    0.4756123504   -6.1892348078    1.5218152982