22

 C    0.8225541450    1.7165482546    0.2322630753
 C    0.0980817699    0.3846068184    0.0520723014
 N    0.6066060099   -0.3046019043   -1.1304583668
 C    1.6919398440   -1.2644569389   -0.9545760649
 C    0.3266837187   -1.7201719391   -1.3429964703
 C   -0.5108321815   -2.5650301477   -0.3871575842
 C   -1.9484897431   -2.3819084332   -0.5736825315
 C   -3.1285325872   -2.2194024668   -0.7500634950
 C   -4.5572327694   -2.0275964226   -0.9562301604
 H    1.8938044443    1.5592645979    0.3965731702
 H    0.7069152642    2.3394238010   -0.6589893118
 H    0.4240884162    2.2600457378    1.0946925645
 H    0.2016314109   -0.2116644934    0.9744858691
 H   -0.9739684251    0.5534122239   -0.0986283441
 H    2.5003349701   -1.2238027675   -1.6802540531
 H    2.0108331013   -1.4877860539    0.0646733082
 H    0.1403973720   -1.9610549616   -2.3886070880
 H   -0.2498580358   -3.6191390263   -0.5530690263
 H   -0.2374283488   -2.3521724228    0.6522177689
 H   -5.0542950345   -1.7082185758   -0.0334390774
 H   -4.7499391446   -1.2625814677   -1.7165852166
 H   -5.0409046765   -2.9528570320   -1.2887307571