18

 C   -0.1575392633    1.6991905611   -0.0694259742
 C   -0.0747772922    0.1838591091   -0.0256217808
 C    1.1850055614   -0.4682170017   -0.6125638985
 C    1.0141722867   -0.4348564240    0.8622136691
 C   -1.2798104214   -0.6851075603   -0.1455235917
 O   -1.2057635614   -1.9013053811   -0.1094202362
 C   -2.6934825737   -0.0602932161   -0.3234248658
 N   -3.6385614021   -1.0223730074   -0.4108852809
 O   -2.9068461568    1.1360682519   -0.3754379058
 H    0.8502478621    2.1144032723    0.0378401652
 H   -0.5788416884    2.0572422282   -1.0105083559
 H   -0.7806426348    2.0966085712    0.7337990758
 H    1.0444816625   -1.4197061855   -1.1109059560
 H    1.8920663536    0.2094665513   -1.0776430149
 H    1.5997293883    0.2666013133    1.4457905891
 H    0.7585483166   -1.3638783129    1.3571762999
 H   -3.3545752643   -1.9869419517   -0.3560371382
 H   -4.6025331329   -0.7625225176   -0.5283847302