18

 C    0.0654812309    1.5211197673    0.0223482715
 C   -0.0117755390    0.0164344509   -0.0180636625
 C   -0.8804467691   -0.7764063648    0.8990591306
 N    0.5776300747   -0.7778207538    1.0858458128
 C    1.2690516858   -1.9330810547    0.4763209157
 C    1.0304509620   -1.8239140897   -1.0089485338
 C    0.3291106358   -0.7159017097   -1.2952138474
 C   -0.0704968416   -0.2537709571   -2.5705731021
 C   -0.4285578966    0.1794510619   -3.6366990291
 H    1.0603363977    1.8703787193   -0.2731565515
 H   -0.6645802258    1.9620270550   -0.6639461917
 H   -0.1399486585    1.8857600383    1.0315792128
 H   -1.4299755846   -0.2781352108    1.6940680436
 H   -1.3580542869   -1.6679848916    0.4977498057
 H    2.3395254817   -1.8857968425    0.7199621142
 H    0.8930209782   -2.8738556108    0.8997064958
 H    1.3694708035   -2.5555671835   -1.7320111105
 H   -0.7374397381    0.5489997862   -4.5829816240