20

 C   -0.9284907333    1.1651322946    0.4057491203
 C   -0.0112391801    0.0631897803   -0.0394189607
 C   -0.1286272866   -0.5595168558   -1.2135166694
 C    0.8095769328   -1.6684960432   -1.5901795806
 O    0.6761215265   -2.8399491214   -0.7635044605
 C    0.9246739686   -2.7534796113    0.5751710658
 C    0.9304466240   -4.1448241866    1.1522910117
 N    1.1283182495   -1.7530058819    1.3247473302
 C    1.0940126308   -0.3512629771    0.9221263973
 H   -0.3610516437    2.0737068336    0.6458048406
 H   -1.6663239567    1.4149913104   -0.3612354948
 H   -1.4626156397    0.8832027612    1.3218354191
 H   -0.9211926759   -0.2969809345   -1.9087704696
 H    0.6138737410   -2.0329570903   -2.6003968050
 H    1.8560992622   -1.3361211196   -1.5537516301
 H   -0.0262101000   -4.6380117058    0.9513391860
 H    1.7095496584   -4.7497538420    0.6772534061
 H    1.1020685743   -4.0957663926    2.2263620442
 H    2.0713390334   -0.0636113759    0.5024611391
 H    0.9970129844    0.2309246578    1.8448741403