10

 C    0.1035532839   -7.6953131501   -0.0421029400
 C    0.0909982954   -6.4852242025   -0.0318760837
 C    0.0749781309   -5.1351384877   -0.0232974855
 C    0.0598854852   -3.9138009877   -0.0160059685
 C    0.0425772770   -2.5724434513   -0.0086747988
 C    0.0248551195   -1.3511851781   -0.0032064289
 C    0.0011254345   -0.0012235298    0.0005739066
 C   -0.0201749195    1.2088020780    0.0053074539
 H    0.1121799067   -8.7576208997   -0.0532940802
 H   -0.0350916036    2.2709786190    0.0111868051