16

 C    0.2171703697    1.5834780832   -0.0188207560
 C   -0.0397338422    0.0781268382    0.0432044935
 N    0.5635140831   -0.6593785505   -1.0739183945
 C    1.7670945953   -1.2634440805   -0.8336816701
 O    2.4941559678   -1.8235166396   -1.6183716286
 C    1.9819560549   -1.0492597740    0.6763866569
 O    3.0117603210   -1.1211782850    1.2925174177
 C    0.6498891384   -0.6071087090    1.2568586053
 O    0.7822785950    0.1881193108    2.3953129406
 H    1.2903703080    1.7980533161   -0.0233585568
 H   -0.2218127959    2.0087902075   -0.9264189666
 H   -0.2249981458    2.0754449059    0.8501107551
 H   -1.1179384135   -0.1101107591    0.0544368534
 H    0.2065427555   -0.5960288591   -2.0158615028
 H    0.0853607426   -1.5311631549    1.4770906622
 H    1.6845148660    0.0468053400    2.7192041207