15

 O   -0.3361678941    0.0586201562   -0.2096299836
 C    0.0016603616    1.2042347538   -0.0650006022
 C    1.4203773665    1.7136752444   -0.2432371990
 C    1.4585665269    2.8599064932   -1.2383225732
 N    1.0917543467    4.1840821038   -0.7538875555
 C    2.4764127942    3.9679974992   -1.2197251294
 C    3.5389920105    4.0654027564   -0.1779212732
 O    4.6946794651    4.2928576371   -0.4304793978
 H   -0.7314371665    1.9936066685    0.2153961057
 H    1.7673112815    2.0655664750    0.7349479443
 H    2.0564566868    0.8852138533   -0.5670739611
 H    1.1316447872    2.5840450350   -2.2404019961
 H    0.5642482235    4.7081705339   -1.4459629852
 H    2.7807338567    4.3540942947   -2.1894993700
 H    3.1794339634    3.9241848854    0.8642365063