19

 C   -0.0621951450    1.5759009595    0.0640661200
 C   -0.0384610657    0.0568132580   -0.0699224991
 C   -1.4575451798   -0.5480278197   -0.0565360892
 O   -2.1437768572   -0.2647573517    1.1499915486
 N    0.6738404828   -0.3933155937   -1.2629316842
 C    0.8189104825    0.2178027231   -2.4668843905
 C    1.4919041179   -0.6637355614   -3.2881637676
 C    1.7053850299   -1.7979046525   -2.4815687489
 N    1.2068232477   -1.6346769467   -1.2585230076
 H    0.9480764725    1.9915765500    0.1007153702
 H   -0.6049842883    2.0458698583   -0.7628484706
 H   -0.5884444452    1.8335090441    0.9852311450
 H    0.5164675187   -0.3740918365    0.7709349705
 H   -2.0514228313   -0.1012762478   -0.8620633804
 H   -1.3838139157   -1.6258939143   -0.2487849419
 H   -1.7741162776   -0.8248949832    1.8399995256
 H    0.4531510216    1.2152909514   -2.6454262567
 H    1.7888909476   -0.5022439375   -4.3115784304
 H    2.2064452047   -2.7209908692   -2.7344258728