23

 C   -0.0469063106    1.5612665232   -0.0560228590
 C    0.0330104120    0.0327664866   -0.0108078201
 C    0.7108763415   -0.5353377971   -1.2653297267
 O    0.7572079932   -1.9497508452   -1.2476511201
 C    1.4996496002   -2.4433904592   -0.1449360955
 C    0.8816127859   -2.0223155577    1.1957099794
 C    1.6579843803   -2.5919664380    2.3853960670
 C    0.7632617885   -0.4892910525    1.2464395911
 O    2.0889095121    0.0335369744    1.3436293701
 H    0.9475286623    2.0138423229   -0.1460906491
 H   -0.6320507536    1.9007035682   -0.9165964967
 H   -0.5233050883    1.9619914749    0.8459511279
 H   -0.9878615499   -0.3708267120    0.0241653680
 H    0.1535178647   -0.2569916517   -2.1653118500
 H    1.7282658161   -0.1193217946   -1.3498363487
 H    1.5000596711   -3.5334671826   -0.2410744899
 H    2.5430666856   -2.0942754481   -0.1979335278
 H   -0.1433931084   -2.4154502235    1.2146360633
 H    2.6794451656   -2.2043273331    2.4059970411
 H    1.1790382779   -2.3193074022    3.3318625755
 H    1.7022822746   -3.6850612783    2.3363889346
 H    0.1871062971   -0.2040591566    2.1426252646
 H    2.0283704622    0.9801883222    1.4985942111