14

 O    0.0677397311   -0.0115055483   -0.0223877122
 C    0.0142438231    1.1910347070   -0.0385450249
 C   -1.2609595793    2.0377242338   -0.1317223880
 C   -0.7932204414    3.3640676307   -0.7430730935
 O   -1.4736119746    4.1365446411   -1.3672303742
 C    0.6851041252    3.4917437096   -0.5148819381
 C    1.1408768501    3.2666193640    0.9058867108
 C    1.1962857570    2.1160623681   -0.0688649545
 H   -2.0305829800    1.5555684648   -0.7368079967
 H   -1.6872623005    2.2025724675    0.8653208159
 H    1.2537949059    4.1475646499   -1.1616721593
 H    2.0919060545    3.7086324032    1.1792402710
 H    0.4090293844    3.2540262110    1.7058149751
 H    2.1560526246    1.7194219277   -0.3744335714