23

 C   -0.0249767596    1.5201672024    0.0221354095
 C    0.0082507880    0.0641432988    0.0115855201
 C    0.0467070937   -1.1396869107    0.0022838560
 C    0.0648155275   -2.5996169534   -0.0037745339
 C   -1.3345815596   -3.2356936030   -0.0810080163
 C   -2.1134228661   -2.9451308050   -1.3734887823
 C   -3.2611500842   -3.9694137615   -1.3409159927
 C   -2.6628098103   -5.2310508425   -0.6539619155
 C   -1.3142017520   -4.7766413036   -0.0322120920
 H    0.5934735182    1.9284783318    0.8294401063
 H    0.3477683352    1.9357771824   -0.9208577336
 H   -1.0443037435    1.8955589549    0.1668782205
 H    0.6635878716   -2.9585149750   -0.8532723875
 H    0.5769641822   -2.9613929699    0.8982352187
 H   -1.9249205727   -2.8607857606    0.7661540109
 H   -2.4557309145   -1.9096191866   -1.4434514292
 H   -1.4603839090   -3.1312785135   -2.2375562165
 H   -4.0893088165   -3.5737868319   -0.7424497405
 H   -3.6651815191   -4.1827410638   -2.3343821093
 H   -3.3434970788   -5.6203076694    0.1085902023
 H   -2.5066300287   -6.0416698410   -1.3714986236
 H   -0.4759520361   -5.1429047201   -0.6385175689
 H   -1.1617155258   -5.1618754387    0.9804441773