17

 C    0.2008652614    1.4105004993    0.0549029262
 N   -0.0446165511   -0.0024306470   -0.1273683969
 C   -1.2908588608   -0.5282163233   -0.0651025527
 N   -2.3190564679    0.1750627814    0.2555284017
 C   -1.3055596918   -2.0037707714   -0.4450553435
 O   -0.3540718903   -2.5120728690   -0.9944830996
 C   -2.5540269038   -2.7908003257   -0.1476636927
 C   -3.1874771954   -3.5605243253   -1.2432016761
 O   -2.4195740188   -4.2027745722   -0.2440281596
 H    1.2778651983    1.5884718843    0.0499209106
 H   -0.2685192415    2.0134180455   -0.7331441923
 H   -0.2137595033    1.7426586083    1.0111533209
 H    0.6551515186   -0.5951922267   -0.5449222448
 H   -3.1654872814   -0.3872115713    0.2647731676
 H   -3.1744894607   -2.4462869912    0.6763240615
 H   -4.2618817762   -3.7341740439   -1.2111256001
 H   -2.7305222054   -3.5260713819   -2.2304331902