19

 O   -0.0049442738    1.4129678954   -0.0381708544
 C   -0.0416962784   -0.0028031307   -0.0469943931
 C   -1.4527441204   -0.4705490900    0.0810906625
 C   -2.5667772832    0.2658634524    0.1633354978
 C   -3.7687022481   -0.6492803442    0.0940278825
 C   -3.8149167094   -1.2527723733   -1.3690423445
 C   -2.9478089100   -2.4033817424   -0.8738261387
 C   -3.2390111997   -2.0469743320    0.5651492445
 C   -1.8228544228   -1.9194762545    0.0811244670
 H    0.9150844939    1.6876129353   -0.0822392296
 H    0.3933100156   -0.4109549176   -0.9773023866
 H    0.5595395435   -0.4237104342    0.7796050391
 H   -2.6148043756    1.3445986241    0.1023426545
 H   -4.7076416344   -0.2659202704    0.4903777768
 H   -4.8183561991   -1.6163868469   -1.6062663346
 H   -3.4500527102   -0.6157371714   -2.1818161785
 H   -2.8668277388   -3.3823136392   -1.3318564547
 H   -3.5759154484   -2.6516283240    1.3985357267
 H   -1.0983314707   -2.6818091764    0.3489125834