29

 C   -1.1122809783    1.0121504620   -1.4648772099
 C   -0.8989684158   -0.4136087593   -0.9159990488
 C   -0.5607481498   -0.3353204647    0.5838590480
 C   -2.2381404281   -1.1700568976   -1.0635263966
 C    0.1429096269   -1.2130086974   -1.7587459425
 C    1.6882759578   -1.0071083442   -1.6938170654
 C    2.3007790490   -1.6358724771   -0.4253326631
 C    2.2709468239   -1.7611011865   -2.9101019727
 C    2.1266767255    0.4652894519   -1.7935529543
 H   -0.2311144042    1.6454143478   -1.3474307150
 H   -1.3690764683    0.9892194195   -2.5299059930
 H   -1.9393241682    1.5012452517   -0.9376753972
 H   -1.3965891202    0.1117670860    1.1343379622
 H   -0.3801959906   -1.3282043275    1.0085744701
 H    0.3205366685    0.2824469530    0.7776976316
 H   -2.5184035892   -1.2780860505   -2.1172764831
 H   -2.1779103300   -2.1741998935   -0.6296045500
 H   -3.0476290921   -0.6337366389   -0.5563071065
 H   -0.0240969030   -2.2788177941   -1.5499198517
 H   -0.1559511473   -1.0773772018   -2.8074282890
 H    2.0179159049   -2.6905138247   -0.3332663700
 H    3.3949053898   -1.5916650647   -0.4710405540
 H    1.9919961843   -1.1262980415    0.4891381324
 H    1.9284591457   -1.3205125880   -3.8528653571
 H    3.3659310037   -1.7273900164   -2.9026360061
 H    1.9695028700   -2.8145302986   -2.9050519963
 H    1.8437613347    1.0422046433   -0.9086793602
 H    3.2172854948    0.5269075837   -1.8847672271
 H    1.6944778755    0.9557950980   -2.6718520447