17

 O   -0.0457866118    0.0086531961   -0.0251818970
 C    0.0425698378    1.2098498474    0.0270197694
 C    1.3325517112    1.9683717589    0.0028281745
 C    2.6305460835    1.1474241758   -0.0946302523
 O    3.6098177990    2.1270927644   -0.5090936782
 C    2.9025746094    3.3458466131   -0.6187109063
 C    1.5458003545    2.9354024335   -1.1976511477
 O    2.5717559537    3.8482390797    0.6665864183
 C    1.5306781919    2.9842804615    1.1568290638
 H   -0.8663154624    1.8514874903    0.0904901295
 H    2.9260883127    0.7114580032    0.8648773585
 H    2.5582755454    0.3478348384   -0.8388167760
 H    3.5209658754    4.0765460576   -1.1365026117
 H    1.6168264332    2.4238398111   -2.1589077836
 H    0.8261334136    3.7547659912   -1.2422072671
 H    0.6247716799    3.5706153002    1.3609656998
 H    1.8542210629    2.4966075476    2.0826122662