16

 N   -0.2108582909    1.0436231830   -0.7696384515
 C   -0.0766853625   -0.0249183401   -0.0938634545
 C   -1.2753912035   -0.6227456121    0.6228877176
 N   -1.2988377509   -2.0759322220    0.7703971728
 C   -0.9036462989   -2.8823144193   -0.3670998793
 C    0.0009140809   -2.7504803421    0.8264789144
 C    1.2706052708   -1.9828571436    0.6541923024
 O    2.3626578538   -2.4353978261    0.9177496415
 N    1.1226313871   -0.7027167161    0.1316542348
 H    0.6789822271    1.3671650407   -1.1564008003
 H   -1.3043789418   -0.1936636522    1.6321056006
 H   -2.1773468523   -0.2973913116    0.1021068311
 H   -1.4574243625   -3.8062534913   -0.5032190677
 H   -0.5953276909   -2.3884260178   -1.2865740847
 H    0.0903041809   -3.5725212234    1.5286695489
 H    1.9924643435   -0.2472096561   -0.1151065360