18

 O    0.0661388671    1.4632227461   -0.2313634293
 C    0.0169959362    0.0469890456   -0.1940532561
 C   -1.3973479152   -0.4805610635    0.0933792091
 C   -1.4380459258   -1.9810379822    0.1225107503
 C   -1.6146754222   -2.8768932026   -1.1143781498
 C   -2.5690465680   -2.9937167754    0.0321855718
 N   -1.9814551700   -3.7506489571    1.1432317926
 C   -0.8729027276   -2.8833678151    1.2160236365
 O    0.1105490457   -2.8934900426    1.9022919991
 H   -0.0612446114    1.7859909450    0.6662572557
 H    0.3418940850   -0.2912131190   -1.1837810418
 H    0.7207796700   -0.3694889576    0.5405010128
 H   -1.7353296872   -0.0858945180    1.0612070595
 H   -2.0841422257   -0.0902802481   -0.6663150543
 H   -1.9715510580   -2.3490733780   -1.9953734652
 H   -0.9162698179   -3.6827701673   -1.3219367716
 H   -3.6342961757   -2.8091928706   -0.0095859556
 H   -1.8892264893   -4.7608579896    1.1468731562