16

 C   -0.0470835073    1.5007218729    0.0800046024
 C    0.0111501559    0.0161633429   -0.0174793631
 C    0.0191542672   -0.8165255268   -1.1228997110
 C    0.0849980278   -2.1797406276   -0.6528263856
 C    0.1141192185   -2.1128106182    0.7123193506
 O    0.1745808136   -3.0424256724    1.6981692588
 N    0.0700189483   -0.7988091788    1.0948977489
 C   -0.0291013427   -0.3956309502   -2.4710876604
 C   -0.0698379000   -0.0462915074   -3.6247053287
 H    0.8312783705    1.9184824079    0.5886288883
 H   -0.0840344034    1.9231497888   -0.9262168379
 H   -0.9356915032    1.8470320568    0.6233660571
 H    0.1066521937   -3.0674798204   -1.2638750501
 H    0.2013472746   -3.9135838459    1.2911290877
 H    0.0798827792   -0.4923070379    2.0526979365
 H   -0.1055911828    0.2619955063   -4.6394311735