19

 C   -0.0529260596    1.4637699314    0.0333293368
 N    0.0169212526    0.0171665152   -0.0629095697
 C    0.6520709796   -0.6562612094    0.8119283581
 C    0.7251143653   -2.1565707830    0.7127688579
 C   -0.0174449521   -2.7070509512   -0.4979197323
 O    0.1395967366   -4.1195960781   -0.4566224463
 N    1.3094772607   -0.0436027481    1.9012787534
 C    2.0363362339   -0.6011411344    2.9326624664
 O    2.2620375973   -1.7717980328    3.1123826476
 H    0.9392655569    1.9403428740   -0.0130326333
 H   -0.6362167410    1.8509748303   -0.8051848089
 H   -0.5467350598    1.8037541459    0.9575870518
 H    1.7724928425   -2.4741456374    0.6820636493
 H    0.3281453472   -2.6070408220    1.6283510197
 H   -1.0749033877   -2.4126930668   -0.4547520474
 H    0.3977871351   -2.2771855023   -1.4196211759
 H   -0.3228258652   -4.4898125522   -1.2135857989
 H    1.2383569787    0.9623721145    1.9347422495
 H    2.4073981788    0.1931148964    3.6111859720