20

 C    0.0419542250    1.5462886776    0.0189588113
 N   -0.0695942473    0.1086163355    0.2262602113
 C    1.0393084392   -0.5098038529    0.9351246667
 C   -1.2217496991   -0.5155950168   -0.1222880410
 O   -2.1590429759    0.0753084123   -0.6565235681
 C   -1.4187246424   -2.0302510344    0.1289958310
 O   -2.8031329412   -2.2729562509    0.1280070328
 C   -0.7790580808   -2.8955118079   -0.9869673255
 O    0.6248567483   -3.0836585098   -0.8654666918
 H    0.9178810222    1.7729562887   -0.5996555235
 H   -0.8596320329    1.8984482125   -0.4777439356
 H    0.1562908216    2.0637168254    0.9797810889
 H    1.0013547484   -0.2889174459    2.0107262912
 H    1.0550382420   -1.5827707910    0.7667298115
 H    1.9784721141   -0.1075076874    0.5411453411
 H   -1.0050256399   -2.3319290765    1.1003165629
 H   -3.1788472378   -1.4781490488   -0.2928089418
 H   -1.3178661828   -3.8501375452   -0.9824244854
 H   -0.9567686813   -2.4204990288   -1.9574446196
 H    0.7721766205   -3.8252005757   -0.2709249764