16

 C   -0.0419318200    1.5710438765   -0.0081712683
 C    0.0057440473    0.0679734138   -0.0011113746
 C   -0.0357494811   -0.6950667663   -1.1811537376
 N   -0.1488634911   -0.0971197326   -2.4084323798
 N   -0.0082241537   -2.0416095097   -1.1847102612
 C    0.0576319812   -2.6218013207    0.0049319069
 N    0.1079113052   -2.0248870365    1.1936388511
 C    0.0818841317   -0.6893440074    1.1640652296
 O    0.1325209452   -0.0619552509    2.3562667889
 H    0.8441189381    2.0062648965   -0.4906575310
 H   -0.9211255912    1.9384211272   -0.5516444590
 H   -0.0850693470    1.9614719547    1.0088565643
 H    0.1477372185    0.8586007018   -2.5106818164
 H    0.0265380696   -0.7042696166   -3.1936175034
 H    0.0770929522   -3.7095052592    0.0117593011
 H    0.1732781151   -0.7667294007    3.0179897895