18

 O    0.2132286323    0.8465972089    0.7269443950
 C   -0.2078000089    0.2340095926   -0.4808868196
 C   -1.5110506714   -0.5151796577   -0.3354265897
 C   -1.8906870937   -1.6163038909   -1.3154152579
 C   -1.5275319483   -1.9556388268    0.0916588882
 C   -0.3259214311   -2.7983316751    0.5409123287
 N   -0.8187464738   -3.5437346078    1.7129905411
 C   -2.0404034226   -3.2276502447    1.8290703049
 O   -2.6003053376   -2.3499801844    0.9629503173
 H    0.2437665778    0.1678201985    1.4090859363
 H   -0.3231971566    1.0506520214   -1.2013758874
 H    0.5666055698   -0.4392171500   -0.8846563999
 H   -2.3363408139    0.0830094888    0.0408373185
 H   -2.9328366340   -1.6971507421   -1.6024327149
 H   -1.1801826918   -1.8811654505   -2.0937020679
 H    0.0064338982   -3.5020246549   -0.2311930948
 H    0.5463775988   -2.1953702112    0.8192595196
 H   -2.7201256231   -3.6046417444    2.5848852523