17

 C    0.2205321170    1.5458937571    0.0925888456
 C    0.0079142736    0.0218302311   -0.0483770172
 C    0.6733796271   -0.4985475713   -1.2371691085
 C    1.2178226697   -0.9320548608   -2.2248505463
 C    1.8593664828   -1.4346782033   -3.4118458109
 O    2.4051555451   -2.5117623549   -3.4896508933
 C    0.4406525164   -0.6875531274    1.2333851395
 C    1.1217060079   -1.9849255414    1.2738473702
 O    1.8382844983   -0.7607329960    1.4832972486
 H    1.2805246406    1.7619862422    0.2452267764
 H   -0.1206746573    2.0716821501   -0.8018964415
 H   -0.3386856985    1.9235299813    0.9538080450
 H   -1.0693610331   -0.1670703818   -0.1694535182
 H    1.8166928410   -0.7447730867   -4.2790878626
 H   -0.1552430922   -0.3915590322    2.0994582737
 H    1.0135696960   -2.6161509222    2.1543821489
 H    1.3520864455   -2.4997590738    0.3443782307