21

 O    0.0871411823    1.4017543347    0.2562657972
 C    0.0433728770    0.0080561913   -0.0813695703
 C    0.8102012899   -0.8936042420    0.9165848757
 C   -0.2678625464   -1.5445244083    1.8167256645
 C   -1.5325892886   -1.3412189401    1.0221445998
 C   -1.3779547136   -0.5368796659   -0.0375397043
 C   -2.4345282545   -0.1583456956   -0.9967184945
 C   -2.4901017769    1.2240935563   -1.6264733995
 C   -2.1395369178    0.0378428607   -2.4748332874
 H   -0.4607231023    1.5200302957    1.0406702203
 H    0.4922376681   -0.0309740032   -1.0788483446
 H    1.3465015996   -1.6714533379    0.3642204584
 H    1.5528305011   -0.3084317468    1.4643131369
 H   -0.0604333518   -2.6042046770    2.0058872456
 H   -0.3352831400   -1.0726920723    2.8071873019
 H   -2.4736378006   -1.8052385645    1.3022080711
 H   -3.3986501220   -0.6091572014   -0.7788888629
 H   -3.4686638988    1.6753858095   -1.7494992934
 H   -1.6961918102    1.9114446490   -1.3619213609
 H   -1.1134700990   -0.0667947158   -2.8087388582
 H   -2.8741474055   -0.3347859664   -3.1801778854