10

 O   -0.0453836750   -0.0705553748    0.0041237964
 C    0.0267792698    1.1265089984    0.0085907989
 N   -1.1451301247    1.9266811277    0.0291191413
 N   -1.2127874437    3.2487498519    0.0364483205
 N   -0.1215164046    3.9118518993    0.0240852730
 C    1.0553533583    3.1691906514    0.0033153670
 N    1.1958698550    1.8821737920   -0.0044765858
 C    2.2469816001    3.9867495361   -0.0084350873
 N    3.1980635227    4.6423080473   -0.0178312585
 H   -2.0434006379    1.4564797107    0.0396523045