16

 O    0.1650931385    1.4706969220   -0.0894268233
 C    0.0978404014    0.0829137560   -0.0432414889
 C   -1.2654223521   -0.6775984934    0.1618293000
 C   -0.8125176802   -1.7631860803   -0.8472242745
 O   -1.8070312641   -2.1826185782   -1.7489175747
 C   -1.3960740610   -2.9701285854   -2.7746989747
 N   -2.2420204186   -3.3815050156   -3.6122251064
 C    0.2006974023   -0.7077543826   -1.3559993265
 O    0.5776643150   -0.4108229109   -2.4531449578
 H   -0.0751771782    1.7545696750   -0.9796070319
 H    0.8291692211   -0.2687476507    0.6937731475
 H   -1.4968028336   -1.0047849440    1.1743579334
 H   -2.0992837650   -0.1085166176   -0.2551112554
 H   -0.3243827444   -2.6138863990   -0.3548390681
 H   -0.3193734058   -3.1766508019   -2.7662863050
 H   -1.7837745251   -3.9567259234   -4.3158261435