21

 C    0.0007117357    1.4599941570   -0.0247572342
 C    0.0357976528   -0.0421352684   -0.0571822408
 C    0.5935692339   -0.9594374385   -1.1731557816
 C    0.0648886747   -1.9191486182   -0.0919493151
 O   -0.0108584250   -3.3006384034   -0.1058836005
 C    0.5355674382   -0.9935584186    1.0878081749
 C   -0.8496054724   -1.0456553881    1.7582606679
 C   -1.1708388823   -1.0244554493    0.2455268486
 C   -2.5122589032   -1.0510463335   -0.4347869749
 H    1.0104523989    1.8803121182   -0.0923257639
 H   -0.5809054790    1.8606718934   -0.8627022723
 H   -0.4518107474    1.8285705305    0.9024877533
 H    0.0685789001   -0.9510709448   -2.1345645856
 H    1.6788658691   -0.9317933856   -1.3271892855
 H    0.8827891393   -3.6556310118   -0.1629109993
 H    1.5294347528   -0.9739786740    1.5401256571
 H   -1.0998688387   -1.9660271300    2.2941270179
 H   -1.1536869311   -0.1693716586    2.3406936324
 H   -3.1263126782   -0.1950174987   -0.1331561659
 H   -2.4090267736   -1.0220999992   -1.5253745041
 H   -3.0611324746   -1.9634939885   -0.1776876784