16

 C   -0.2043925190    1.5811733306    0.0316602526
 C   -0.0307100917    0.0678072524    0.0371790500
 O    1.0992600112   -0.3356851368   -0.7879273977
 C    1.8448592988   -0.8354489963    0.3328283832
 C    0.6718856475   -0.5609751646    1.3071775951
 C    0.9264287637    0.3061782928    2.4406741870
 N    1.1376309929    1.0042114687    3.3378985896
 C   -1.2543406937   -0.6241253731   -0.3461492407
 C   -2.2679491316   -1.1947534395   -0.6477559738
 H    0.7209253497    2.0714545547    0.3428330573
 H   -0.4567199925    1.9076114218   -0.9802110186
 H   -1.0092594957    1.8801261393    0.7085998945
 H    2.1098603515   -1.8912331828    0.2195519419
 H    2.7482398505   -0.2479022546    0.5271093258
 H    0.1681046779   -1.4674652905    1.6437286689
 H   -3.1625235996   -1.6976975320   -0.9231497352