16

 O   -0.0709886452   -0.0160379865   -0.2850407687
 C   -0.0536440572    1.1449475952   -0.0062191867
 C   -1.0656444356    2.3136003755    0.0238692717
 C   -0.8234900337    2.9611103018    1.3917858391
 C    0.7594767614    2.9533472330    1.3960325674
 C    1.3637358340    2.2384034558    2.5069882965
 C    1.8580580752    1.6366563056    3.4226341019
 C    0.9902336842    2.2843975943    0.0182849517
 N   -0.0260306256    3.0392006983   -0.8148348490
 H   -2.0811236232    2.2383195538   -0.3594421556
 H   -1.2173860511    3.9780008688    1.4307059203
 H   -1.2419760955    2.3780433868    2.2136006872
 H    1.1378543113    3.9788464401    1.3585854060
 H    2.2977790004    1.1055995527    4.2302911176
 H    2.0091244905    2.1898781768   -0.3497894909
 H   -0.0302821499    2.6461003878   -1.7567354586