23

 C   -0.0333843490    1.5098117234   -0.0485109370
 C    0.0048360943   -0.0096756900    0.0186911648
 C   -1.2829524338   -0.6367645298   -0.4943318862
 C    1.3322465733   -0.7133805325   -0.2347245959
 C    1.4274012581   -2.0046421650   -1.0161681807
 O    2.4011078311    0.1697841474   -0.4987936436
 C    0.7329525921   -0.6893926523    1.1716259490
 C    1.3945779669    0.0925382080    2.2842379484
 O    0.1006138758   -1.8663421320    1.6267122202
 H    0.9322714550    1.9667354977    0.1628506573
 H   -0.3325204029    1.8296286762   -1.0531806333
 H   -0.7742248519    1.9063907956    0.6552788415
 H   -1.3932153397   -0.4605610099   -1.5705448078
 H   -1.3356510754   -1.7081081081   -0.3061933309
 H   -2.1441113218   -0.1757124823    0.0026197748
 H    1.3480244607   -1.8158196195   -2.0915200880
 H    2.4009845612   -2.4813489867   -0.8370974304
 H    0.6558290575   -2.7168221284   -0.7232482268
 H    3.2169200081   -0.2682084553   -0.2316028251
 H    1.9665902669    0.9390300876    1.9039999131
 H    0.6505375161    0.4578784776    2.9992710751
 H    2.0905873038   -0.5544266671    2.8357659161
 H    0.7777299237   -2.4330886047    2.0128351655