18

 C    0.3936539968    1.4777222215    0.0726241926
 C    0.0932640311   -0.0088491676    0.0036352075
 O   -1.2949086169   -0.2685310748   -0.1371418295
 C    0.9607873671   -0.8887914487   -0.9681116914
 C    1.3576964744   -1.8185033394    0.2214567073
 C    0.5644254913   -0.8985506957    1.1846673878
 O    1.8143365887   -0.4452294816    1.7837767279
 C    2.5559635210   -1.3078452564    0.9845835787
 N    3.7884366996   -1.5305795268    0.9602067610
 H    1.4446603229    1.6575242243    0.3096460196
 H    0.1754785168    1.9545440044   -0.8908648168
 H   -0.2244503328    1.9530999983    0.8400404832
 H   -1.5900613513    0.1265202077   -0.9650080058
 H    0.3394198882   -1.3926519932   -1.7105117889
 H    1.7976541107   -0.3953164787   -1.4663992975
 H    1.2322126604   -2.8928483403    0.1170644392
 H   -0.1712413446   -1.2026112926    1.9276990459
 H    4.2844663768   -0.9620531104    1.6489532292