17

 O   -0.2844818887    1.4627662082   -0.1259247168
 C   -0.0630347680    0.0742116227   -0.0453718212
 C    0.4530762961   -0.5158510749    1.3219356506
 C   -0.8620993684   -1.2836861878    1.4242849379
 C   -2.0454763033   -0.3656574823    1.3943383599
 C   -1.3528072629   -0.7286067957    0.0973725510
 O   -0.9285917037   -2.6136623033    1.8517513577
 C   -1.3423012923   -2.8387903841    3.1227468102
 O   -1.3877381884   -3.9338345176    3.5930026469
 H    0.5697446309    1.9041324744   -0.1707714248
 H    0.5486595267   -0.2826007935   -0.8832623566
 H    1.3132942913   -1.1754791557    1.1899780978
 H    0.6585302928    0.2091949649    2.1157024416
 H   -3.0060605685   -0.8531985432    1.5255467512
 H   -1.9835117165    0.6438618949    1.7885497184
 H   -1.8829300169   -1.2258491341   -0.7042098409
 H   -1.6302090402   -1.9091586829    3.6458705872