22

 C   -0.7097067488    0.9328697684    1.3649347274
 C    0.2389056159   -0.1892698842    0.9346293798
 C    1.0291813097    0.1408278133   -0.3606500320
 C    2.4246367621   -0.4424256658   -0.1866024705
 C    2.5868960861   -0.8811127858    1.2393598616
 C    1.3141372426   -0.5523633065    2.0082468694
 O    1.6718064324    0.5417006739    2.8498065003
 N    2.6051179027   -1.8419878494    0.1552949609
 C    1.6292583471   -2.8926588976   -0.0661219047
 H   -0.1558486974    1.8504893567    1.5819574669
 H   -1.4308319691    1.1512074760    0.5709673667
 H   -1.2850245409    0.6595353746    2.2579675693
 H   -0.3696465785   -1.0834092485    0.7652722175
 H    0.5191238053   -0.2344095788   -1.2555118497
 H    1.1246186466    1.2261864880   -0.4848467384
 H    3.2366325968    0.0024210633   -0.7576829802
 H    3.5109828991   -0.7765958956    1.8023727293
 H    0.9727818852   -1.3973154730    2.6261499870
 H    0.9314207761    0.7203971544    3.4370339860
 H    0.5722071887   -2.6009998213    0.0029944015
 H    1.7921323006   -3.3091604895   -1.0657915663
 H    1.8064629177   -3.6943349427    0.6582587281