17

 N   -0.1025340262    1.2747770068    0.2457050121
 C    0.0416186683   -0.0454115477   -0.0619283047
 O    1.1028553602   -0.5873027049   -0.3176074528
 C   -1.2354804560   -0.8157918443   -0.0887499828
 C   -2.4181334018   -0.4554120148   -0.9074472832
 N   -2.5381604662   -0.3399002751    0.5505582120
 C   -2.7479051188   -1.7540007277    1.0434489890
 C   -1.3880178843   -2.2269542319    0.4776554995
 O   -1.4751473725   -3.3025938960   -0.4218763224
 H    0.7335150152    1.8196081732    0.3836633453
 H   -0.9573327797    1.5739167476    0.6897845765
 H   -2.3906010111    0.5032393274   -1.4150831382
 H   -2.9525962457   -1.2469849219   -1.4272490055
 H   -2.8133712217   -1.7709556056    2.1318581745
 H   -3.6249200542   -2.2412031778    0.6087521594
 H   -0.6489641533   -2.4171869545    1.2647426811
 H   -0.5968357122   -3.4426165528   -0.7940865997