18

 C    0.0352351098    1.5435666291   -0.0817735301
 O    1.3189289295    1.5823142311    0.5761191129
 C    1.4572176693    0.1519652145    0.4908930942
 C    0.0250377428   -0.0062967262   -0.0620497191
 C   -0.9624372767   -0.6013584864    0.9298284511
 O   -2.3055756209   -0.5191739119    0.4304610513
 C   -2.4445099807   -0.7325341791   -0.9024327219
 N   -1.5568272080   -0.8622587083   -1.7927837632
 C   -0.1566914688   -0.7250769685   -1.3957053415
 H   -0.7452487402    2.0456749205    0.5021970353
 H    0.0736927881    1.9881245005   -1.0847124745
 H    2.2498738876   -0.1479081325   -0.2088296645
 H    1.6577332149   -0.3060239963    1.4686768017
 H   -0.7238213142   -1.6559658086    1.1238423969
 H   -0.9614009935   -0.0651876618    1.8822420887
 H   -3.5015796576   -0.7787528358   -1.1576504296
 H    0.3709050293   -0.1905557238   -2.1941735555
 H    0.2967628792   -1.7255383565   -1.3494171121