21

 C   -0.0541605837    1.5728186747   -0.0213609398
 C    0.0103129657    0.0369681506   -0.0161744615
 C    0.6798757699   -0.5112650117   -1.2866403917
 C    0.9847994032   -2.0062869183   -1.1537992638
 C    1.9562278237   -2.2661556192    0.0040223858
 C    1.5809623335   -1.4838679158    1.2519716016
 C    0.6977679973   -0.4715537232    1.2253171771
 C    2.2177737012   -1.8758191582    2.4640312616
 C    2.7844047643   -2.2466144222    3.4613102098
 H    0.9519321138    2.0061306794   -0.0282874348
 H   -0.5851081560    1.9362204107   -0.9073781282
 H   -0.5761721839    1.9522246862    0.8632312958
 H   -1.0294595072   -0.3296898112    0.0067234475
 H    0.0393556153   -0.3201667848   -2.1549297655
 H    1.6165183703    0.0363921007   -1.4602461727
 H    0.0493218720   -2.5513122900   -0.9728234974
 H    1.4028666275   -2.4008684934   -2.0859246171
 H    1.9898046100   -3.3336211779    0.2485054915
 H    2.9808491359   -1.9971324316   -0.2881810518
 H    0.4576081072    0.0340844881    2.1577980562
 H    3.2747504702   -2.5591903529    4.3493951972