19

 O   -0.1016028163    1.3539629372   -0.0189162507
 C    0.0545763429   -0.0251728392   -0.0508878036
 C    1.1009086493   -0.7102663948   -0.9151528270
 C    0.7025260606   -2.1390955797   -0.5847243824
 C    0.4478114688   -2.2750048407    0.9635868137
 C   -0.7462631680   -3.2064944073    0.6060072031
 C   -0.8649173718   -2.2662870914   -0.6275711888
 C   -1.1785272273   -0.8925913956   -0.0137121755
 C   -0.2063917592   -0.9005427752    1.1673726213
 H    0.6530311888    1.7289339786    0.4482601704
 H    0.9849712808   -0.4639225743   -1.9764168438
 H    2.1267266414   -0.4708450612   -0.6077078217
 H    1.2558547589   -2.9570049743   -1.0434530101
 H    1.2344810455   -2.5768735066    1.6557437457
 H   -0.4213053803   -4.2146909997    0.3313093997
 H   -1.5888572476   -3.2573199351    1.3016741925
 H   -1.3989474001   -2.5564052573   -1.5326172825
 H   -2.1702642855   -0.4661067372    0.0500836013
 H   -0.4631966809   -0.4841197864    2.1324121583