15

 O   -0.1298769610    0.0077776978   -0.1183378106
 C   -0.0206107349    1.1987393151    0.0640082860
 C    1.2428416020    1.9251843947   -0.0117505388
 C    1.9348790419    2.9909047653    0.8578889677
 O    3.1738980544    2.3029678553    0.8664899954
 C    2.6824283442    1.4033491536   -0.1862868508
 C    3.1391224864    1.9930221020   -1.5089596554
 O    2.5178107873    3.2934849080   -1.5416522094
 C    1.5351182233    3.3233382496   -0.5474315154
 H   -0.9029084616    1.8325125098    0.3087440259
 H    1.6058284404    3.4909980738    1.7622194205
 H    2.9078424837    0.3571953390    0.0116551356
 H    4.2235126506    2.1241034857   -1.5482406220
 H    2.8053515889    1.3899910435   -2.3652681146
 H    0.7284809146    4.0229250769   -0.7341955940