21

 C   -0.0166155275    1.4899204780    0.0538753013
 C    0.0111648874   -0.0193896861   -0.0119019092
 C    1.0198436682   -0.6873907711   -0.9587799091
 C    0.2016364955   -1.7641738752   -1.7144433577
 C   -0.8911266733   -2.1798413830   -0.6918453679
 C   -0.2295525354   -2.9685886634    0.4297076482
 C    0.0667785350   -2.1799177858    1.4653097876
 C   -0.4359956545   -0.7930971769    1.2468930927
 C   -1.2581388601   -0.8323096411   -0.0231205591
 H    0.9241558092    1.8906305743    0.4495039123
 H   -0.1689440587    1.9267841766   -0.9405708118
 H   -0.8252647504    1.8465242400    0.7004091138
 H    1.4534255015    0.0481912900   -1.6431699885
 H    1.8495640536   -1.1443531261   -0.4101921732
 H   -0.2789135559   -1.3220526429   -2.5952990527
 H    0.8141763001   -2.6048665838   -2.0574619796
 H   -1.7297230645   -2.6999078108   -1.1631940282
 H    0.0758707537   -4.0025987704    0.3121976378
 H    0.6198121452   -2.4760110309    2.3495935846
 H   -0.7422362781   -0.1883435121    2.0950954663
 H   -2.2469364410   -0.3957469292   -0.1059604675