20

 C   -0.1561753072    1.4811721903   -0.1947703460
 N   -0.1122537651    0.0650671160    0.0914880953
 C   -1.3227928754   -0.6383428678    0.5522043137
 C   -0.4021088587   -1.5798541363    1.3696330499
 O   -0.1117985089   -2.8204187194    0.7739061978
 C    0.6871492405   -0.4829603758    1.1909712932
 C    2.1748668509   -0.8276590841    1.0413747232
 O    2.4871179521   -0.2040711796    2.3057247880
 C    1.1554615152    0.3289571385    2.4299302903
 H    0.8499138728    1.8491868449   -0.4209662617
 H   -0.7803427377    1.6558613096   -1.0776140494
 H   -0.5659824474    2.0867379556    0.6334641169
 H   -1.9799051562   -0.0255846869    1.1913987499
 H   -1.9260163001   -1.1006282413   -0.2377982580
 H   -0.7007724528   -1.7938346224    2.3969334871
 H    0.1079179339   -2.6559241378   -0.1506317772
 H    2.4177863426   -1.8963638564    1.0274214174
 H    2.6669342079   -0.3257709988    0.1966028505
 H    1.1367355211    1.4200328241    2.3023445005
 H    0.6935807623    0.0751348675    3.3924557384