17

 O    0.1124670013    1.3463373877    0.1023253801
 C    0.0662154086   -0.0229155567    0.0483778502
 C    0.6819241575   -0.9728249411    1.0863031267
 C    0.0308443647   -1.8906917018    0.0207965011
 C   -1.2165864857   -0.9348971221   -0.0300049755
 C   -1.7091307918   -0.8731112982   -1.4674776417
 O   -1.2690570114    0.3156327370   -2.1738381640
 C   -0.4565090315   -0.8856888761   -2.2220576145
 C    0.5830269911   -0.9529675938   -1.1140954495
 H   -0.3596679723    1.6483125974   -0.6864161190
 H    1.7731990141   -0.9884723087    1.1478409196
 H    0.2260678801   -0.9729360127    2.0798360475
 H    0.0119869868   -2.9787697999    0.0076329546
 H   -1.9279994769   -0.9314910053    0.7957142424
 H   -2.6480922104   -1.2964301250   -1.8070712863
 H   -0.3240946319   -1.3197591587   -3.2070551948
 H    1.6454532575   -0.9673699020   -1.3569423567