19

 C    0.0978764603    1.4245399395   -0.0620191490
 C   -0.0677529179   -0.0941650549    0.0829838214
 C    0.6796438792   -0.6574914887    1.2990699519
 N   -1.4914798507   -0.4943853759    0.0759998940
 C   -1.9882761693   -1.3602054269   -0.9799463365
 C   -1.3341028136   -2.6765961603   -0.9846920999
 N   -0.7939630167   -3.6979413170   -0.9935026341
 C   -2.3758096706   -0.0926349446    1.0369989328
 O   -3.5513014037   -0.3934865283    1.0755728322
 H    1.1565382196    1.6759611094   -0.1764737965
 H   -0.4403588097    1.7964664598   -0.9385087248
 H   -0.2756115067    1.9569449257    0.8181092833
 H    0.3585265264   -0.5626170562   -0.8096567279
 H    1.7476735918   -0.4336382205    1.2187206597
 H    0.3170747934   -0.2168362471    2.2329933723
 H    0.5591630519   -1.7421034419    1.3586884264
 H   -3.0617242431   -1.4831694059   -0.8083798606
 H   -1.8485031578   -0.9006442700   -1.9664625976
 H   -1.9033116330    0.5573145237    1.7933104128