20

 C    0.7817252164    1.5425039411   -0.2175124885
 C    0.1494732368    0.1709324354    0.0370497218
 C    0.3169563988   -0.8401647393   -1.1351509915
 C    1.2465525177   -1.9393561563   -0.6341114504
 C    2.6207622823   -1.5540735479   -0.1272163638
 C    1.4658936807   -1.7115576065    0.8341238153
 N    0.7473803920   -0.5196207155    1.1969627955
 C    0.5008081061   -0.1321099548    2.4713447907
 O   -0.1781083073    0.8274114886    2.7865369653
 H    1.8472127091    1.4603850917   -0.4548586505
 H    0.2830739482    2.0291292490   -1.0623052126
 H    0.6643723756    2.1742721090    0.6651252942
 H   -0.9089657022    0.3317857926    0.2661101983
 H   -0.6501399191   -1.2779643134   -1.3993537136
 H    0.7006956623   -0.3406363573   -2.0302168095
 H    1.1091710028   -2.9411805776   -1.0234642179
 H    3.3789334773   -2.3301723045   -0.1233939827
 H    2.9987768577   -0.5559386783   -0.3189090765
 H    1.4623759999   -2.5049970504    1.5723507588
 H    0.9860173950   -0.7986085557    3.2124657776