13

 C   -0.0397082413    1.4136859079    0.0530395055
 O    0.0032882287   -0.0159569061    0.0018156148
 C    0.6441244777   -0.5644572459   -1.1218340984
 C    0.5952448189   -2.0256734585   -1.0096521556
 C    0.5641829156   -3.2211203657   -0.9344321482
 C   -0.0322801685   -0.1476437480   -2.3878815483
 N   -0.5843035540    0.1942717072   -3.3423217655
 C    2.0712053469   -0.1265661980   -1.1984559953
 N    3.1683075622    0.2318769413   -1.2202842995
 H    0.9694219157    1.8403426158    0.0833257582
 H   -0.5899290347    1.8252002109   -0.8009060348
 H   -0.5660972910    1.6522465865    0.9770942091
 H    0.5340531839   -4.2815258875   -0.8625734720