20

 C    0.1359126065    1.3109765816    0.1839941990
 O    0.0442600964   -0.0856020138   -0.0377693169
 C    0.6030938513   -0.5667375600   -1.2254866076
 C   -0.1466747361   -0.0755997893   -2.4696098290
 O    1.9791832865   -0.1668986680   -1.3063762792
 C    2.8051603511   -1.2336113169   -1.7601681147
 C    2.0167667192   -2.5036446641   -1.5177454243
 N    1.5470072795   -2.5943081353   -0.1227663495
 C    0.6426903834   -2.0871468747   -1.1685461828
 H    1.1721078992    1.6577476848    0.1177312447
 H   -0.4823425804    1.8890356240   -0.5172546099
 H   -0.2378541417    1.4835559103    1.1958410101
 H   -0.0082488001    0.9995754029   -2.6021421906
 H    0.2390646708   -0.5743172499   -3.3638441619
 H   -1.2162966657   -0.2887795704   -2.3829703315
 H    3.0309902635   -1.1274787011   -2.8327441917
 H    3.7454605768   -1.1961644858   -1.1995607428
 H    2.2337357032   -3.4006600489   -2.0877391040
 H    1.2968782700   -3.5579745609    0.0867930143
 H   -0.2397848233   -2.6494565946   -1.4522821916