17

 C   -0.0098009580    1.4804764427   -0.0552321817
 O    1.4511935470    1.4669269419    0.1247031679
 C    1.2998537492    0.1863069381    0.8140476055
 C    1.7973009857   -1.2346569926    0.5541876656
 C    0.4993255597   -1.9243589412    1.1498718216
 O   -0.6363534062   -1.0786943462    0.7290219008
 C    0.0489701824   -0.0599770396    0.0203739557
 C    0.6036018419   -0.6736617145   -1.2843546739
 O    1.7648521415   -1.4172386723   -0.8470899448
 H   -0.5088597577    1.9578806320    0.7954606370
 H   -0.3012637696    1.9521287414   -0.9964627318
 H    1.1250888308    0.3683046374    1.8802259983
 H    2.7358209237   -1.6135916089    0.9579041577
 H    0.3896382500   -2.9188357274    0.7101651454
 H    0.5019854348   -1.9995730816    2.2426683684
 H   -0.1374740460   -1.3536418039   -1.7178717817
 H    0.9146843309    0.0644876348   -2.0281252299