16

 O   -0.0071974587    1.4199362037    0.0696071227
 C   -0.0665799392    0.0337447100    0.0070962950
 C   -1.3541992432   -0.7335864427    0.0109322582
 C   -2.6183865785    0.0487757053   -0.3418800788
 C   -2.3731970298    0.4996863775   -1.7773801356
 C   -1.2111662937    0.0193330426   -2.2623543689
 C   -0.4589292805   -0.7463489637   -1.2470049444
 C   -3.2861871803    1.3264740751   -2.4841411926
 N   -4.0538289424    1.9979007472   -3.0346003115
 H   -0.4849944548    1.7887932916   -0.6830721778
 H    0.7521573359   -0.3976828579    0.5740357463
 H   -1.4431377227   -1.6104318711    0.6412072557
 H   -3.5222299211   -0.5655577137   -0.2738912483
 H   -2.7615705800    0.9073628060    0.3254732572
 H   -0.8494708795    0.1935424021   -3.2687427724
 H    0.1459363285   -1.5936810422   -1.5483744347