15

 O    0.0819844185    1.4486235715    0.1079066567
 C    0.0955053836    0.0281515917    0.0419573345
 C   -1.3313133658   -0.5479078999    0.1034155861
 C   -1.4545221892   -2.0262478603   -0.2499029176
 O   -2.2985825615   -2.7659684851    0.2075050127
 N   -0.5618808800   -2.4501579290   -1.2153064523
 C    0.4841244444   -1.6678151929   -1.7117671779
 C    0.8178068068   -0.4930879509   -1.1735829906
 H   -0.3079624886    1.7717965882   -0.7125695824
 H    0.6439915627   -0.2707135740    0.9466528931
 H   -1.7912309267   -0.3862118771    1.0788383326
 H   -1.9447199550   -0.0135176365   -0.6376766519
 H   -0.6770391880   -3.4022253276   -1.5279045746
 H    1.0104632184   -2.1020722429   -2.5537743597
 H    1.6498851104    0.0790985346   -1.5648247287