14

 C   -0.0400342325    1.4996396317    0.0228445980
 C    0.0111027748   -0.0032553450    0.0140786249
 N    0.1328811670   -0.6177401644   -1.1772102969
 C    0.1785233034   -1.9395470039   -1.1928458457
 C    0.1023934957   -2.6817648140   -0.0033513799
 O    0.1523230431   -4.0267948026   -0.0602521816
 N   -0.0174437304   -2.0985373199    1.1775320735
 C   -0.0624530132   -0.7608500822    1.1793670374
 H    0.8674189574    1.9199512515   -0.4225403577
 H   -0.8857741243    1.8611969518   -0.5708734396
 H   -0.1390992458    1.8894294151    1.0391647289
 H    0.2767139119   -2.4433309962   -2.1501597905
 H    0.0853645874   -4.3411634138    0.8523456597
 H   -0.1609556245   -0.2815051581    2.1500283294