19

 C   -0.1042231430    1.4730979984    0.0519669251
 C    0.0865147647   -0.0159702587    0.0532659681
 C    0.9680361453   -0.7820522531   -0.9724546248
 C    0.8260048788   -1.9009815266    0.0647141406
 O    1.5011550250   -3.1093655317    0.0799281843
 C   -0.7121947284   -1.9878736777    0.4382126234
 C   -0.3533881159   -1.6566845110    1.9050412059
 C    0.7629146138   -0.8421374751    1.2369198237
 O   -1.1661213215   -0.7263355821   -0.0654991427
 H    0.8592255931    1.9870818809    0.1145102014
 H   -0.6056569978    1.7918938444   -0.8676906875
 H   -0.7207746193    1.7835856236    0.9008660052
 H    0.5650871509   -0.9073321563   -1.9808721504
 H    1.9944186976   -0.4003093722   -1.0016936040
 H    2.4475666776   -2.9334938080    0.0510232262
 H   -1.3601333145   -2.8066780645    0.1297997440
 H   -1.1216034065   -1.1553761827    2.4983768465
 H    0.0594582992   -2.5168871913    2.4373878006
 H    1.6301916809   -0.4157979463    1.7400084344