20

 C   -0.0046991768    1.4714816677   -0.1694605597
 C    1.2753741421    0.7319168411    0.0014128236
 C    2.0663064898    0.6763077723    1.3056998433
 C    1.2522912033    1.2385577292    2.4875597667
 C    0.1627839152    0.1844838536    2.6455890583
 C    0.7565666802   -1.1351773410    2.1619473346
 C    2.1689076655   -0.8301136092    1.6692072242
 C   -0.3316985343   -0.4658271067    1.3624225535
 N   -0.0086403459    0.0141730132    0.0313964599
 H   -0.3728585877    2.0970462334    0.6368455223
 H   -0.3035740020    1.7934234472   -1.1633646826
 H    1.8687088360    0.5331658383   -0.8909009012
 H    3.0397542404    1.1578923997    1.1871358620
 H    1.8728438885    1.2711119505    3.3919332627
 H    0.8849940399    2.2530555451    2.3121627229
 H   -0.5045796075    0.2239454064    3.4997215861
 H    0.5553249756   -2.0747923729    2.6631580916
 H    2.4708036553   -1.4431607933    0.8132806142
 H    2.8950188730   -0.9921200219    2.4740708444
 H   -1.3189225305   -0.9151118630    1.4089645033