19

 C   -0.0192792934    1.5045994360   -0.1556855830
 C    1.5555261466    1.5125110524    0.0566786953
 C    1.4022553119    0.1797104143    0.8616177553
 C    1.0733499341    0.2513151722    2.3401809210
 C    0.1019812120   -0.6488104026    2.5151917920
 C   -0.1156437814   -1.2222783251    1.1266257888
 C    1.3325957234   -1.3590643449    0.4498487199
 C    0.7269830170   -0.9825222336   -0.9087951641
 C    0.0614349668   -0.0164692722    0.1059838277
 H   -0.5173921805    2.0432507065    0.6550403938
 H   -0.4174920379    1.8416538760   -1.1164174313
 H    2.1105975112    1.4309958343   -0.8793304237
 H    1.9573361683    2.3546500699    0.6257590600
 H    1.5570877788    0.8920724452    3.0656517029
 H   -0.4125853425   -0.9482240171    3.4174015677
 H   -0.8525442971   -2.0127596905    0.9649425954
 H    2.0626278859   -2.1493077307    0.6662167107
 H    1.4052862306   -0.5499215790   -1.6480164081
 H    0.0687898960   -1.7191556609   -1.3778244405