19

 O   -0.0605388809    1.4229452054   -0.0241885356
 C    0.0178623929   -0.0016548035    0.0267034938
 C    0.6329438879   -0.5918618575   -1.2579006222
 C   -0.1079793246   -0.1549724560   -2.5135102923
 C    0.1230628708    1.2668894559   -3.0722277334
 O    0.4388075158    0.7460721312   -4.3815841552
 C    0.4446703134   -0.6057715149   -3.8846367936
 C    0.7322663380   -0.4595462098    1.2209301016
 C    1.3619940875   -0.8112445793    2.1827465226
 H    0.8214102544    1.7689233516    0.1528084745
 H   -1.0276422595   -0.3298991633    0.0901924086
 H    1.6887873532   -0.2965382897   -1.3163477545
 H    0.6186739704   -1.6857047501   -1.1731209931
 H   -1.1745709463   -0.3801937666   -2.4153517965
 H   -0.7372385274    1.9432544724   -3.0893536747
 H    0.9778882724    1.7921177663   -2.6263288614
 H    1.4612229092   -1.0246988260   -3.8453499102
 H   -0.1884864649   -1.2709499495   -4.4833459866
 H    1.8991920175   -1.1261144966    3.0433651382