20

 C   -0.3823405119    1.3592089726   -0.4074369222
 O   -0.3851545680   -0.0423955715   -0.5472773308
 C    0.9224328158   -0.5822369192   -0.5057547202
 C    0.8787508606   -2.0299902160   -0.6485204889
 C    0.8559304043   -3.2296129119   -0.7639664193
 C    0.8680043886   -4.6616561712   -0.8741638765
 C   -0.2800523866   -5.3728039932   -1.5325381139
 N    1.0211829684   -5.3500180359   -2.1723096802
 C    1.1519453944   -4.5309843850   -3.3708674374
 H    0.0539912408    1.6749835231    0.5538695344
 H    0.1807889857    1.8517787760   -1.2165176276
 H   -1.4223940939    1.6899590618   -0.4489322020
 H    1.5427035626   -0.1454402642   -1.3086254113
 H    1.4166137054   -0.3190925557    0.4463156057
 H    1.3808050996   -5.1733729164   -0.0626891132
 H   -0.6101286221   -6.3323272550   -1.1430557147
 H   -1.0672687212   -4.7414225838   -1.9413317456
 H    0.5488975399   -3.6115880062   -3.3491437593
 H    2.2014932284   -4.2511048435   -3.5021171312
 H    0.8456338192   -5.1320471649   -4.2324687859