20

 C    0.0514607450    1.5735958375    0.1522160430
 C   -0.0010815832    0.0512245182   -0.0077313138
 C    0.6634033179   -0.4733051993   -1.2958039091
 C    0.8263735151   -1.9983918569   -1.2399883521
 O    1.2723245629   -2.5289993312   -2.4751229622
 C    0.3257404410   -2.3615830970   -3.5114778059
 C   -0.2899066650   -0.9903721969   -3.5335013351
 C   -0.1135153131   -0.1201341465   -2.5418987459
 H    1.0862561743    1.9332998301    0.1606215895
 H   -0.4710358654    2.0896388107   -0.6595750154
 H   -0.4168171326    1.8846554035    1.0911564233
 H    0.4974199713   -0.4134532952    0.8533825948
 H   -1.0440818040   -0.2899678955    0.0216892013
 H    1.6672802268   -0.0257575889   -1.3611086263
 H    1.5759852485   -2.2859873455   -0.4965073649
 H   -0.1339169490   -2.4579744976   -0.9476712326
 H    0.8619311853   -2.5565483056   -4.4483765595
 H   -0.4698006318   -3.1275854277   -3.4385292495
 H   -0.8893466969   -0.7405342577   -4.4053643989
 H   -0.5518129170    0.8725257416   -2.6044595706