21

 C    0.0023138587    1.6267898419   -0.1161473100
 C    0.0503325352    0.1076060376   -0.0347153100
 C    1.0368909312   -0.7513011046   -0.8628583094
 C    2.4491393327   -0.1807134645   -0.8338040294
 O    2.7239013911    0.4366025933    0.4217638428
 C    2.0685654961   -0.1578344615    1.5496832271
 C    2.0254033975    0.8825650772    2.6601678174
 C    0.7050952314   -0.7017879349    1.1199729969
 O    0.9789757007   -1.7762970736    0.1712085795
 H    0.9885514346    2.0769371261   -0.0001060718
 H   -0.4088680012    1.9384366404   -1.0830207565
 H   -0.6572069847    2.0350039972    0.6576802884
 H   -0.9501692279   -0.3079878883   -0.1851783738
 H    0.7500320295   -1.1254844263   -1.8501393598
 H    3.1591706071   -0.9979785271   -1.0322108879
 H    2.5887222316    0.5949929171   -1.5957445101
 H    2.6513375424   -1.0298696230    1.8888841231
 H    1.3801263211    1.7258113393    2.4009152505
 H    1.6534382534    0.4316916363    3.5856548857
 H    3.0314317164    1.2680862539    2.8459422897
 H    0.0961323931   -1.0324401365    1.9666988975