19

 O   -0.0076809062    0.0136435110   -0.3663065521
 C    0.0266792667    1.1821897167   -0.1149096132
 O   -1.1043411732    1.9192310486    0.1125855541
 C   -0.7297248653    3.2867655144    0.4293161560
 C    0.6032411041    3.4594435482   -0.3111611026
 C    1.2347472971    2.1086991911    0.0469269490
 C    1.6588589014    2.1227055798    1.5366361708
 C    0.4490729924    2.3526262387    2.4689107635
 C   -0.5278798565    3.4269250713    1.9440848423
 H   -1.5345255975    3.9259804182    0.0620047524
 H    0.4407022912    3.5578393675   -1.3885424210
 H    1.1765869476    4.3214183551    0.0387388100
 H    2.0529591924    1.7889169691   -0.5984787923
 H    2.1491520822    1.1795138006    1.7965153537
 H    2.4024390889    2.9183946346    1.6657936213
 H   -0.0988829086    1.4094682040    2.5684117152
 H    0.7919620254    2.6135105037    3.4746810145
 H   -0.1475437023    4.4367507088    2.1416214085
 H   -1.4883185599    3.3405337686    2.4617156699