14

 N   -0.1994684041    1.3779601503   -0.0466173350
 C    0.1355693583    0.0560788426   -0.0211385580
 O    1.2549327193   -0.3838003807    0.0474696009
 O   -1.0096589498   -0.6839685617   -0.1183784205
 C   -0.9505784354   -2.0564095530   -0.1641671507
 C   -2.0908135975   -2.8213285265   -0.2957471075
 N   -1.6596793543   -4.1066624527   -0.2993574455
 N   -0.3284078611   -4.2247801196   -0.1804423661
 C    0.1233720049   -2.9743386444   -0.0960850893
 H    0.5248966573    2.0266017189    0.2076035158
 H   -1.1570294155    1.6473079799    0.0986900965
 H   -3.1285630749   -2.5466547080   -0.3833695405
 H   -2.2180968959   -4.9386209867   -0.3797018134
 H    1.1730819286   -2.7694827585    0.0065561534