14

 N   -0.0065727336    1.3783046309    0.0965355951
 C   -0.0011731046    0.0204894528    0.0321422936
 C   -1.1848494630   -0.7355185763    0.0223314989
 C   -1.1076473909   -2.1157834706   -0.0085564979
 N    0.0358967702   -2.8200594596   -0.0315082734
 C    1.1582412208   -2.1121433841   -0.0251393112
 C    1.2116008593   -0.7127441288    0.0039864965
 C    2.4515836789   -0.0153021622   -0.0010020879
 N    3.4304155207    0.6064141259   -0.0093962082
 H    0.8521003215    1.8840494781   -0.0510309303
 H   -0.8630449956    1.8782871288   -0.0669745183
 H   -2.1492404226   -0.2391627837    0.0419138360
 H   -2.0240271029   -2.7010394885   -0.0161061135
 H    2.0917217217   -2.6688391627   -0.0464904592