17

 C    0.0100746031    1.2708000264   -0.4590307520
 N   -0.0561930955    0.0532904226    0.3575139202
 C   -1.1497574486   -0.7658033642    0.1591024356
 C   -1.3145944165   -2.0236536854   -0.3022142206
 N   -2.6649289953   -2.3746045812   -0.3105687825
 C   -3.2460230525   -1.3084030311    0.1426938248
 O   -4.5371128735   -1.0869577967    0.3433719311
 C   -5.3905708836   -2.1869462099    0.0081926879
 O   -2.4473829143   -0.2820703198    0.4567175041
 H    0.9525796071    1.7850310572   -0.2513770640
 H   -0.0003224820    0.9884369267   -1.5153527269
 H   -0.8191782680    1.9696784218   -0.2801300811
 H    0.0995513347    0.2609189236    1.3379004869
 H   -0.5469550130   -2.7073209466   -0.6280690511
 H   -5.2876187608   -2.4443714221   -1.0494673705
 H   -5.1407550875   -3.0642691993    0.6110581522
 H   -6.4036467738   -1.8482674221    0.2243162959