17

 O    0.0952011227    1.3527299943    0.4720704601
 C   -0.0458907231    0.0791083472   -0.1426771482
 C   -1.4520502649   -0.4483236895   -0.1199463867
 C   -2.6179420426    0.1384107365   -0.9104343766
 C   -3.6387127452   -0.8960847913   -0.3876183408
 O   -3.0301719366   -2.1429431971   -0.7083973497
 C   -1.8018018672   -1.9367510638   -0.0381618623
 C   -2.1256859241   -1.0263853647    1.1213306810
 O   -3.5185057351   -0.7875930198    1.0255546085
 H   -0.4306651910    1.9828903522   -0.0303061873
 H    0.3299008646    0.0938688094   -1.1782968815
 H    0.6113004831   -0.5901917537    0.4236995065
 H   -2.8860551057    1.1549728104   -0.6118413925
 H   -2.4866289134    0.0769740566   -1.9933042439
 H   -4.6775120201   -0.8670201921   -0.7034282153
 H   -1.1134855760   -2.7688098217   -0.0586122745
 H   -1.7227588453   -1.0533731430    2.1226174333