16

 O   -0.0955381843    1.4071925628   -0.0000636518
 C   -0.0190071990    0.0196567821    0.0074770572
 C    0.3235320084   -0.8294077595    1.2913355393
 C   -0.3578871880   -1.9316897581    0.4275604536
 O   -0.7798551656   -3.1002511997    1.0501155417
 C   -1.3401478354   -0.8016208665   -0.0670583115
 C    0.6135745577   -1.9995724793   -0.7689467484
 C    0.8345138624   -0.7141047535   -1.0475469517
 H    0.7914824186    1.7607058447    0.1267720302
 H    1.3756033894   -0.9722047152    1.5471779582
 H   -0.2727312654   -0.5404285945    2.1613731894
 H   -1.2428723350   -3.6400346284    0.4004129512
 H   -2.0673223662   -0.5092659414    0.6956670085
 H   -1.8035310042   -0.9174114693   -1.0491828686
 H    0.9965747196   -2.9028431565   -1.2246151146
 H    1.4400377269   -0.2450529474   -1.8114516928