21

 C    0.1423366757    1.5623771820    0.0284255721
 C    0.0117525804    0.0667655208   -0.0513947958
 C    0.0216052705   -0.5742783663   -1.2325424380
 C   -0.1087484887   -1.9918660849   -1.5720136794
 C    0.0518695023   -3.1599554768   -0.9222265493
 C    0.4660481862   -3.5199632887    0.4937438324
 C    1.4706151746   -2.6116210843    1.1647455762
 C    1.2119429805   -1.3663622764    1.5572813451
 C   -0.0937854295   -0.6690038899    1.2752597489
 H    1.0143815690    1.8507653054    0.6308023282
 H    0.2465949581    2.0191305140   -0.9591030213
 H   -0.7313762734    2.0074434111    0.5233732326
 H    0.0924912900    0.0605428954   -2.1148959180
 H   -0.3984631771   -2.1181174855   -2.6154117925
 H   -0.1645956484   -4.0415252099   -1.5245567311
 H   -0.4383137935   -3.6152873984    1.1143486045
 H    0.8825085478   -4.5322851241    0.4583858756
 H    2.4659619246   -3.0203582775    1.3193819351
 H    1.9981329966   -0.7726722838    2.0181300698
 H   -0.3389339555    0.0371676711    2.0753776910
 H   -0.9108453401   -1.3958304734    1.2214497239