22

 C   -0.0428153293    1.5656729135    0.2191536014
 C   -0.0228159101    0.0389604692    0.0299846437
 C    0.8755775319   -0.6335012806    1.0753418465
 C   -1.4316236697   -0.5084811985    0.0110253294
 C   -2.2506000167   -0.9275208069    1.2038445488
 C   -1.9645654759   -1.9340943990    0.1133435112
 C   -2.8311264558   -1.6874580087   -1.1537064730
 N   -3.7638054880   -0.5590013666   -0.8936562829
 C   -2.3433965933   -0.3010428922   -1.2472720482
 H    0.9665047774    1.9848287833    0.1485258490
 H   -0.6633896018    2.0550925020   -0.5385640782
 H   -0.4514317081    1.8273020688    1.2013483046
 H    0.4148798765   -0.1677862091   -0.9591383174
 H    0.8834802442   -1.7220125995    0.9597797849
 H    1.9063629082   -0.2785706698    0.9769421452
 H    0.5459903903   -0.4023188729    2.0939117973
 H   -1.6808142225   -1.0921042629    2.1126523334
 H   -3.2542567326   -0.5496989860    1.3511153787
 H   -1.4187236614   -2.8517248432    0.2928415862
 H   -3.0334369663   -2.4130432349   -1.9307572097
 H   -4.3085434727   -0.4236635985   -1.7451881478
 H   -2.0776136344    0.2938273126   -2.1124601533