15

 C    0.0158010789    1.5565940716    0.1465251230
 O    1.3921133768    1.9397821566    0.0374067370
 C    2.0988392179    1.0187847601   -0.8024021512
 C    1.3292682733   -0.2700508788   -0.6872857331
 O    0.9929079207   -0.6715823746    0.6410928089
 C    0.0141787584    0.0694855925   -0.0881962303
 C   -0.6763140265   -0.8565355510   -1.0876538814
 O   -0.3237303768   -0.4014463805   -2.4022234592
 C    0.6326612485   -1.1944939116   -1.6839578405
 H   -0.3252700478    1.8712271506    1.1365748323
 H   -0.6080617657    2.0389724066   -0.6204016413
 H    2.1013114583    1.3394541149   -1.8546545819
 H    3.1285598440    0.9794989468   -0.4368149801
 H   -1.5733020033   -1.4531612386   -0.9848033417
 H    0.9753699733   -2.1111907547   -2.1458512406