22

 C    0.1701076940    1.5893987040   -0.0708370035
 C    0.2164124201    0.0596967357   -0.0710233794
 C    0.4467021217   -0.5298669638    1.3285663040
 C    0.5565379108   -2.0348092080    1.3296328388
 C   -0.6633161514   -2.8954425285    1.0183060205
 O   -0.3153124976   -4.2201570627    1.4118238440
 C    0.5778699255   -4.1256521854    2.5199393111
 C    1.3556848825   -2.8452941597    2.2877464458
 N    1.8448051155   -2.6203869062    0.9199246014
 H    1.1074067966    2.0121500493    0.3076285420
 H    0.0102767477    1.9838972693   -1.0790554802
 H   -0.6404292427    1.9632488859    0.5651334143
 H   -0.7199846782   -0.3329684417   -0.4884255438
 H    1.0193283165   -0.2893151540   -0.7312266038
 H    1.3712720774   -0.1148926561    1.7453614704
 H   -0.3690540954   -0.2243932965    1.9986083869
 H   -1.5347214963   -2.5223551678    1.5824101155
 H   -0.9314941597   -2.9328353135   -0.0429173352
 H    0.0333381965   -4.0685377726    3.4768849967
 H    1.1895449095   -5.0343531900    2.5241871930
 H    1.9427937132   -2.4153040726    3.0932034793
 H    1.6877265234   -3.4585579950    0.3610028224