23

 C   -0.0324316683    1.5946390436   -0.1212804045
 C   -0.0123533017    0.0867576858    0.0047616251
 C    1.2556355941   -0.7002698459   -0.2249527795
 C    0.6479088824   -0.6397084242    1.1603659692
 C    1.3351721699    0.0833423248    2.2780893867
 C    0.7765180425    0.0615847016    3.6817838257
 C    2.0833419110   -0.6322963264    3.3857582385
 C    2.1930663374   -2.1316822824    3.4573752771
 O    2.4313301014   -2.4871818807    4.8151979525
 H    0.9154434174    2.0457395751    0.1860329296
 H   -0.2098093232    1.8920145099   -1.1608397726
 H   -0.8249655703    2.0382407203    0.4917980990
 H   -0.9219705003   -0.3870297130   -0.3569460211
 H    1.2122248865   -1.6312034746   -0.7803279919
 H    2.1664747446   -0.1312262571   -0.3884388092
 H    0.1242051035   -1.5382392944    1.4743262707
 H    1.7948349861    1.0202805209    1.9775188172
 H    0.7866315337    0.9720860959    4.2706868785
 H   -0.0870640491   -0.5720790231    3.8613467552
 H    2.9794538116   -0.1323173994    3.7438339701
 H    1.2709028147   -2.6033030054    3.0851392851
 H    3.0167865309   -2.4766889804    2.8115505121
 H    2.5861320452   -3.4358714209    4.8499787864