23

 C    0.3940916051    1.5505340727    0.1338952921
 C   -0.0015934273    0.0975354918   -0.0342640363
 C    0.4954021286   -0.6688590502   -1.2775522393
 C    1.1025716335   -1.6631544741   -0.2677037653
 C    0.4433077109   -3.0370674041   -0.1069944097
 C    1.3799666113   -3.7485424699    0.8785282629
 C    2.7885572996   -3.3633781687    0.3723967044
 C    2.6139402480   -1.9638894998   -0.2819307363
 O    0.7392190426   -0.7834903791    0.8428407035
 H    1.4632946249    1.6860499078   -0.0571847505
 H   -0.1689946066    2.1846089007   -0.5601363410
 H    0.1829416180    1.8890325310    1.1533530905
 H   -1.0826691710   -0.0177030515    0.1330332762
 H   -0.2676866564   -1.0686930573   -1.9485925124
 H    1.2385343329   -0.1200312644   -1.8623499098
 H   -0.5922748967   -2.9569502669    0.2343698328
 H    0.4443584859   -3.5544169523   -1.0763978124
 H    1.2148954732   -3.3406481889    1.8817074918
 H    1.2235792854   -4.8294172895    0.9289188529
 H    3.5317431880   -3.3610715077    1.1737163139
 H    3.1294130686   -4.0895707369   -0.3733365420
 H    2.9897601206   -1.9545922719   -1.3103367288
 H    3.1355494709   -1.1733188006    0.2630199627