20

 C    0.0581019783    1.5136698035    0.1316631822
 C   -0.1420326290    0.0377719026   -0.2092124117
 C    0.7831033267   -0.4552448057   -1.3080597146
 O    1.4257558211    0.3069129307   -1.9982010764
 C    0.8757309375   -1.9700266061   -1.5239765342
 C   -0.4889836213   -2.5944042815   -1.8778511931
 N    1.8699279707   -2.2154015435   -2.5478701736
 C    2.4592238195   -3.4227755344   -2.7168529645
 O    2.1625330526   -4.4312328743   -2.1057229567
 H    1.0683168459    1.6962395620    0.5080141745
 H   -0.0785256793    2.1381133277   -0.7538445423
 H   -0.6560441641    1.8299993896    0.8964353654
 H   -0.0127796137   -0.6029829408    0.6722611451
 H   -1.1724574599   -0.1426733676   -0.5452146984
 H    1.2149882413   -2.4246761618   -0.5824408136
 H   -0.3443359354   -3.6626953633   -2.0466001810
 H   -1.2064234391   -2.4669553855   -1.0629669238
 H   -0.8988330109   -2.1425958691   -2.7862546002
 H    2.2331638966   -1.3897880118   -3.0050872745
 H    3.2501959324   -3.3957881509   -3.4919899886