19

 C    0.0824463427    1.4683618812    0.0192578678
 C   -0.0701326944   -0.0182902133   -0.0240237039
 C   -0.1392728431   -0.8141771189   -1.1060357115
 C   -0.0271041820   -2.2389256885   -0.6428297927
 O    1.3730869151   -2.3879055782   -0.1290661786
 C    0.8976444720   -2.1332361081    1.1741254607
 C    1.7561404449   -2.5449633535    2.3230284811
 C   -0.5425265281   -2.2555104805    0.8239605781
 C   -0.0601293064   -0.8698646400    1.1959622203
 H    1.0487058233    1.7514236161    0.4554470981
 H    0.0223720673    1.9058908620   -0.9806724318
 H   -0.6911332628    1.9325979091    0.6435731368
 H   -0.0599745347   -0.5016872527   -2.1394568634
 H   -0.2647249046   -3.0489605978   -1.3300017397
 H    2.7157815452   -2.0179452954    2.2883057213
 H    1.2697598592   -2.3071675916    3.2733195188
 H    1.9586791916   -3.6205465542    2.2936300871
 H   -1.3796817314   -2.7917662923    1.2538408750
 H   -0.2830420935   -0.4664000335    2.1776005165