16

 O   -0.0873091727    1.3205519596   -0.1114276128
 C    0.0129263872   -0.0597606560   -0.0621849951
 C    0.5750853968   -0.9078361406   -1.2740493448
 C   -0.2258920637   -2.0068787353   -0.5709536987
 C    0.4319075183   -2.7627032359    0.3310613064
 C    0.2451677399   -2.1811175468    1.7304475715
 C   -0.2897058661   -0.7928836194    1.3323821395
 C   -1.1424660279   -0.9790476977    0.1237746511
 H    0.7576235820    1.6931734531    0.1636376591
 H    0.1508437136   -0.4869320860   -2.1929681987
 H    1.6517877843   -1.0683574956   -1.3867757051
 H    1.3384671903   -3.3078348780    0.0828299650
 H   -0.4551171860   -2.6929294157    2.4073458213
 H    1.2191562193   -2.1673747153    2.2359078793
 H   -0.5854917501   -0.0717643046    2.0919128374
 H   -2.2035327252   -0.8215108859   -0.0195673154