18

 C    0.0195010949    1.6410187852    0.1492510229
 C    0.0170719579    0.1076968204    0.0154259972
 C   -1.3594642448   -0.4896384437   -0.0132050480
 C   -2.1545129159   -0.7590214598   -1.1175477366
 C   -1.9244634298   -0.5733011943   -2.5819588745
 N   -3.3165728154   -1.2644635782   -0.6231596097
 N   -3.3429279888   -1.3516983675    0.7212233399
 C   -2.1575484371   -0.8788958938    1.0898766048
 H    1.0416513870    2.0325166961    0.1817847343
 H   -0.4971994027    2.1094089461   -0.6946483468
 H   -0.4942362458    1.9530801575    1.0638225511
 H    0.5650059167   -0.1737391296   -0.8923626773
 H    0.5797346602   -0.3251850364    0.8511115958
 H   -2.3292541334   -1.4095326426   -3.1624896723
 H   -2.3880114916    0.3459558075   -2.9601457921
 H   -0.8543735351   -0.5108811844   -2.7947444043
 H   -4.1136630905   -1.5849123723   -1.1469792657
 H   -1.9014318860   -0.8377129101    2.1396677314