23

 C   -0.1584217994    1.5168232260    0.0546786930
 C   -0.0632257189   -0.0075824595   -0.0353712256
 C    0.7414051551   -0.4988471298   -1.2405547911
 C    0.9064869213   -2.0208232903   -1.2401616379
 O    0.0544360688   -0.0469065966   -2.4060102982
 C    0.8229096856   -0.0023252081   -3.5854751058
 C   -0.0415919214    0.6587684792   -4.6664092296
 C    0.6500088003    0.7562439153   -5.9443382891
 C    1.2454956701    0.8242470468   -6.9860905581
 H    0.8332779790    1.9694977871    0.1685180276
 H   -0.6126146109    1.9266226236   -0.8506537950
 H   -0.7641474653    1.8243086810    0.9124212576
 H    0.3985583283   -0.4118813378    0.8733362618
 H   -1.0683624996   -0.4431438708   -0.0979982983
 H    1.7399329298   -0.0281458508   -1.2165961943
 H   -0.0735167688   -2.5082963125   -1.2623283853
 H    1.4804071764   -2.3669941022   -2.1043804824
 H    1.4355102174   -2.3478476548   -0.3394053964
 H    1.7439879574    0.5820494311   -3.4325415642
 H    1.1224196863   -1.0063266245   -3.9201824597
 H   -0.9655609063    0.0787742213   -4.7765275025
 H   -0.3391997707    1.6542407123   -4.3163468840
 H    1.7593847255    0.8908034738   -7.9126849726