18

 C   -0.4078613414    1.4623641838   -0.0360555126
 C   -0.0250681374    0.0008451435   -0.1056956612
 C    0.6289186122   -0.7128863191   -1.2231432775
 C    1.7234375745    0.0843633825   -1.9106967082
 O    1.2767782344    1.2120564335   -2.6187670644
 C    2.3868503965    0.2430895362   -0.4936767375
 C    2.6861937287    1.5614753150    0.0240920410
 C    2.9978481069    2.6532905890    0.4221219986
 N    1.3036917337   -0.5958008820    0.1559437022
 H    0.2183534658    2.0980543982   -0.6562024382
 H   -1.4418953130    1.5657184894   -0.3832000409
 H   -0.3643700508    1.8159295920    0.9990075034
 H   -0.7558988834   -0.6352344944    0.3941298541
 H    0.2667239483   -1.6674063020   -1.5908419104
 H    2.3521048312   -0.5542943961   -2.5442206859
 H    2.0482240163    1.7238882398   -2.8861087555
 H    3.2988857077   -0.3608176538   -0.4502943106
 H    3.2529622898    3.6161924044    0.7905535136