21

 C   -0.0463533076    1.5837916364    0.1746802894
 C    1.4607551306    1.2349875418    0.0463048932
 C    1.1830994033    0.0477149706    1.0272154503
 C    0.0149360965    0.0305701899    0.0006094022
 C   -1.1391977049   -0.8926381078   -0.2814384035
 C   -1.5182629657   -0.7654032715   -1.7445053306
 C   -0.8213022125   -0.1065911676   -2.6758337193
 C    0.4841228742    0.6347170766   -2.4580565870
 C    1.0824370019    0.2503999600   -1.1057591566
 H   -0.3802445299    1.9437592813    1.1524158958
 H   -0.5048943094    2.1639203898   -0.6275307616
 H    2.3034417171    1.9273275442    0.0861587533
 H    1.8803275909   -0.7949557619    0.9879759616
 H    0.9381432868    0.3183824098    2.0584314258
 H   -0.8690810067   -1.9357505569   -0.0598113360
 H   -2.0077507589   -0.6687204243    0.3523055279
 H   -2.4411901588   -1.2597312508   -2.0400438411
 H   -1.2116237662   -0.0864695948   -3.6915813985
 H    1.1789442223    0.3901535134   -3.2710028054
 H    0.3088237335    1.7151915653   -2.5497610904
 H    1.7760441235   -0.5910900835   -1.2152801495