19

 O   -0.1412298436    1.2671510016   -0.7144526839
 C   -0.0318287584    0.0818840733    0.0668586929
 C   -1.3882244377   -0.5714107437    0.1037929899
 C   -1.8500300746   -1.4238136861   -1.0680227027
 C   -1.5222016965   -2.0569532932    0.2601610502
 O   -0.3218484465   -2.7682710293    0.3798444795
 C   -2.6442478302   -2.6201420683    1.1292479219
 C   -2.9269679335   -4.0127992391    0.7902670303
 C   -3.0984397323   -5.1623734586    0.4810884189
 H    0.7171220084    1.7011366086   -0.7115834303
 H    0.7005306645   -0.6181641612   -0.3557652329
 H    0.2930597969    0.3163422657    1.0932321160
 H   -2.1526207378    0.0317251964    0.5872761459
 H   -2.8846794608   -1.3588086046   -1.3869733349
 H   -1.1331314782   -1.5763503358   -1.8673133144
 H   -0.4980384104   -3.6699910407    0.0827390125
 H   -2.3471848124   -2.5535279502    2.1836076477
 H   -3.5482915173   -2.0120500525    1.0107047108
 H   -3.2816461695   -6.1757128524    0.2215146725