19

 N   -0.0897549679   -1.1611859189    0.1509972153
 C   -0.0595632755   -0.0058674188    0.1457384099
 C    0.0185366525    1.4537988524    0.1328026581
 C    1.4470664484    1.9471034695   -0.0967119468
 C    2.4456534220    1.8100635727    1.0786641946
 C    2.6398027173    3.3470418469    0.9757407646
 N    1.6283867790    3.4543567146   -0.1263368028
 C    2.2440917378    3.3461854655   -1.4895177577
 C    2.0275516880    1.8091741617   -1.5255092755
 H   -0.6389448446    1.8418124616   -0.6533718114
 H   -0.3598095849    1.8422656848    1.0850909887
 H    1.9956663837    1.4670629369    2.0132981092
 H    3.3248455812    1.1952812006    0.8749637749
 H    2.3367883484    3.9117143429    1.8619679363
 H    3.6420351224    3.6793738477    0.6849863400
 H    1.6789336342    3.9103536163   -2.2367667657
 H    3.2869628374    3.6785277568   -1.5272338513
 H    2.9263393530    1.1943685341   -1.6068849541
 H    1.3076093876    1.4656835726   -2.2720857464