19

 C    0.1393016156    1.2480371689    0.2043856289
 O   -0.1236335744   -0.1030401158   -0.1482425018
 C    0.5916318326   -0.5317389333   -1.2378862773
 C    0.4393483921   -0.1271766038   -2.7088642729
 C    1.3143885006   -1.3810439741   -2.9719300056
 O    2.6183310857   -1.0270884445   -2.4281116662
 C    2.0167374021   -1.1411084329   -1.1314462542
 C    2.8693992417   -1.1730876119    0.0887048576
 C    0.8619195805   -1.9830892722   -1.5931771579
 H    1.2008617644    1.4048415380    0.4363044473
 H   -0.1493192413    1.9359230140   -0.6018429796
 H   -0.4607293932    1.4666359773    1.0900540119
 H   -0.5890463269   -0.2713349032   -3.0508318496
 H    0.8420990681    0.8275268648   -3.0606685170
 H    1.3593721513   -1.8771306843   -3.9383770138
 H    3.4957779489   -0.2761931134    0.1460627773
 H    2.2357934473   -1.2092470481    0.9795772534
 H    3.5272399148   -2.0479578014    0.0921057754
 H    0.4303324200   -2.9202863941   -1.2700492660