21

 C    0.1487765695    1.5473903320   -0.1647570648
 C   -0.0068199099    0.0459276545   -0.0177956665
 C   -1.1824016003   -0.5351981348   -0.7823598474
 C    1.2385917113   -0.8045782811    0.0781387934
 O    2.4753388409   -0.1533798283    0.0668684494
 C    0.3498862334   -0.6470554263    1.2934162493
 C    0.8810842897    0.0979041650    2.5146642813
 C    2.0189993453   -0.5932388394    3.1222768777
 C    2.9653235869   -1.1823117943    3.5758163095
 H    1.1177910694    1.8931556381    0.1972862062
 H    0.0836036019    1.8256101411   -1.2226388129
 H   -0.6448580682    2.0859851028    0.3661010737
 H   -1.1027024869   -0.3095051519   -1.8521645750
 H   -1.2374054181   -1.6230984389   -0.6740517409
 H   -2.1305842100   -0.1178465109   -0.4230369643
 H    1.2316981339   -1.7664355141   -0.4361010411
 H    2.9947470592   -0.5035197380    0.8017092985
 H   -0.2548230250   -1.5128842341    1.5497218855
 H    1.1874049555    1.1137197499    2.2491486365
 H    0.0811824969    0.2066652637    3.2570412296
 H    3.7904281248   -1.6952034750    4.0046391423