23

 O    0.1491712579    1.4505766370    0.0045906833
 C    0.0794072674    0.0270434011   -0.0094213052
 C    0.7288154576   -0.6114136325    1.2386804193
 C   -0.4444041925   -0.8038434803    2.2095655990
 C   -1.5700967513   -1.3232223835    1.2950843900
 C   -1.5783756510   -2.8847023661    1.1858327726
 C   -2.7359716375   -2.9259225158    2.2172773739
 C   -2.9761705363   -1.4155785119    1.9529448120
 C   -1.3857619763   -0.5020196502    0.0023577149
 H   -0.3111533220    1.7628404216    0.7909311389
 H    0.6074214840   -0.2533330365   -0.9242813774
 H    1.1505076433   -1.5892829291    0.9765000971
 H    1.5429140686    0.0086615925    1.6225345328
 H   -0.2184535185   -1.4759088789    3.0431532270
 H   -0.7397496914    0.1595588603    2.6507359848
 H   -1.9025986739   -3.2189700286    0.1953998043
 H   -0.6529314914   -3.4099817186    1.4408173797
 H   -3.5636313336   -3.6086400827    2.0125592344
 H   -2.3794121542   -3.1156652829    3.2332280358
 H   -3.1609229261   -0.7700442404    2.8172678124
 H   -3.7753188151   -1.2517096007    1.2230645153
 H   -2.0601107056    0.3626259382   -0.0092026127
 H   -1.6222534922   -1.0914089521   -0.8889915421