22

 C    0.3963247624    1.3679168141   -0.1065739854
 C    0.1104725259   -0.1006705499    0.0848422403
 N   -0.1194911021   -0.7293708872    1.1650893833
 O    0.1260139078   -0.7332504646   -1.1044170111
 C   -0.1467222319   -2.1460950635   -1.0917596891
 C   -0.1017642239   -2.6426273167   -2.5139820744
 C   -1.1510950079   -2.0508771228   -3.4350409979
 C    1.2533528874   -2.9860496961   -3.0848062392
 C    0.2955933410   -4.0881354239   -2.7014922457
 H    0.3971851868    1.8950450330    0.8487715518
 H    1.3676866961    1.5025979567   -0.5920003028
 H   -0.3566749093    1.8157609910   -0.7623253361
 H   -0.0904281614   -0.0939018943    1.9590495324
 H    0.5951339840   -2.6481707751   -0.4622582408
 H   -1.1285930453   -2.3111203775   -0.6333157717
 H   -1.0516931373   -0.9624411934   -3.4884113706
 H   -1.0568145992   -2.4508767259   -4.4491260794
 H   -2.1628052358   -2.2787193230   -3.0782861661
 H    1.4217578033   -2.7984548363   -4.1397564941
 H    2.1270975133   -2.8287706481   -2.4614796249
 H    0.5233566336   -4.6813882319   -1.8218903849
 H   -0.1924926074   -4.6438790146   -3.4949956836