16

 C   -0.0787244651    1.6245925222    0.1227131938
 C    0.0421657950    0.0880155294    0.0324743909
 C    0.7672317084   -0.3585814319   -1.2643004908
 C   -0.0486178328   -0.0398080341   -2.5013621399
 O    0.3741733068    0.5208953988   -3.4764239857
 C    0.7145228483   -0.4545717761    1.2051254716
 C    1.2858990360   -0.8973199412    2.1736870585
 C    1.9277130181   -1.3982367001    3.2696471266
 N    2.4736137243   -1.8250987426    4.2020797404
 H    0.9117349448    2.0871719749    0.1450729707
 H   -0.6177122372    2.0119007931   -0.7468184269
 H   -0.6183504364    1.9204954669    1.0250243953
 H   -0.9723792908   -0.3370295242    0.0126764615
 H    1.7510152194    0.1098141014   -1.3497583199
 H    0.9072291783   -1.4473473391   -1.2388727040
 H   -1.1083817070   -0.3870264672   -2.4503819622