18

 C    0.0515822367    1.5312427948    0.0852842114
 C    0.0739521017    0.0011831178    0.0504029767
 C    0.6914274158   -0.5441406762   -1.2437278569
 N    2.1016821503   -0.1397194716   -1.3830619675
 C    2.7602362920   -1.1914379422   -1.6248348506
 O    2.1232250747   -2.3847020733   -1.7097249312
 C    0.7524409364   -2.1176372148   -1.3769275558
 C    0.3676397035   -2.8754637177   -0.1170810672
 O    1.1476146003   -3.3901236409    0.6369485017
 H    1.0629704917    1.9331692300   -0.0077375671
 H   -0.5477314913    1.9357288015   -0.7380407809
 H   -0.3819610526    1.8919663712    1.0224959939
 H    0.6421778122   -0.3841511618    0.9052390965
 H   -0.9487224494   -0.3851212334    0.1470451750
 H    0.1340411572   -0.1297815774   -2.0932480439
 H    3.8304209803   -1.2463503918   -1.7878242979
 H    0.1178375386   -2.4735636984   -2.1964512826
 H   -0.7317614881   -2.9131722156    0.0577578165