14

 N   -0.2425065497    1.3747472180    0.2901475397
 C   -0.0528272886    0.1870854678   -0.0756343089
 C   -1.1124913400   -0.8747651814    0.0108168326
 N   -1.5652328389   -1.3345256428   -1.2986022175
 C   -0.7227796902   -1.9124889391   -2.0438057651
 N    0.6376848316   -2.1215216664   -1.8127466483
 C    1.5776417797   -1.3929976118   -1.0965585041
 O    2.7237816410   -1.7387574464   -1.0311575708
 O    1.1953530571   -0.2006828335   -0.5567650461
 H    0.5950816587    1.9426456311    0.1494791688
 H   -0.7220826804   -1.7239333339    0.5936702901
 H   -1.9559268878   -0.4438460228    0.5483216235
 H   -1.0570109067   -2.3484739048   -2.9853467116
 H    1.0840349441   -2.8588767942   -2.3405384023