17

 O   -0.0364473602    0.0001893795    0.1273034492
 C   -0.0363485410    1.1985357930    0.0025260727
 C   -1.2675226182    2.0633180387   -0.1801851130
 O   -1.2804430092    3.1415060991    0.7786247661
 C   -0.8198298352    3.4244166022   -0.5428496033
 C    0.6980405635    3.4889047374   -0.6349093319
 C    1.4128798468    4.2098192133    0.5481055548
 C    1.6823580793    2.8309609337    1.2168983240
 C    1.1825716993    2.1143057660   -0.0854429938
 H   -2.2292929111    1.6272962910   -0.4314067204
 H   -1.4517859631    4.0980729052   -1.1165499508
 H    1.0124931525    3.7651024211   -1.6439696930
 H    2.3275123457    4.7170661296    0.2333392497
 H    0.8000162695    4.9101725152    1.1184170233
 H    2.7204734247    2.6209485038    1.4804537970
 H    1.0505858698    2.6367886702    2.0839850803
 H    1.9782579169    1.6182257810   -0.6421375010