25

 C    0.3810878641    1.5031898131   -0.1292070829
 C    0.6490275592    0.0205370981    0.0702520446
 O    0.6794787257   -0.5990321738   -1.2033339797
 C    0.8974835009   -2.0090904675   -1.2022748279
 C   -0.2907941878   -2.7071050857   -1.8691059294
 C   -1.6081911379   -2.5126712736   -1.1160275270
 C    2.2194019732   -2.3000070401   -1.9336179762
 C    3.4152935167   -1.5766464805   -1.3183880030
 O    2.3912574206   -3.7154194395   -1.8862257866
 H    1.1685659928    1.9586180741   -0.7368022954
 H   -0.5738498951    1.6548140891   -0.6405965778
 H    0.3452594513    2.0175700604    0.8359151604
 H    1.6056563127   -0.1271878588    0.5960744343
 H   -0.1373038728   -0.4294450356    0.6963363712
 H    1.0004809221   -2.3748461984   -0.1690126015
 H   -0.3861290893   -2.3103723540   -2.8881436255
 H   -0.0525438796   -3.7705389282   -1.9617977031
 H   -1.8554102781   -1.4503293772   -1.0319044005
 H   -2.4344192232   -3.0088684271   -1.6344455870
 H   -1.5552712724   -2.9299297415   -0.1037469744
 H    2.0982887389   -1.9642209839   -2.9771063339
 H    4.3308064758   -1.8052059462   -1.8769028658
 H    3.2686060705   -0.4943412665   -1.3465564372
 H    3.5652652709   -1.8928248641   -0.2807054616
 H    3.2215863107   -3.9276079824   -2.3229557241