10

 C    0.0969128170   -1.1522397768   -0.0049016027
 C    0.0045850253    0.0466975801    0.0027807309
 C   -0.0982484074    1.4530590548    0.0117214826
 N   -1.1736909658    2.1883332131    0.0303090127
 C   -0.7043695486    3.4879706600    0.0309516946
 C    0.6519457636    3.4723513155    0.0125589221
 O    1.0598778029    2.1758242674    0.0000784343
 H    0.1718832490   -2.2117179091   -0.0115996499
 H   -1.3728989773    4.3337530902    0.0445529313
 H    1.4244525512    4.2217993746    0.0061844341