21

 C   -0.0353947730    1.5238372527    0.0654910538
 C    0.0614102685   -0.0016694164   -0.0490937813
 C    0.7569631317   -0.4643239144   -1.3044693543
 C    0.3198648366   -0.2585205932   -2.7903609945
 C    1.6297722302   -1.0890543253   -2.8596378686
 C    2.2116136138   -0.1378105774   -1.7791345031
 C    1.0426138579   -1.9654072640   -1.7015513420
 C    1.9199640471   -2.7682287499   -0.8754215937
 C    2.6269448631   -3.4504090267   -0.1801687109
 H    0.9582685971    1.9836740813    0.0691511895
 H   -0.5965636558    1.9507281483   -0.7723956920
 H   -0.5422552408    1.8162804722    0.9899337435
 H    0.6001536421   -0.4071578820    0.8168748576
 H   -0.9446641615   -0.4406364041   -0.0185012370
 H   -0.6020792393   -0.7562712438   -3.1062522273
 H    0.3763744601    0.7623478381   -3.1759024923
 H    2.1313279583   -1.4638212154   -3.7519637583
 H    2.3981613812    0.8917641816   -2.0955229465
 H    3.0267372489   -0.5260876515   -1.1657686511
 H    0.1453348762   -2.5307313358   -1.9766196231
 H    3.2552756176   -4.0524150143    0.4281694314