14

 O    0.0790997965    1.3904340709    0.0806815213
 C    0.0597340147    0.0508086162   -0.0425276692
 C   -0.0013882541   -0.6883296413   -1.1750750022
 O    0.0040772482   -2.0229428318   -0.7747036126
 C    0.0674809524   -1.9697350238    0.5529132225
 N    0.0916896149   -3.1207917130    1.3025225130
 C    0.0571593180   -4.4454558128    0.9039383831
 N   -0.0061382526   -4.8228601538   -0.3058188887
 N    0.1040348166   -0.7704104644    1.0680570934
 H    0.1257557702    1.5803509669    1.0251449803
 H   -0.0495070448   -0.4958485226   -2.2291999380
 H    0.1409070040   -2.9357637070    2.2913295573
 H    0.0925312845   -5.1014871177    1.7817189273
 H   -0.0198474484   -5.8394809858   -0.3503728676