23

 C    0.0388613807    1.5779758829   -0.0605132087
 C    0.0784775834    0.0490759026    0.0342594955
 C    0.6828149753   -0.4987661883    1.3408900985
 C   -0.1742454823   -0.1567239006    2.5685370437
 C    0.8973031136   -2.0104901095    1.2420025277
 C    1.9762642657   -2.5690962522    0.2337257866
 C    2.6802146493   -3.2272344138    1.4257396462
 O    3.0235445441   -2.1819695676    2.3443815503
 C    1.6871098945   -2.7003997963    2.3733312889
 H    1.0401084342    2.0058882194    0.0629821991
 H   -0.3412721289    1.8994459681   -1.0353805377
 H   -0.6071240530    2.0210473955    0.7036236871
 H   -0.9378439183   -0.3527505950   -0.0852869047
 H    0.6573055292   -0.3400418617   -0.8127242759
 H    1.6735722976   -0.0445273553    1.4769815716
 H    0.2773986670   -0.5449226018    3.4869097993
 H   -0.2886778174    0.9234324855    2.6948468542
 H   -1.1786645087   -0.5894187616    2.4797923714
 H   -0.0607840067   -2.5206311517    1.0844034742
 H    1.5601438025   -3.2828080093   -0.4809021507
 H    2.5796043850   -1.8289402370   -0.2983798807
 H    3.2804993635   -4.1289799515    1.4589027785
 H    1.3331321395   -3.0937196910    3.3196247157