18

 C   -1.1668057298    1.2008497650   -0.1994718703
 N   -0.2925599573    0.0369277912   -0.0145554318
 C   -0.1271242228   -0.3881557204    1.3587942303
 N    0.6730062025   -1.4556644623    1.5444216151
 O   -0.6927278208    0.2095268450    2.2528747826
 C    0.3017580244   -0.5673444246   -1.1058721927
 O    1.0423144196   -1.5400413109   -1.0349421814
 C   -0.0022902531    0.0391582257   -2.4884341983
 N    0.6503730372   -0.6350308551   -3.5941440302
 H   -0.6259475548    2.0357125682   -0.6532127222
 H   -2.0299080945    0.9539709685   -0.8234866265
 H   -1.5122451874    1.4938349489    0.7888567772
 H    1.1126494406   -1.9046746880    0.7508802602
 H    0.7959803349   -1.7603658810    2.4939773582
 H   -1.0868085485    0.0322994116   -2.6501347489
 H    0.2889846161    1.0962182165   -2.4866965825
 H    1.6534996188   -0.6388262053   -3.4289846072
 H    0.3907019351   -1.6178061730   -3.5772645613