17

 C    0.0297091446    1.4249313948    0.5281565211
 C    0.0044771015    0.0312586045    0.1081391630
 C   -0.0191849006   -1.1205064586   -0.2373385389
 C   -0.0408045858   -2.5228218390   -0.6601653148
 C   -1.3643243298   -3.1451737649   -0.5713585587
 C   -2.4461707192   -3.6633494969   -0.4984682250
 C   -3.7689851684   -4.2851986483   -0.4116371175
 C   -3.7899238220   -5.5135873602    0.3854401574
 C   -3.8198087519   -6.5222867456    1.0356544880
 H    0.7179444826    1.5761746806    1.3670210683
 H    0.3514518532    2.0817911674   -0.2874904603
 H   -0.9628728445    1.7585997240    0.8501229602
 H    0.3284388625   -2.6010311234   -1.6924716576
 H    0.6688361235   -3.1011445086   -0.0518214797
 H   -4.4826240455   -3.5662609069    0.0142212995
 H   -4.1402586884   -4.5045556430   -1.4223411820
 H   -3.8410474617   -7.4134000359    1.6124918873