17

 C    0.0920802039    1.4414229707    0.0985234874
 C   -0.0784869509   -0.0371956306   -0.2311405669
 N   -1.3913387354   -0.5099559838    0.2177063290
 C   -1.7008485408   -1.8520331065    0.0900178916
 C   -2.8554867828   -2.5216482466   -0.2008409401
 C   -2.5415827281   -3.9168340296   -0.0622373901
 C   -1.2352570847   -3.9900463214    0.2835541714
 O   -0.7054254245   -2.7243658075    0.3849728344
 H    1.0794710151    1.7917908253   -0.2150229926
 H   -0.6554333202    2.0531212722   -0.4203385993
 H   -0.0158764147    1.6140879316    1.1730602283
 H    0.0699719138   -0.2049748133   -1.3106393684
 H    0.6797030528   -0.6288316538    0.2879598673
 H   -2.1486426044    0.0702994571   -0.1178313065
 H   -3.8002969018   -2.0834199399   -0.4794639981
 H   -3.2099734591   -4.7502903293   -0.2135541587
 H   -0.5470179582   -4.7946226145    0.4758587713