19

 C    0.0257006299    1.4818747222   -0.1207703252
 C    0.0288128152   -0.0150180195    0.0746887739
 N    1.3484046146   -0.6946106414   -0.0306010645
 C    0.6379944341   -0.6837371615    1.2407532730
 C    1.0952868799   -0.0876049465    2.5500593516
 C    0.0898914034   -0.8869741992    3.2955897463
 C    0.0629869165   -1.8571819673    2.0473973084
 C    1.3392554160   -2.4604883515    2.6630660339
 N    1.5311529089   -1.2050497108    3.4689447982
 H    0.9162192346    1.9312244326    0.3258383230
 H    0.0225538337    1.7326024159   -1.1868812773
 H   -0.8607334836    1.9354838183    0.3359049614
 H   -0.8190817897   -0.5335864248   -0.3733938367
 H    1.2536881742   -1.5989886639   -0.4886362016
 H    1.4992148121    0.8923374232    2.7628106548
 H   -0.5999210278   -0.6501311830    4.0940751494
 H   -0.7647500441   -2.4545784731    1.6678741573
 H    1.1463271515   -3.2824231616    3.3566881150
 H    2.1660005307   -2.7180332581    1.9909380191