18

 C   -0.0548340729    1.4971372428   -0.2131123454
 C    1.3512159295    1.9868931277    0.0922668403
 C    2.1109064300    1.6511835033    1.3272956972
 C    1.5834383564    0.7731798266    2.4502299217
 C    1.0421704446   -0.4814433818    1.7552807226
 O   -0.3512693357   -0.3569252370    1.3991859975
 C   -0.0142512055   -0.0146076691    0.0378558302
 C    1.4863541740   -0.3508080099    0.2704907289
 N    2.3241928007    0.8527648515    0.0822787254
 H   -0.8347111194    1.9639709350    0.3956321938
 H   -0.2779647358    1.7077488001   -1.2648335435
 H    1.6835726419    2.8690675241   -0.4500467867
 H    2.9326197249    2.3171094739    1.5805277903
 H    2.4160060959    0.5172764413    3.1147643420
 H    0.8017532878    1.2408111705    3.0560362445
 H    1.2287006615   -1.4097961488    2.3017429886
 H   -0.6016072874   -0.6009776472   -0.6737876770
 H    1.9118041595   -1.2197849530   -0.2274195905