18

 C    0.8416892512   -0.4791165298    1.3287399193
 C    0.0992606704   -0.0351896070    0.0625229235
 C   -1.3271661692   -0.5939235004   -0.0230621870
 C   -2.1539449312   -0.0441779225    1.0526853241
 N   -2.7301560387    0.4401187977    1.9300551197
 C   -2.0977292989   -0.7388699396   -1.3845426796
 C   -1.1875419419   -1.9200830007   -1.7960835274
 C   -1.6306400351   -2.1070221781   -0.3267511008
 O   -2.9963669270   -1.7126094298   -0.7308567620
 H    1.8390826202   -0.0323864944    1.3640838070
 H    0.3028179064   -0.1742167436    2.2302953494
 H    0.9616645903   -1.5672794802    1.3584534394
 H    0.0349038638    1.0585775928    0.0364844872
 H    0.6669398171   -0.3317117412   -0.8225849338
 H   -2.5532661303    0.0466625772   -1.9866159707
 H   -1.6614354408   -2.6161906417   -2.4871036134
 H   -0.1377091388   -1.7449000757   -2.0307584573
 H   -1.5281079275   -2.9631727328    0.3389107422