16

 N    0.1106330800    1.5143082677    0.0217615237
 C    0.0734969738    0.0689368050    0.0110616128
 C   -1.3052058602   -0.6552778013    0.1510491556
 C   -2.5308971553    0.2490016635    0.1191036055
 C   -3.7777709978   -0.5019954280   -0.0038319836
 N   -4.7619011789   -1.1007130463   -0.0902706038
 O   -1.0746119910   -1.3194124128   -1.1345687045
 C    0.0791513755   -0.5994598525   -1.3523215671
 N    0.8203091021   -0.4935115020   -2.3559696478
 H    0.7226965681    1.8674644488    0.7460987861
 H    0.4615974798    1.8558526913   -0.8664816346
 H    0.8129491547   -0.3841568489    0.6799168297
 H   -1.3780280349   -1.4019482938    0.9451114456
 H   -2.5534816053    0.8421132968    1.0401305986
 H   -2.4429575937    0.9635526198   -0.7043422086
 H    0.4940757431   -1.0643818774   -3.1371540076