15

 O    0.0709435619    1.4519170731    0.4513696678
 C   -0.0620260591    0.1493888495   -0.0120300506
 C   -0.4425332912   -0.8718150101    0.9895669044
 O   -0.6492371904   -0.4705429391    2.2824061819
 C   -1.4690111485   -0.4629040028   -0.1495222671
 C   -2.6212284743    0.3448054410    0.2057252538
 O   -2.5886536064    1.3619145316    0.8933493842
 C   -3.9889446100   -0.1037352057   -0.3178342446
 O   -4.1524876535   -1.0505821902   -1.0402590554
 H   -0.8236993994    1.7955489000    0.6391704672
 H    0.6461241610   -0.0940086385   -0.7987339900
 H   -0.0984650811   -1.8971548121    0.9009940518
 H   -0.3546341421    0.4522541072    2.3357341209
 H   -1.6377488216   -1.2111804456   -0.9135552929
 H   -4.8129303052    0.5502341819    0.0357787384