17

 C   -0.2484109627    1.5161270468   -0.0861966642
 C   -0.0043949948    0.0471423232    0.0118084551
 N    0.0298824040   -0.7283847477   -1.0380039786
 O    0.2718784354   -1.9886091800   -0.5725821136
 N    0.3902348433   -1.9970880135    0.7906625804
 C    0.2246536231   -0.7587984877    1.1765723722
 C    0.2766376069   -0.3301808196    2.5845489541
 C   -0.2442591894   -1.2440264926    3.6799377574
 C    1.2286737235   -1.0085939958    3.5538897021
 H    0.5932096046    2.0834077946    0.3248010025
 H   -0.3836631561    1.8032006342   -1.1301862889
 H   -1.1443736243    1.8047035226    0.4732815301
 H    0.1185401948    0.7331720990    2.7245903673
 H   -0.7780186509   -0.7820879227    4.5027382495
 H   -0.6327287796   -2.2037218465    3.3596363424
 H    1.8363272840   -1.8091355396    3.1484217608
 H    1.7217536483   -0.3825629948    4.2889078115