14

 C   -0.0053497174    1.4790263538    0.0173801051
 C    0.0140701949    0.0255397925    0.0110171981
 C    0.0439991160   -1.1773191294    0.0072085249
 C    0.0164312550   -2.6498378414   -0.0041814197
 N   -1.3240282725   -3.2492561332   -0.1481476054
 C    0.8501568613   -3.1421252313   -1.1318000028
 N    1.4800486488   -3.4987677463   -2.0303606776
 C    0.5988093073   -3.1559658198    1.2661095198
 N    1.0291401008   -3.5235765972    2.2716176544
 H    0.5961762123    1.8795022914   -0.8049963503
 H   -1.0257862120    1.8602076879   -0.0930174341
 H    0.4018653677    1.8692181518    0.9556997248
 H   -1.9057028255   -2.9129093334    0.6152792728
 H   -1.7351604066   -2.9035249454   -1.0117072900