23

 C    0.0259387238    1.5620638249   -0.3822833837
 C    0.0487733107    0.0320710465   -0.3377590689
 C   -1.2660353830   -0.5650234668    0.1699750045
 O   -2.3351140959   -0.1004971432   -0.6701339880
 C   -3.1210402360   -1.1979577990   -1.1203629428
 C   -2.1718474265   -2.3973224617   -1.1229585554
 C   -1.3472567693   -2.0976883992    0.1194550053
 C   -0.2559918078   -3.0004949049    0.6164345462
 C   -1.5562832786   -2.9012985791    1.3796341018
 H    0.9713713681    1.9601859363   -0.7632193304
 H   -0.7827296425    1.9138353358   -1.0274714007
 H   -0.1356773378    1.9834024856    0.6166351803
 H    0.2541801001   -0.3707602184   -1.3372922772
 H    0.8621447785   -0.3096502171    0.3141824707
 H   -1.4469406118   -0.2055063630    1.1953721238
 H   -3.9680317306   -1.3761602288   -0.4386257926
 H   -3.5226974462   -0.9435574341   -2.1058896737
 H   -2.6882925888   -3.3596525164   -1.0761070409
 H   -1.5474649829   -2.3855643789   -2.0241982755
 H   -0.0541452866   -3.9099538627    0.0595514532
 H    0.6274349369   -2.5516068827    1.0584087830
 H   -1.5466298424   -2.3742448487    2.3286528488
 H   -2.2385915314   -3.7448355541    1.3454837022