18

 C    0.0019514271    1.5981812464    0.1748876784
 C   -0.0212978014    0.0882536311   -0.1246094916
 C   -1.3914717564   -0.5129754798   -0.0692361745
 C   -2.1095975374   -1.0871461314   -1.0296622305
 C   -3.4258274115   -1.5721408558   -0.5029386844
 O   -3.4608752016   -1.1346459582    0.8607479318
 C   -2.2086379198   -0.5757032434    1.2166276771
 C   -1.5311584675   -1.4001411767    2.2460719695
 N   -0.9779184464   -2.0295810303    3.0417158923
 H    1.0221543735    1.9851514401    0.1015618010
 H   -0.6238289195    2.1492785926   -0.5336487314
 H   -0.3599872320    1.8155781606    1.1847073438
 H    0.4052935915   -0.0979037615   -1.1155146735
 H    0.6251289076   -0.4283813638    0.5971932481
 H   -1.8031010760   -1.2149736254   -2.0604516950
 H   -4.2886209154   -1.1421151089   -1.0299038084
 H   -3.5206742788   -2.6677202021   -0.5521700912
 H   -2.3743248259    0.4178174664    1.6579520787