16

 C   -0.1625005056   -1.2506881962   -0.2857946548
 C   -0.0727115807   -0.0634151184   -0.1219142353
 C    0.0148171178    1.3718890057    0.0639990281
 C   -0.1840592251    2.0055363963    1.4967286295
 C    1.1388946450    2.7584894714    1.3184535541
 C    2.2839165113    1.7804456759    1.1613608496
 C    2.3485048754    0.5315494728    1.8760971698
 N    2.4226491193   -0.4480630426    2.4865545724
 C    1.3834687486    2.0756635391   -0.0205212426
 H   -0.2219156640   -2.3036006226   -0.4106207367
 H   -0.6696424263    1.8691626196   -0.6304294966
 H   -1.0576941718    2.6566253706    1.5391433041
 H   -0.2170310296    1.2982823370    2.3278031795
 H    1.3325608204    3.7819640027    1.6134773815
 H    3.2542542269    2.2606883962    1.0705695638
 H    1.8170981885    2.4672169824   -0.9326727563