19

 C   -0.0816104593    1.4283568151   -0.0169870110
 C    0.0228701475   -0.0740246435   -0.1025283678
 C    0.8020284325   -0.7053219792   -1.1905648800
 N    1.3544812447   -0.6194348101    0.2297469590
 C    1.1836299071   -2.1150338397    0.3378395656
 C    0.7129267862   -2.2093180018   -1.1182718285
 C   -0.2783327604   -3.1300881709   -1.7684073791
 C    1.1856934338   -3.1849964279   -2.1501065256
 H    0.8264773541    1.8995174835   -0.4034587060
 H   -0.9361264354    1.7929328588   -0.5969966838
 H   -0.2104277929    1.7502077703    1.0214756156
 H   -0.8427230364   -0.6210481022    0.2739699010
 H    1.2381626371   -0.1336697276   -2.0058292265
 H    2.1503066520   -2.5901957349    0.5245359883
 H    0.4747233934   -2.4175275438    1.1176409022
 H   -0.6811987612   -3.9452681502   -1.1756200028
 H   -0.9790362822   -2.7094234080   -2.4826360536
 H    1.4731944429   -2.8008633484   -3.1239890195
 H    1.7719875866   -4.0364077594   -1.8180548275