15

 C   -0.0809537874    1.5430169909    0.0184348264
 C   -0.0243243305    0.0260441334    0.0053780107
 C    1.2258893453   -0.6660502630   -0.6321326014
 O    2.0354883364   -0.1952022468    0.5320541116
 C    0.7686892552   -0.7018916604    1.1407681220
 C    0.9073709032   -1.8905838880    0.2148079639
 N    0.8550417203   -3.1450122106    0.2727959428
 O    1.1531706230   -3.7294739125   -0.9780420469
 H    0.8926192370    1.9624997931    0.2775633395
 H   -0.3782100249    1.9244708602   -0.9638106583
 H   -0.8199443362    1.8936544846    0.7462078661
 H   -0.9838128552   -0.4356620318   -0.2496010839
 H    1.6575270873   -0.5752106445   -1.6257937501
 H    0.6645489689   -0.6508222128    2.2225157340
 H    1.0926332276   -4.6693965320   -0.7758329464