25

 C    0.4031738351    1.5209253589    0.2649051262
 C   -0.1331780222    0.0944334444    0.0327258683
 C   -1.6667927244    0.1311119415    0.1866750164
 C    0.2690726689   -0.3301309897   -1.4056806909
 C   -0.2456221054   -1.6981702637   -1.8862694370
 C    0.6066886101   -2.8977789209   -1.4344107031
 O    1.2059852594   -2.7709996468   -0.1591754433
 C    0.3596398032   -2.3371199010    0.8926617199
 C    0.4843252738   -0.8269272926    1.1117893189
 H    1.4876716831    1.5641281461    0.1159367340
 H   -0.0593593825    2.2340048608   -0.4266060472
 H    0.1922150655    1.8612129687    1.2847379899
 H   -2.1289091845    0.7247732179   -0.6100492370
 H   -2.1200099330   -0.8640200636    0.1621655050
 H   -1.9422294923    0.5876152958    1.1437050529
 H   -0.1076699988    0.4414468790   -2.0889163051
 H    1.3629370775   -0.3052016406   -1.4897818748
 H   -1.2859887198   -1.8335543169   -1.5740994669
 H   -0.2687666642   -1.7153356993   -2.9825937616
 H   -0.0014097369   -3.8167313250   -1.4847697739
 H    1.4513519901   -3.0311625401   -2.1192110841
 H   -0.6816792394   -2.6475818831    0.7208345362
 H    0.6997992988   -2.8561965916    1.7967576421
 H    1.5580221387   -0.6163563454    1.1931026931
 H    0.0429334495   -0.5741240526    2.0857083819