17

 C   -0.1551062712    1.6051620723   -0.0227694389
 C   -0.0315343525    0.0890787539    0.0069353787
 C    1.1808036539   -0.5955765489   -0.6659556876
 C    2.1396513314   -0.2947040126    0.5416829948
 C    2.5838830407   -1.7666626559    0.6503875375
 C    1.0899109346   -1.8406970781    0.2822633954
 C    0.7296010674   -0.5965055119    1.1653647563
 H    0.7963193293    2.0935618190    0.2121183853
 H   -0.4739911153    1.9550556071   -1.0110649631
 H   -0.8970307726    1.9541974263    0.7042519124
 H   -0.9938829739   -0.3836772117   -0.2304065092
 H    1.4667786413   -0.6144439011   -1.7202199582
 H    2.7345137035    0.6075688245    0.6887036212
 H    3.2960869846   -2.1238823353   -0.1009461537
 H    2.8656130761   -2.1247693439    1.6462441238
 H    0.4558288351   -2.7154265426    0.1255925418
 H    0.4930773376   -0.6164529411    2.2317926933