16

 O   -0.1536923739    1.3342072205   -0.1518168072
 N    0.0388001435   -0.0497963090   -0.0468754124
 C   -1.0694082995   -0.6576088854    0.0628335907
 C   -1.2074959670   -2.1584421608    0.1693480519
 C   -2.7093657869   -2.3277192752    0.4987315777
 N   -3.4032047204   -1.1685395942   -0.0938676444
 C   -2.4767179102   -0.0366605296    0.0537657491
 C   -2.7379967545    0.6871563754    1.3113570949
 N   -2.9430815711    1.2366110546    2.3065515725
 H    0.7477906047    1.6716623250   -0.1913832998
 H   -0.9672882279   -2.6267851198   -0.7926759567
 H   -0.5367533238   -2.5841480265    0.9192689825
 H   -3.1372534512   -3.2568268427    0.1186737581
 H   -2.8653318450   -2.3067221490    1.5828808724
 H   -3.5480408753   -1.3295216625   -1.0853275422
 H   -2.5803150216    0.6776594093   -0.7680807071