21

 C   -0.0051949060    1.5802853081    0.2866491738
 C   -0.0047590787    0.0757434433   -0.0053284390
 C    0.7553463517   -0.3637223404   -1.2733752973
 C    2.2113391476    0.1356825167   -1.3054293614
 C    0.7397240693   -1.9297547830   -1.3201462585
 C    1.3733169878   -2.5285677678   -2.4896532335
 C    1.8995611831   -3.0238645131   -3.4505734187
 C    0.0468178995    0.1215695831   -2.5370462607
 O   -1.0488385151    0.6220880864   -2.5679672492
 H    1.0024259172    1.9637548254    0.4740165512
 H   -0.4414883919    2.1427436464   -0.5421146677
 H   -0.6028305561    1.7869096215    1.1797743664
 H    0.4265183158   -0.4596767740    0.8503320110
 H   -1.0416690568   -0.2647345255   -0.0991767406
 H    2.7454261120   -0.1990017420   -0.4096861128
 H    2.7407387843   -0.2581034517   -2.1776492444
 H    2.2633970417    1.2270013004   -1.3402637224
 H    1.2424511415   -2.2916157268   -0.4139031815
 H   -0.3002035363   -2.2727763663   -1.2537209770
 H    2.3576086817   -3.4679922190   -4.2995269525
 H    0.6263922076   -0.0388829616   -3.4726764053