19

 O   -0.5980990019    0.7271614867    1.2515285792
 C   -0.2502926991    1.3578154626    0.2797812498
 C   -1.2317416666    1.6970375028   -0.8345218412
 C   -1.5839048530    3.1606961795   -0.9680811840
 C   -0.9072186072    4.2481540232   -0.5924141673
 C    0.4050110621    4.4095556556    0.0814383204
 C    0.6295216025    4.0016966287    1.5366038282
 C    1.3848531228    3.3132152686    0.4352513499
 C    1.1837995380    1.8386460724    0.1151125384
 H   -0.8161396251    1.3361742273   -1.7880879025
 H   -2.1426024284    1.1212708622   -0.6450446153
 H   -2.5464729860    3.3255955684   -1.4467410420
 H   -1.3887137337    5.2012423569   -0.8057722064
 H    0.8812338469    5.3499954705   -0.1830010649
 H    1.1563521075    4.6875006116    2.1909251088
 H   -0.1718469242    3.4488103126    2.0148108872
 H    2.4254194225    3.6085996916    0.3290919764
 H    1.8040000161    1.2388717665    0.7880345887
 H    1.5097032967    1.6496841822   -0.9158073035