15

 C   -0.1810536258    1.3907668275    0.0718975903
 C   -0.1914732207   -0.0711429218   -0.2639923180
 N   -0.1688395253   -1.0205841573    0.5998492468
 O   -0.1274717779   -0.5440373939    1.8950836605
 C   -0.2508075844   -0.4991043401   -1.6826817730
 N   -0.3395512782    0.3488068551   -2.6172243258
 O   -0.3120262195   -1.8592407118   -1.9368550138
 C    0.6440555703   -2.7095485307   -1.4429945783
 O    0.5345808341   -3.8881874230   -1.5536760963
 H   -0.1769084834    1.9892343525   -0.8364602909
 H   -1.0610103010    1.6388356946    0.6739699632
 H    0.6954443180    1.6268449243    0.6832348260
 H   -0.1326939922   -1.3525521006    2.4213655321
 H   -0.3928747463   -0.1221250455   -3.5216816394
 H    1.5034172824   -2.1826555393   -1.0055479334