27

 C    0.6519689981    1.4561214314    0.0685370662
 O    0.3493846184    0.0868135407   -0.0473006537
 C    0.7258942567   -0.5107896472   -1.2866954582
 C    2.2359648013   -0.7737434031   -1.3373289213
 C   -0.0669247121   -1.8168742069   -1.4195649787
 C   -1.5587044828   -1.7416752815   -1.8364545321
 C   -1.6964283031   -1.1701356775   -3.2605912140
 C   -2.1072810080   -3.1824073105   -1.8320161413
 C   -2.3932530119   -0.8931355157   -0.8598461475
 H    1.7335332946    1.6562513232    0.0734533212
 H    0.1994641554    2.0447225367   -0.7457040460
 H    0.2360177770    1.7983025171    1.0198958609
 H    0.4627369545    0.1786683457   -2.1056020966
 H    2.5228750384   -1.4890536929   -0.5596359026
 H    2.5219122631   -1.1862624558   -2.3099679658
 H    2.8112182041    0.1440485995   -1.1859628548
 H    0.4509352979   -2.4523800612   -2.1491937637
 H    0.0107643893   -2.3304861699   -0.4526061822
 H   -1.1170975496   -1.7568294595   -3.9828751033
 H   -2.7433124965   -1.1871779201   -3.5829865692
 H   -1.3557284868   -0.1316243700   -3.3214986318
 H   -2.0418233418   -3.6269754625   -0.8328174377
 H   -3.1591448398   -3.2016131665   -2.1376609358
 H   -1.5476364270   -3.8250072142   -2.5212598547
 H   -2.0835764834    0.1540986399   -0.8645135190
 H   -3.4540503537   -0.9363869740   -1.1330500073
 H   -2.2924382222   -1.2571885752    0.1673177491