15

 N    0.0445631202    1.3083222308   -0.1985039997
 C   -0.0245398290   -0.0376155657   -0.0934565445
 C   -1.1441021893   -0.8041947691   -0.0439163628
 C   -0.9955451809   -2.2291508190    0.0146462960
 N   -2.1440965186   -3.0097201544    0.1152927755
 N    0.1324480820   -2.8750494205    0.0240352617
 O    1.2964235997   -2.0643950008    0.0454588716
 C    1.2836421770   -0.7148684451   -0.0320298882
 N    2.3539169904   -0.0200120589   -0.0326819396
 H    0.9633158032    1.7092698459   -0.0756063314
 H   -0.7698008473    1.8781605669   -0.0525349798
 H   -2.1379206956   -0.3711622953   -0.0379797368
 H   -2.9047915166   -2.7032327270   -0.4756526714
 H   -1.9469715890   -3.9952754638   -0.0047019495
 H    3.1794499239   -0.6154511141    0.0254105689