19

 C   -0.0829682212    1.4508120015   -0.0484603210
 C   -0.0478925224   -0.0552601305   -0.0330192686
 C    0.5785222390   -0.8793938766   -1.2238515513
 C   -0.2216318285   -2.0125820970   -0.5779115429
 C    0.4428688362   -2.7679067982    0.3236817179
 C    0.2026167220   -2.2205157743    1.7186834965
 C   -0.3694765240   -0.8382094517    1.3250590271
 O   -0.7512999528    0.0317918035    2.3451197720
 C   -1.1940288208   -1.0343586711    0.0955135088
 H    0.9253109928    1.8671796703    0.0598067025
 H   -0.4946840697    1.8179441886   -0.9957732545
 H   -0.6942644133    1.8322413071    0.7713833467
 H    0.1928438024   -0.4672087416   -2.1648718038
 H    1.6639411301   -1.0069944565   -1.2851470700
 H    1.3976639289   -3.2274876517    0.0817757956
 H   -0.5163793734   -2.7449550596    2.3683106997
 H    1.1522695625   -2.1797533483    2.2658519275
 H   -1.4760839091   -0.3787179374    2.8307994337
 H   -2.2598784088   -0.9084365264   -0.0501229860