21

 C    0.1839702089    1.0768883354    0.4354902851
 C   -0.2264781312   -0.1059088739   -0.4451419289
 C   -1.4548801265   -0.8263234431    0.0905849015
 O   -1.7599223823   -1.9061879339   -0.7848974114
 C   -2.8663790034   -2.6416279561   -0.3945332240
 C   -2.8678077669   -4.1322695573   -0.5799121004
 C   -1.4954270113   -4.6710590358   -0.1818396382
 O   -1.5496043162   -4.0000507660    1.1074197603
 C   -2.8616087175   -3.5244847888    0.8217567190
 H    1.0721427753    1.5748647014    0.0360973890
 H   -0.6147189668    1.8243216423    0.4990824112
 H    0.4156342725    0.7524956422    1.4559440375
 H   -0.4360936935    0.2338200158   -1.4659740044
 H    0.5942484537   -0.8286533328   -0.5176672401
 H   -1.2690838180   -1.2129051153    1.1027107659
 H   -2.3109192422   -0.1333070566    0.1488649247
 H   -3.8331078908   -2.1694313223   -0.5888682922
 H   -3.6255335611   -4.6699481451   -1.1337351051
 H   -1.4778085770   -5.7568165523   -0.0419407045
 H   -0.6411577859   -4.3453269929   -0.7822231454
 H   -3.5838594599   -3.5060939549    1.6310411806