16

 C   -0.0346252790    1.5798936666   -0.0932979590
 C    0.0118513477    0.0914381439   -0.0213105096
 C    0.5683731675   -1.0158637895   -0.9158038004
 C    1.3785242218   -1.6250725544    0.2244893384
 C    0.3288252514   -0.9473748049    1.1514144656
 O   -0.9002222555   -1.6702673051    0.8728532571
 C   -0.8875140865   -1.0312845259   -0.4063952031
 C    0.5712497374   -0.6624491350    2.5423466167
 N    0.7971608470   -0.3954713233    3.6441012150
 H    0.9499643912    2.0232282686    0.0901433282
 H   -0.3612864938    1.8975321358   -1.0891164190
 H   -0.7355941208    1.9928403878    0.6394658749
 H    0.8213359285   -0.9574195260   -1.9663088453
 H    1.4498144046   -2.7120423531    0.3178638683
 H    2.3602988868   -1.1570065225    0.3197673916
 H   -1.7730981084   -1.0839290328   -1.0247099793