17

 C   -0.1623159445    1.5610946100    0.0277269028
 C    0.1080765531    0.0489100868   -0.0487448304
 C    0.7671919390   -0.5010633135    1.1847050235
 C    2.0839728322   -0.9106820535    1.3026345103
 N    2.3050433973   -1.3226402321    2.5830624969
 C    1.1417401499   -1.1898676422    3.3123051400
 C    0.1749789968   -0.6799436358    2.4607461091
 C    1.0736605039   -1.5487474632    4.6746951933
 N    1.0315486679   -1.8472461918    5.7946630902
 H    0.7704560465    2.1189851567    0.1558854654
 H   -0.6515868209    1.9171806974   -0.8843002086
 H   -0.8111737273    1.8028509406    0.8753828694
 H   -0.8388341802   -0.4765115011   -0.2233513121
 H    0.7392610568   -0.1644040480   -0.9189023578
 H    2.8723615105   -0.9398718598    0.5667408264
 H    3.1708369709   -1.6798115728    2.9493244195
 H   -0.8457087020   -0.4681522076    2.7399127020