18

 C    0.0930469643    1.3475136347    0.0076285289
 O   -0.0402633832   -0.0787849842    0.0009227423
 C   -1.3094592509   -0.5393844792    0.0120795148
 O   -2.2774957011    0.1777897536    0.0265731136
 C   -1.3260906940   -2.0544864780    0.0039391725
 C   -2.7394167378   -2.6330412265    0.0137947296
 C   -2.7373468197   -4.1557023681    0.0059928140
 O   -4.0869942558   -4.5911467229    0.0160166044
 H    1.1648974847    1.5461325725   -0.0026432548
 H   -0.3852421930    1.7849838991   -0.8725254154
 H   -0.3663716052    1.7748836548    0.9026695089
 H   -0.7610075448   -2.3887841252   -0.8753052199
 H   -0.7451801972   -2.3981408514    0.8691827632
 H   -3.2824133017   -2.2798670924    0.8958780374
 H   -3.2983147163   -2.2709587082   -0.8546525221
 H   -2.2051006746   -4.5241021339   -0.8873434914
 H   -2.1890143058   -4.5331428058    0.8857268619
 H   -4.0939823778   -5.5525817589    0.0109068221