17

 C    0.8687726772    1.3373769992    0.0009643512
 O    1.3472962233    0.0012846404   -0.0105373341
 C   -0.1056547504    0.2226785166    0.0042628374
 C   -0.7077448992   -0.1523994506    1.3030798056
 C   -1.8828112760   -0.7429654059    1.5829935030
 C   -2.9390685646   -1.1831761292    0.6985109177
 C   -2.9517398881   -1.1760937172   -0.6513876683
 C   -1.9122284390   -0.7265231004   -1.5508745654
 C   -0.7320566055   -0.1388107533   -1.2868870369
 H    1.0393414075    1.8971604352    0.9215895295
 H    1.0220843107    1.9068057297   -0.9167765249
 H   -0.0587751822    0.0869351150    2.1421420630
 H   -2.0835345591   -0.9089757583    2.6390460073
 H   -3.8209177592   -1.5750598727    1.1985035809
 H   -3.8428579286   -1.5627968752   -1.1388226512
 H   -2.1327566141   -0.8814635815   -2.6046567644
 H   -0.0989280226    0.1093780183   -2.1354262494