15

 O    0.0575301255    0.3891417411    1.0289290175
 C   -0.0704338150    1.4235057343    0.4261964585
 C   -1.1086399931    1.8453618005   -0.6253878656
 N   -0.7397872421    3.1922961357   -1.0662358736
 C    0.2895989472    3.5133878656   -0.3768733887
 N    0.7338139208    2.5578591368    0.5318658314
 C    0.9949170961    4.8107932200   -0.4752691772
 C    1.3180724792    5.5936218468    0.7321648076
 O    2.3220089866    4.8342427789    0.0621765723
 H   -1.1149273617    1.1414564761   -1.4645891379
 H   -2.1158470067    1.8345512977   -0.1933874271
 H    1.6091409026    2.6046820190    1.0295204339
 H    0.8486362967    5.3311767674   -1.4181447677
 H    1.4106415049    6.6743880748    0.6462886006
 H    1.0199977390    5.2204994455    1.7100553558