18

 O   -0.0858197439    1.4145795612    0.0185915481
 C    0.0141679715   -0.0066788137    0.0078449240
 C   -1.4286058388   -0.5398735773    0.0568379282
 C   -1.4868707278   -2.0291049025   -0.2903296600
 C   -0.9562149727   -2.2853663913   -1.7079856272
 C    0.2895793432   -1.4935517939   -1.9985487107
 C    0.7353439660   -0.4994445641   -1.2339226361
 C    0.7688768883   -0.4460385751    1.2103514745
 N    1.3786326214   -0.7719486093    2.1372809731
 H    0.8041990833    1.7852162121    0.0356393461
 H   -1.8546337511   -0.3374239634    1.0426331430
 H   -1.9918053386    0.0513538867   -0.6734209728
 H   -0.8859269067   -2.5929440894    0.4332870725
 H   -2.5144732878   -2.3927194349   -0.1967976238
 H   -0.7551057663   -3.3532407752   -1.8555243655
 H   -1.7215288734   -2.0265938360   -2.4549482408
 H    0.8450961027   -1.7585109912   -2.8952400525
 H    1.6555063605    0.0258730774   -1.4784528101