16

 C    0.0372122711   -3.7794462468    0.0216816898
 C    0.0426387771   -2.5712872371    0.0132476014
 C    0.0459518660   -1.2126497258    0.0019464840
 C    0.0585023976   -0.0006402077   -0.0019287573
 C    0.0372339273    1.4178972305   -0.0619525103
 C   -0.7184626991    2.2647616188   -1.1117563682
 C    0.4415535841    3.3118231534   -1.0720989702
 C    1.1566921022    2.4500521883   -0.0249342924
 N    0.3265402264    2.2103206851    1.1394632054
 H    0.0354071867   -4.8409809834    0.0320739035
 H   -0.7957685982    1.7661438087   -2.0792325717
 H   -1.7146742886    2.5968356743   -0.8033683184
 H    0.9764537029    3.3696564325   -2.0222819217
 H    0.1909042422    4.3269508373   -0.7476545538
 H    2.2242410899    2.2906746774    0.0727176365
 H   -0.3696150877    2.9396446344    1.2909358136