17

 C    0.0687197226    1.3913853947   -0.4382687328
 C   -0.0153422747    0.0384996779    0.2768164522
 O    0.3148711383    0.2127545964    1.6409411345
 C   -1.3740937634   -0.6000866245    0.1262964627
 N   -2.0604665308   -0.9045459166    1.2190688766
 N   -3.2112943203   -1.4647684922    0.7612932428
 C   -3.2494007514   -1.5117219999   -0.5874471671
 O   -4.3368958780   -2.0425447503   -1.1827329343
 C   -2.0732627560   -0.9607280539   -1.0534533893
 H    1.0617306561    1.8227968352   -0.2854873495
 H   -0.1015148107    1.2831224389   -1.5143872743
 H   -0.6765728030    2.0803341031   -0.0305518185
 H    0.7256578345   -0.6367639841   -0.1847506866
 H   -0.3984483102   -0.1904487580    2.1540449380
 H   -3.9162843015   -1.7839815806    1.4032102698
 H   -4.2174525532   -2.0057713187   -2.1367647200
 H   -1.7683446083   -0.8412575174   -2.0801889440