21

 O   -0.1051568952    1.4861996555    0.0283289755
 C    0.0224742462    0.0706571743    0.1080674504
 C   -1.3710161234   -0.5261615608   -0.0076008649
 C   -2.0834043773   -0.2484316073   -1.3757101842
 C   -2.4289215352   -1.6699691322   -1.8819783583
 C   -1.1099700810   -2.3788997377   -2.2251394594
 O   -0.4788436685   -2.5816715438   -0.9435550203
 C   -1.3961758297   -2.0701336237    0.0392274167
 C   -2.7687260037   -2.3976412542   -0.5620645558
 H    0.7785791058    1.8646689718    0.0178073916
 H    0.6597923930   -0.3230527460   -0.6956739725
 H    0.4781334249   -0.2313120395    1.0655221137
 H   -1.9719648759   -0.1303873254    0.8193576613
 H   -2.9861575297    0.3527387442   -1.2394399330
 H   -1.4353124429    0.2955179490   -2.0687315179
 H   -3.1729771443   -1.7105474378   -2.6786844264
 H   -1.2676148810   -3.3520057669   -2.7095214070
 H   -0.4563899287   -1.7744762677   -2.8663235333
 H   -1.1400607424   -2.5168576177    1.0013803029
 H   -3.6036585503   -1.9478458532   -0.0186959284
 H   -2.9349031407   -3.4721216307   -0.6748339308