20

 C    0.1396850651    1.5360813487    0.0457054235
 C   -0.0173286125    0.0197176879   -0.0944099916
 N    0.6997891803   -0.5236931644   -1.2315631520
 N    0.0232117561   -0.8063132419   -2.3821356719
 C    0.9641757853   -1.1858594913   -3.2341850386
 C    2.2539518407   -1.1632955086   -2.6621068728
 C    2.0403774001   -0.7242647555   -1.3647896277
 N    2.9276068486   -0.4365794396   -0.3334907150
 C    4.3146958983   -0.8296905550   -0.5315078767
 H    1.1898650339    1.8073824511    0.1834809665
 H   -0.2329301146    2.0381385490   -0.8511455691
 H   -0.4285867904    1.8972741776    0.9086025099
 H    0.3167974930   -0.4877222658    0.8200571182
 H   -1.0631680840   -0.2523858975   -0.2489372104
 H    0.6872790078   -1.4780990421   -4.2371777690
 H    3.1921915135   -1.4340382834   -3.1158731283
 H    2.5755823308   -0.6974049542    0.5782048513
 H    4.4448332820   -1.9065717795   -0.7188687442
 H    4.7268806764   -0.2851488584   -1.3863260850
 H    4.8912704195   -0.5538225872    0.3542950229