16

 O   -0.0539439794    1.4020987876    0.1511365329
 C    0.0180955758    0.0120452817    0.0434208280
 C   -1.3808973625   -0.6283521571   -0.2025009491
 C   -1.2332518263   -0.1829882736   -1.6926931536
 C    0.2405752466   -0.5735297010   -1.4022122794
 O    0.1975389084   -1.9842460275   -1.1681893385
 C   -0.9748020390   -2.0992898439   -0.3110450243
 C    1.3612690591   -0.1742725669   -2.2228516433
 N    2.2525360742    0.2256387716   -2.8406430373
 H    0.8366286778    1.7619158472    0.0718338705
 H    0.6541203605   -0.4468829723    0.8110371650
 H   -2.2425692220   -0.3689812624    0.4087434234
 H   -1.7417586175   -0.7621373795   -2.4649103657
 H   -1.3678222489    0.8876625903   -1.8238553755
 H   -0.6857580034   -2.5519324474    0.6428946335
 H   -1.7276017733   -2.7275212067   -0.7981386868