18

 O    0.2095012125    1.3147745947   -0.2635106827
 C    0.0249500589   -0.0499408289   -0.0536030785
 C   -0.3976813386   -0.6291123168    1.2670934201
 C   -1.3488782400   -0.6759221772    0.0795685789
 C   -2.6063599136    0.1556864865    0.0442839993
 C   -3.4395962630    0.1680868825   -1.2317211435
 C   -3.9581449692   -0.5502895560   -0.0242181158
 C   -2.5728066259    1.3796051072    0.8041338615
 N   -2.5114073543    2.3485641806    1.4358588833
 H   -0.1898817009    1.8149251034    0.4566063287
 H    0.7522398462   -0.6092065507   -0.6341503489
 H    0.0532655447   -1.5518603164    1.6156496076
 H   -0.6410344159    0.0720398321    2.0604528343
 H   -1.4861581951   -1.6425569221   -0.3974801705
 H   -3.9094031074    1.1008713861   -1.5190123188
 H   -3.0452939332   -0.4147986330   -2.0563033538
 H   -3.9293678571   -1.6338644292   -0.0069462518
 H   -4.7840223180   -0.1100576530    0.5216920505