10

 N    0.1056430990   -1.1268634049   -0.0047010339
 C    0.0245806102    0.0288275465    0.0026598767
 C   -0.1026643468    1.4340106189    0.0118851624
 C   -1.1977158841    2.2532872624    0.0314675147
 C   -0.6944862463    3.5860681891    0.0314160392
 C    0.6631259767    3.4750304617    0.0122766792
 O    1.0434642157    2.1785849605    0.0002388212
 H   -2.2271530757    1.9334016246    0.0439986555
 H   -1.2653339873    4.5005106340    0.0440313351
 H    1.4653164986    4.1945817671    0.0050798898