18

 C    0.0029903806    1.4904014973    0.1119455613
 C    0.0123468134    0.0046693607   -0.0322655643
 C    0.0059429467   -0.7939893989   -1.1592808555
 C    0.0201621239   -2.1541362429   -0.7520204074
 C    0.0196157854   -3.3667561323   -1.6295692897
 C    0.0352053153   -2.1534346634    0.6377381192
 N    0.0301762551   -0.8295092803    1.0506550181
 C    0.0528418706   -3.2186115879    1.5562364077
 C    0.0679377358   -4.1262929129    2.3515070504
 H    0.8890527251    1.8584271593    0.6440299595
 H   -0.0097602049    1.9598486851   -0.8740290550
 H   -0.8780260913    1.8457265296    0.6607999175
 H   -0.0075785604   -0.4318827421   -2.1770468148
 H    0.8943629738   -3.3867230532   -2.2901067686
 H    0.0316873751   -4.2804127892   -1.0296942907
 H   -0.8676715356   -3.3984984371   -2.2726769898
 H    0.0376799151   -0.5419596798    2.0141688513
 H    0.0812274164   -4.9303994122    3.0441658307