14

 N    0.1527285407    1.0727094620    0.6404162870
 C    0.0822872077   -0.0488344505    0.0732014591
 N    0.9813583332   -1.0071097273   -0.4289652104
 C   -0.0430069260   -1.9721693082   -0.7901275530
 C   -0.6018830340   -2.8313254257    0.3894294488
 O   -1.5243484228   -1.7880277944    0.7627279908
 C   -1.1036077077   -0.9326299058   -0.3294383797
 C   -1.2910045324   -4.0569303662   -0.0169140531
 N   -1.8099405269   -5.0266637822   -0.3712091362
 H    1.1156826957    1.3555096763    0.8302762025
 H    1.9244787536   -1.1983242041   -0.1185919232
 H    0.0362506143   -2.4344078896   -1.7720689985
 H    0.1182904056   -3.0586486539    1.1835568291
 H   -1.9328577510   -0.5284806402   -0.9066619731