17

 C    0.0498265219    1.4872436082   -0.3403691608
 N    0.0418566712    0.0489694081   -0.0840852337
 C   -1.0221914167   -0.4791009842    0.8084641412
 C   -0.1356292463   -1.6923790249    1.2235279265
 C   -0.3933268444   -1.4921232764    2.7258077553
 C   -0.3374550598   -0.0465421221    2.1838440935
 C   -0.4942170312    1.1630969066    2.9397174844
 N   -0.6231432000    2.1290744353    3.5655600326
 C    0.7792330836   -0.4350747269    1.1116079151
 H    1.0135841431    1.7629078998   -0.7797186737
 H   -0.7292230197    1.7203202009   -1.0729024104
 H   -0.1153367153    2.1110074283    0.5508158465
 H   -2.0866939866   -0.4559203250    0.5716283238
 H   -0.0159673962   -2.6050634031    0.6449938397
 H   -1.3620799042   -1.8213532294    3.1095401616
 H    0.4110976786   -1.7780173075    3.4079302988
 H    1.8602726818   -0.3594590977    1.2358241093