16

 N   -0.2198239803   -0.8676090185   -0.9638127398
 C   -0.0658173960    0.0202620614   -0.2421581327
 C    0.1201243089    1.1452191722    0.6847420562
 C    1.3481778879    1.8952890735    0.4367940466
 C    2.3542781093    2.5221678060    0.2328334951
 C    3.5756683210    3.2688492396   -0.0212142777
 C    4.5045619487    2.7524575625   -1.1558269271
 C    4.2677383245    4.1387927950   -1.7843347175
 O    3.3566119397    4.5159462202   -0.7268610792
 H   -0.7513210352    1.8074466154    0.6009297654
 H    0.1072743394    0.7517477738    1.7093075355
 H    4.0992281948    3.4504584330    0.9270693043
 H    5.5260492895    2.5271671838   -0.8489840413
 H    4.0950781439    1.9131171942   -1.7170264742
 H    5.1441950401    4.7968359077   -1.8168596233
 H    3.7783155138    4.1468173103   -2.7643977204