19

 C    0.0511005889    1.4141946390   -0.1304384650
 O    1.1359905811    0.4916945879   -0.2208686839
 C   -0.1828842467   -0.0310619599   -0.0144318625
 C   -0.4473237045   -0.6884952758    1.3083754431
 C   -1.9352898836   -0.8926697037    1.7553779831
 C   -1.6660306880   -2.4064342626    1.9935926136
 C   -1.9123055266   -3.2799804567    0.7574306633
 O   -0.6256438884   -2.9219899278    0.1953735482
 C   -0.2402200621   -2.2232296727    1.4002524625
 H    0.0385798584    2.0353576601    0.7651068362
 H   -0.2040639585    1.9322681996   -1.0541855662
 H   -0.5877143621   -0.5588337264   -0.8771879111
 H    0.1339784868   -0.1784333907    2.0830608746
 H   -2.2094794502   -0.3281890639    2.6485738708
 H   -2.6820547933   -0.6899764658    0.9813347271
 H   -1.8847401250   -2.8174666722    2.9775647231
 H   -1.9662454208   -4.3575193503    0.9609426268
 H   -2.7478106648   -2.9959589779    0.1051728820
 H    0.6934840493   -2.6070175903    1.8195008642