23

 C   -0.0424601582    1.4788451714    0.2647257074
 C    0.0587117917   -0.0034732289   -0.0574064048
 C    1.1002057388   -0.3913810949   -1.1087150174
 C    1.3858283208   -1.8520679831   -0.7359332126
 C    2.6644188125   -2.4318761781   -1.3206594955
 O    2.5077602115   -2.4578229878   -2.7337538997
 C    1.2906499491   -1.8243861060    0.8121729537
 C    2.6093008312   -1.6598099263    1.5679721788
 O    0.4482243947   -0.7088663525    1.1267202191
 H    0.9308166042    1.8704884093    0.5768074081
 H   -0.3822013066    2.0398554760   -0.6119653894
 H   -0.7554763156    1.6472742516    1.0768029012
 H   -0.9316479935   -0.3681922241   -0.3804926704
 H    0.7443531245   -0.2758722262   -2.1339333799
 H    2.0026102759    0.2224721555   -0.9909659447
 H    0.5595930604   -2.4663128595   -1.1148479836
 H    3.5304435679   -1.8169054348   -1.0322883616
 H    2.8338409914   -3.4464124041   -0.9238963762
 H    3.3216012646   -2.7939377830   -3.1201816376
 H    0.7973615672   -2.7386211623    1.1715477914
 H    3.1674296912   -0.7867937208    1.2157021499
 H    2.3965711817   -1.5135085752    2.6305189641
 H    3.2432660946   -2.5472935464    1.4670042399