17

 O    0.0427025945    1.5482497595    0.2005029809
 C   -0.0217910221    0.1625070622    0.0058728712
 C    0.8351243841   -0.6025707165    1.0430747970
 C    2.2193393205   -0.1467377195    1.0383885336
 C    3.3415368957    0.2841530709    1.0127341803
 C   -1.4765160646   -0.3772408614   -0.1126399555
 C   -1.1231592270   -1.1241025931   -1.4346706103
 C    0.1982368539   -0.3371742138   -1.4553699312
 O    1.0089849800   -0.0786899181   -2.2946718269
 H    0.9755287464    1.8005392922    0.1769426383
 H    0.3897266579   -0.4317076364    2.0313004954
 H    0.7872448944   -1.6816905079    0.8517825186
 H    4.3432435220    0.6366554510    0.9910985329
 H   -1.8232451161   -0.9933190206    0.7186022680
 H   -2.1721371612    0.4483299675   -0.2687411652
 H   -0.9654006131   -2.2003912571   -1.3115548235
 H   -1.7751299855   -0.9680174292   -2.2968000436