19

 C    0.1481694895    1.5053120702    0.0251310479
 C   -0.0035733093   -0.0318290029    0.0070123231
 C    0.6691763029   -0.6420868269    1.2469088234
 C   -1.5037705858   -0.3993370604   -0.0159858635
 C    0.6383345250   -0.5613999755   -1.2502001346
 N    1.6425602115   -1.4321368702   -1.2928996222
 N    1.8217987001   -1.5590354318   -2.6020983311
 N    1.0033232098   -0.8322781619   -3.3467597872
 N    0.2429361445   -0.1907710061   -2.5017265727
 H    1.2029178955    1.7965628339    0.0568680926
 H   -0.3020515521    1.9528755234   -0.8645308119
 H   -0.3453362182    1.9194819083    0.9103387227
 H    0.1955986105   -0.2510145440    2.1528574695
 H    0.5775980117   -1.7317158910    1.2550577005
 H    1.7343858287   -0.3977355846    1.2839392993
 H   -1.9914674012    0.0049602917   -0.9066088192
 H   -1.6433042976   -1.4850828868   -0.0138773265
 H   -2.0024743828    0.0089185183    0.8690556815
 H    2.5252653376   -2.1608251037   -3.0032156517