19

 C   -0.2995666441    1.5012628370    0.1484245793
 C    0.0362142436    0.0287467124   -0.0402416360
 C   -1.1519613450   -0.9681139453    0.1689539514
 C   -0.3056123000   -1.7257519080    1.2050571960
 O   -0.4530504722   -2.7438763995    1.8139760282
 C    0.8554821614   -0.6875151220    1.1003360630
 O    2.0668842117   -1.1663431172    0.5695956719
 C    1.8374688558   -1.4049230843   -0.8197753785
 C    0.9083771746   -0.2672765264   -1.2796284656
 H    0.6108430538    2.1084924831    0.1944284547
 H   -0.9108972314    1.8786146284   -0.6790393146
 H   -0.8610970978    1.6671917731    1.0744806830
 H   -2.0474743199   -0.5134445623    0.6058700366
 H   -1.4605754889   -1.5658412663   -0.6947813698
 H    1.0625662049   -0.1353851526    2.0218069348
 H    2.8086093390   -1.4136977453   -1.3193615244
 H    1.3663067455   -2.3890672926   -0.9671218434
 H    0.3208760393   -0.5362864730   -2.1618510562
 H    1.5033399097    0.6173823108   -1.5277743502