20

 C    0.0289672299    1.3978937583   -0.0983874380
 O    0.0348231719   -0.0079701733   -0.0495881724
 C    0.6607062916   -0.5160523423    1.1070279836
 C    0.6003970674   -2.0373466941    1.0609288500
 C    1.2591014892   -2.6915979493    2.2790415628
 C    1.1821919471   -4.2278575485    2.2396467146
 C    1.9330976214   -4.8592325847    3.3889100235
 O    1.4632180890   -5.6282531757    4.1868544667
 H    1.0499483101    1.8124871382   -0.1037635851
 H   -0.4752625710    1.6920459693   -1.0221209070
 H   -0.5117888656    1.8353365224    0.7562397815
 H    1.7098354844   -0.1738332622    1.1593525723
 H    0.1570207842   -0.1388148814    2.0148203530
 H   -0.4499894794   -2.3433420691    0.9904286106
 H    1.0883691609   -2.3796898727    0.1403297755
 H    2.3114126627   -2.3823506666    2.3402881180
 H    0.7793559385   -2.3315467387    3.1982063528
 H    0.1469696094   -4.5806395228    2.2606274228
 H    1.6448105993   -4.5850619735    1.3076190957
 H    3.0029859788   -4.5469190930    3.4588722889