15

 C    0.1210880771    1.4756557207    0.0396393028
 C    0.0691530161    0.0209713771    0.0205613993
 C    0.0005974528   -1.1817074721    0.0114862196
 C   -0.0610024688   -2.6449754652    0.0110139639
 O   -1.3774547218   -3.1280497507    0.0428694946
 C    0.6556950054   -3.2543554687   -1.2260699123
 N    1.8775361999   -2.7528616578   -1.5135953784
 O    0.1240516516   -4.1710441116   -1.8263279439
 H    0.8552838368    1.8395278345    0.7665708657
 H    0.3896900750    1.8818327196   -0.9415792487
 H   -0.8531226559    1.8933655761    0.3156907648
 H    0.4994276497   -3.0136078575    0.8895723098
 H   -1.3971816003   -3.8046861688   -0.6575314257
 H    2.1542492830   -1.8680059855   -1.1204244338
 H    2.3429706794   -3.0800233601   -2.3450223979