17

 N   -0.1069255221    1.3606633058    0.0180888274
 C    0.0868727462    0.0182411052   -0.0962953331
 O    1.1547402029   -0.5022341349   -0.3518324131
 C   -1.1917072615   -0.8161915171    0.0632176943
 C   -0.9704105366   -2.3342918883    0.1970850817
 N   -2.1031500663   -2.8587287721    0.9883235310
 C   -2.4395665034   -1.8044221432    1.9449491284
 C   -2.0351713690   -0.4740533108    1.3009370272
 O   -2.3189040652    0.6335983392    1.6912540261
 H    0.7204575396    1.9367184485    0.0376632533
 H   -0.9343482884    1.6851952273    0.5025484262
 H   -1.8299615397   -0.5922990960   -0.8035130514
 H   -0.9047052964   -2.8487730389   -0.7619271393
 H   -0.0307290713   -2.5158839057    0.7282353603
 H   -2.8956475742   -3.0032147099    0.3706765526
 H   -3.4929023616   -1.8094010516    2.2346478295
 H   -1.8496260729   -1.9168615876    2.8673213189