18

 C    0.2780793069    1.5119584053   -0.0833844178
 C   -0.0526719622    0.0201822866    0.0415045536
 O   -1.4570509169   -0.1698470912    0.1536586907
 C    0.4414623439   -0.8274456489   -1.1580820812
 C    1.7386517878   -1.5346356326   -0.6991904663
 C    1.6687771193   -1.4577507686    0.8013355359
 C    0.7085079191   -0.6223192435    1.2111077634
 C    0.3770171170   -0.2914926206    2.5513461914
 N    0.0489902486    0.0256336436    3.6169525389
 H    1.3462099375    1.6682419171   -0.2638961807
 H   -0.2868411121    1.9452894183   -0.9138754166
 H    0.0142898911    2.0492463134    0.8347792645
 H   -1.7864971710    0.4003666802    0.8581579069
 H   -0.3360439818   -1.5659294143   -1.3672137391
 H    0.5800318403   -0.2227815849   -2.0569079557
 H    1.8118186689   -2.5667334748   -1.0585604096
 H    2.6407910303   -1.0229517252   -1.0619329901
 H    2.3383894832   -2.0004354601    1.4587775619