21

 C   -0.4542834728    1.4771934844   -0.0792322965
 C    0.2164207900    0.1112178528    0.1227586328
 C    0.7877777438   -0.4673284707   -1.1606710295
 C    2.0001191418    0.2091576146   -1.6917044128
 O    2.5914463652    1.1084762186   -1.1456312532
 C    0.7661421159   -1.9871174507   -1.4539392572
 C    0.2206737070   -2.9817597039   -0.4532419585
 C   -0.1300900589   -1.0648633057   -2.2206584025
 O   -1.4937241511   -1.0028801016   -1.9249687167
 H    0.2572123625    2.2070064033   -0.4730729755
 H   -1.2954492972    1.3959083127   -0.7730613416
 H   -0.8348695373    1.8596757287    0.8730723891
 H    1.0395831269    0.2107393040    0.8388190551
 H   -0.5041525587   -0.5851375274    0.5552429403
 H    2.3606380488   -0.1971064775   -2.6680270375
 H    1.6346474840   -2.3419227185   -2.0049404320
 H   -0.7675117573   -2.6896029715   -0.0929708009
 H    0.1269968967   -3.9680200009   -0.9211393888
 H    0.8837644876   -3.0884073997    0.4107848966
 H    0.1152916518   -0.8612865761   -3.2637845770
 H   -1.9220164686   -1.7679453346   -2.3241765139