18

 O    0.2285358589    1.4340647289    0.0346359001
 C    0.0838895461    0.0331797593    0.0032591325
 C    1.1053997393   -0.4118878630   -1.0569823199
 C    0.6539184569   -0.0959483684   -2.4111819490
 N    0.2777679233    0.1359812709   -3.4787932595
 C    0.0011349040   -0.7671825204    1.3547780995
 C   -1.4119928550   -0.1393532557    1.5452245099
 C   -1.3551152160   -0.5731552542    0.0417777938
 C   -0.7248069020   -1.8967762563    0.5637561050
 H   -0.5900949741    1.8399851668    0.3312727083
 H    2.0366671420    0.1301199791   -0.8624335387
 H    1.3328220868   -1.4775543519   -1.0020513047
 H    0.7820805712   -0.8765485219    2.1082914087
 H   -2.1048449693   -0.7056721970    2.1706663787
 H   -1.4684871344    0.9231944327    1.7904185537
 H   -2.1320465275   -0.4605422371   -0.7154346624
 H   -0.1509747356   -2.5056544761   -0.1346241836
 H   -1.3917108546   -2.5235819157    1.1583630576