23

 C   -0.0286800155    1.4635536091   -0.3395514031
 C    0.0372161604   -0.0454521449   -0.0789007074
 C   -1.3342228726   -0.6330079132    0.2024115054
 O   -2.2440547514   -0.5215468116   -0.9278200710
 C   -2.6269480819   -1.9175549050   -0.8241184873
 C   -4.1178969860   -2.1001969444   -0.7116688321
 C   -1.8055987661   -2.7998449053   -1.8022651700
 C   -0.7550003292   -3.0524613394   -0.6757983076
 C   -1.5654460266   -2.1555148153    0.2969760306
 H    0.9610196697    1.8703457448   -0.5675091771
 H   -0.6891134525    1.6745784201   -1.1853928816
 H   -0.4191681449    1.9994528629    0.5326724742
 H    0.4806498189   -0.5470140975   -0.9458418123
 H    0.6873005295   -0.2558117605    0.7810572044
 H   -1.7714000678   -0.1164272007    1.0718706349
 H   -4.6090020389   -1.7557604670   -1.6292234043
 H   -4.3738144575   -3.1545590058   -0.5647543153
 H   -4.5212963402   -1.5214902096    0.1248730029
 H   -2.3218720476   -3.7038822254   -2.1374622878
 H   -1.4517995110   -2.2480290938   -2.6756945251
 H   -0.7278293384   -4.0942737916   -0.3480403695
 H    0.2708903507   -2.7423076232   -0.8858252314
 H   -1.7938760310   -2.5577378627    1.2842105207