20

 C    0.1893551594    1.3412041101   -0.2060802183
 C    0.1038370209   -0.1750638053   -0.1857302630
 O    0.4389254147   -0.8478473542    0.7671201326
 N   -0.4669912325   -0.7313113038   -1.3191632852
 C   -0.1253778577   -0.6490745110   -2.7247601560
 C    1.3146489284   -0.3353033078   -3.1022787994
 C    2.1761664400   -1.2513629860   -2.1981076663
 C    1.2883031372   -2.4762050372   -1.8678394853
 C   -0.1398812837   -1.9674042170   -1.9817038072
 H    1.1106291788    1.6517732720   -0.7122208683
 H   -0.6530882505    1.7858254546   -0.7409914993
 H    0.2242737184    1.7090501598    0.8198970410
 H   -0.9289100482   -0.3527721844   -3.3942923231
 H    1.4457103296   -0.5897200386   -4.1611884439
 H    1.5710324585    0.7239368809   -2.9980821041
 H    3.1116420561   -1.5392238207   -2.6834005803
 H    2.4486608510   -0.7322765771   -1.2759082419
 H    1.4274090699   -3.2768308390   -2.6035948938
 H    1.5051228051   -2.8860866659   -0.8787782704
 H   -0.9547315753   -2.6779857192   -2.0903843980