14

 O    0.8098972836   -0.0556032766   -0.4416992987
 C    0.3582017182    1.0365441144   -0.2318432143
 C    1.1977264774    2.2407360880    0.2036795359
 O    2.4829411793    1.8153706185    0.6620711930
 C    3.4573930217    1.5051501392   -0.2280945737
 O    4.4208625403    0.8649936526    0.0863800810
 N    3.2899442370    2.0531613543   -1.4944387813
 C    2.3306913986    3.0138536381   -1.7830344560
 C    1.2895997265    3.1868585853   -0.9667019552
 H   -0.7162313815    1.2797143281   -0.3926901901
 H    0.7189767855    2.7123096795    1.0688003757
 H    4.0759958569    1.9123558174   -2.1075352643
 H    2.5076752137    3.6045569790   -2.6737094870
 H    0.5389799329    3.9457257322   -1.1304260549