14

 N    0.0520061105    1.4466948699    0.1277056662
 C    0.0041677508    0.0292989549   -0.0032411876
 C   -1.3277601228   -0.6587157744    0.0335896539
 N   -2.4854890028    0.1880842651    0.0650306976
 C   -0.5303968916   -0.6910298875   -1.2721832576
 C   -0.9541062274    0.0935819626   -2.3896578385
 N   -1.2708253163    0.7306190811   -3.3032064706
 H    0.7558583312    1.8526894586   -0.4800368415
 H   -0.8499235067    1.8396615079   -0.1261442572
 H    0.8329364924   -0.4903866961    0.4690897794
 H   -1.3660541265   -1.6201734536    0.5479508984
 H   -3.2541109639   -0.2105921333   -0.4627814736
 H   -2.7986947004    0.3352117914    1.0183804411
 H   -0.0731223765   -1.6388876865   -1.5356370000