17

 C    0.1035254087    1.3699393881    0.2310394243
 C   -0.0499229161   -0.0929059658    0.0007566066
 N    0.1873292380   -0.7254978938   -1.0745242498
 C   -0.1418769245   -2.1310313632   -0.8172370766
 C   -0.5068538262   -2.1844264672    0.6918574180
 C    0.5241623380   -2.9511491672    1.5356628283
 C    0.2241519874   -2.9332329764    2.9653941296
 N   -0.0237216181   -2.9279779833    4.0935915730
 O   -0.5058590857   -0.7983258714    1.0825626940
 H    0.7998690860    1.5535179651    1.0549631658
 H    0.4704388761    1.8474256863   -0.6765689901
 H   -0.8580845651    1.8082828778    0.5156730281
 H   -0.9755716029   -2.4431413720   -1.4552515452
 H    0.7106743261   -2.7752445928   -1.0620180877
 H   -1.5072545717   -2.5816799070    0.8804130824
 H    0.5600749568   -3.9926141997    1.1954151638
 H    1.5183621831   -2.5210313175    1.3700720655