20

 C   -0.1229241496    1.4927383411   -0.0775440655
 C   -0.1144568341    0.0015573775    0.1997294461
 O   -1.3787600820   -0.5293732040   -0.2157781609
 C   -1.5543438486   -1.8478354202   -0.0279379587
 N   -2.6307238549   -2.4072419440   -0.3722162822
 C   -2.7757452122   -3.8076638071   -0.1841234050
 C   -4.1350663803   -4.2950269490    0.3105881147
 C   -3.7606897279   -4.4517989878   -1.1384959332
 O   -4.3541829087   -3.6569851389   -2.1119559999
 H    0.8296695652    1.9353443001    0.2274082988
 H   -0.2714479469    1.6848107979   -1.1434117281
 H   -0.9283725805    1.9822078466    0.4762755456
 H    0.6934926461   -0.4954989701   -0.3538400512
 H    0.0350564192   -0.1975347336    1.2694948761
 H   -0.7053627435   -2.3685619004    0.4381450046
 H   -1.8930471203   -4.3711130859    0.1225788453
 H   -4.1531605589   -5.1695667202    0.9522698033
 H   -4.8621610036   -3.5267926933    0.5479680794
 H   -3.5363505920   -5.4482246946   -1.5077078742
 H   -4.0514377764   -2.7537846243   -1.9342330352