18

 C    0.1029461427    1.5477414035   -0.3266286456
 C    0.0501314350    0.0982664298   -0.2124703395
 C    0.0083922866   -1.1012705908   -0.1051264211
 C   -0.0165843379   -2.5344071365   -0.0302298333
 C   -0.4445992382   -3.2457298499    1.2425130893
 C   -0.8389701079   -2.5005896708    2.4039641086
 C   -1.1735154241   -1.9211520028    3.4035656841
 N   -1.2680998564   -3.3014367020    0.0274885745
 C   -2.5333898694   -2.5751517379    0.0085442468
 H    1.1384370880    1.9003282035   -0.3875023209
 H   -0.4198101689    1.8979949586   -1.2236068936
 H   -0.3614518873    2.0303123207    0.5402624497
 H    0.7560660640   -3.0313493566   -0.6145521677
 H    0.0549864492   -4.1869668193    1.4647666963
 H   -1.4611542252   -1.3998785869    4.2828025559
 H   -2.5112534850   -1.6147521047    0.5372044442
 H   -2.8073735214   -2.3951659087   -1.0348945705
 H   -3.2994803339   -3.2096178990    0.4631762726