20

 C   -0.0618289543    1.4865079299   -0.0398016039
 N   -0.0218919925    0.0370447375    0.0478491763
 C   -1.3671084466   -0.5682807924    0.0169636408
 C   -1.2377257687   -1.7798219713    0.9267703139
 O   -0.1970444493   -2.6385220160    0.3593566244
 C    0.7364168701   -2.0433882597    1.2550195603
 C   -0.3054822555   -1.3327230523    2.0786878538
 C    0.6522329096   -0.5226856392    1.2219026995
 C    1.7979935293    0.2363681896    1.8350624792
 H    0.9489895906    1.8999896546   -0.0787819490
 H   -0.5655425710    1.7679309192   -0.9701497084
 H   -0.6053913790    1.9735341657    0.7930967360
 H   -2.1351172705    0.1193528422    0.4148179610
 H   -1.6501556638   -0.8556074083   -1.0011712844
 H   -2.1555576938   -2.3280166373    1.1399596330
 H    1.6243280830   -2.6083804849    1.5191375344
 H   -0.5102457660   -1.2740286920    3.1398148038
 H    2.2554338784   -0.3576636228    2.6321093698
 H    2.5725126605    0.4437117650    1.0887859678
 H    1.4804463394    1.1877401826    2.2736035917