21

 C    0.2251843382    1.5866237270   -0.4720041817
 C   -0.0102272916    0.1199789813   -0.1798943461
 C   -1.4222710701   -0.4180872442   -0.3624633396
 C   -2.4225983190    0.0793058584    0.6864245639
 O   -2.7465584013    1.4710722784    0.5431982375
 C   -3.7257468136   -0.7252539028    0.6834184975
 O   -4.6469769470   -0.1998479521    1.6114074393
 C    1.1188985474   -0.8204579629   -0.2621271124
 O    0.6344551147   -0.3728893414    1.0066699594
 H    1.2647817553    1.8519558262   -0.2649288317
 H    0.0156816371    1.8068871386   -1.5252807018
 H   -0.4298981607    2.2108274344    0.1397026145
 H   -1.7897946847   -0.1698558342   -1.3688089036
 H   -1.3885022739   -1.5117648976   -0.3025487135
 H   -1.9683796446    0.0063908618    1.6800656101
 H   -3.0497583775    1.6093254870   -0.3626009872
 H   -4.1424465340   -0.7303221627   -0.3424895706
 H   -3.5308491903   -1.7672543986    0.9601899914
 H   -4.5472583653    0.7597147524    1.5539164475
 H    0.9389392182   -1.8711916058   -0.4883279930
 H    2.1065643628   -0.4534297132   -0.5397370299