13

 O   -0.3529096272    0.0859122969    0.0048535925
 C   -0.1001886552    1.2665934444    0.0089418011
 N    1.1614927582    1.8098606848   -0.0004409437
 C    2.3506912093    1.0835675564   -0.0163122087
 C    2.6135883764   -0.2720286071   -0.0301695713
 C    4.0243984658   -0.3414679584   -0.0423094856
 N    4.5991689738    0.8547435051   -0.0363247160
 N    3.5538560629    1.7170098153   -0.0205205350
 H   -0.8713780485    2.0599563311    0.0209627801
 H    1.2226561119    2.8165575793    0.0035606894
 H    1.8864034454   -1.0625309101   -0.0309375518
 H    4.6422121874   -1.2275433539   -0.0550722012
 H    3.7395811898    2.7054315763   -0.0132235397