18

 C    0.0074854549    1.5828143664    0.2804423725
 O    0.0481204973    0.1891068455   -0.0065599237
 C    0.6044920972   -0.5853354021    0.9407386130
 N    0.6888664227   -1.8324733877    0.7826150262
 C    1.2947501619   -2.6040809461    1.8332640914
 C    0.4561795652   -3.8300122374    2.3213299773
 C    1.7125105431   -4.6937320574    2.1407956296
 O    2.0372912170   -5.7794433151    2.5241182002
 C    2.4289800177   -3.5755619065    1.3705152861
 H    1.0152219133    1.9951565849    0.4107415731
 H   -0.4644082734    2.0585667538   -0.5796740271
 H   -0.5883635837    1.7904347011    1.1773386726
 H    0.9624426684   -0.0404967357    1.8288716033
 H    1.6260999048   -1.9901997907    2.6850492007
 H    0.0092065869   -3.7959777426    3.3176090918
 H   -0.3140372764   -4.0907301465    1.5877534605
 H    2.3797562654   -3.7432925845    0.2894074881
 H    3.4596997977   -3.3509048892    1.6545176344