20

 C   -0.0168483481    1.4401505722    0.1281184486
 N    0.1469971978    0.0029273670    0.0572168470
 C    0.9458086968   -0.5073846015   -1.0753398565
 C    1.8970939564   -1.4139091365   -0.3040103241
 C    2.3470184576   -0.4262766037    0.9015288526
 C    0.8198074531   -0.5974579985    1.2416039128
 C   -0.3179603750   -1.1975201417    2.1198637719
 O   -0.3825744397   -2.3396573825    1.1818247407
 C    1.0052041573   -2.0203915309    0.8434381754
 H    0.9292120899    2.0126459870    0.1720690941
 H   -0.5732355366    1.7879394586   -0.7484889233
 H   -0.6051958779    1.6989213552    1.0153416264
 H    0.3259341723   -1.0499717915   -1.7986758976
 H    1.4837024063    0.2881737091   -1.6094637512
 H    2.6237176660   -2.0038646650   -0.8640217432
 H    3.0362838350   -0.8947957964    1.6036446602
 H    2.7113936679    0.5592036035    0.6028479100
 H   -0.0145915761   -1.5347617983    3.1173080900
 H   -1.2608395006   -0.6484250670    2.1515187079
 H    1.6494146174   -2.5919757692    1.5204474783