22

 C    0.0114606781    1.5160886679    0.2661978222
 C   -0.0070184614    0.0194939686   -0.0708624953
 C   -1.4384607698   -0.5196265178   -0.0645008086
 O   -1.9853411013   -0.3432475362    1.2352910512
 C    0.6671502353   -0.2971821965   -1.4190814370
 C    2.1452667231    0.0310826259   -1.4748239003
 C    3.1580003862   -0.9346445828   -0.9100822277
 C    3.0582129439   -0.7291760384   -2.4026224963
 H    1.0316277025    1.8888370475    0.3928809712
 H   -0.4630503241    2.1008024747   -0.5322887205
 H   -0.5374221491    1.7019928287    1.1918514820
 H    0.5365521872   -0.5191568436    0.7173642218
 H   -2.0361310598    0.0154892734   -0.8221277553
 H   -1.4322916362   -1.5854127380   -0.3454088587
 H   -2.9079732078   -0.6118212239    1.2128937178
 H    0.5407422934   -1.3660889992   -1.6398184707
 H    0.1423395936    0.2434198198   -2.2204891384
 H    2.3830060437    1.0838224655   -1.3516554293
 H    4.0238678484   -0.5385485924   -0.3911348687
 H    2.7903002416   -1.8719177383   -0.5041986828
 H    2.6257872364   -1.5289153759   -2.9956508559
 H    3.8550238562   -0.1898130991   -2.9030593605