17

 C   -0.9233856272    0.7864663144   -0.8390973511
 N    0.0797235385    0.2786246711    0.0920099403
 C   -0.4377113748   -0.6905710567    1.0424781142
 C   -0.8810635609   -2.0192834291    0.4506553713
 N   -0.1176371239   -2.5424804361   -0.5236495593
 C   -0.5245197238   -3.7100393113   -0.9949226926
 C   -1.6699473174   -4.3222870236   -0.4850513597
 N   -2.3864124172   -3.7541026213    0.4796352106
 N   -1.9871159117   -2.5773542743    0.9549079822
 H   -0.4504235815    1.4945506623   -1.5255049990
 H   -1.4289624317    0.0136222286   -1.4428696887
 H   -1.6940852597    1.3283795768   -0.2798204489
 H    0.8372218288   -0.1522070046   -0.4282595286
 H    0.3450921313   -0.9045088801    1.7827797009
 H   -1.2834151704   -0.2640227036    1.5894388210
 H    0.0626657687   -4.1705047436   -1.7867089613
 H   -2.0263789672   -5.2796287988   -0.8512437312