20

 C    0.1400410834    1.5244125432    0.2078665113
 C   -0.0398454145    0.0176216725   -0.0550956599
 C   -1.5172629401   -0.3894636248   -0.0007858262
 C    0.6074566934   -0.3758229214   -1.3530825021
 C    0.0637018660   -0.8633972655   -2.5209245843
 N    1.1210627511   -1.0252498259   -3.3541771464
 C    1.1507717805   -1.5127620877   -4.7173735384
 N    2.2640471041   -0.6601886455   -2.7424627787
 N    1.9568326474   -0.2694574520   -1.5395552654
 H    1.1966600295    1.7987159164    0.1643023542
 H   -0.3954778065    2.1159296599   -0.5432346709
 H   -0.2507361492    1.7937829464    1.1946693735
 H    0.4933255155   -0.5186397505    0.7411249330
 H   -2.0996303513    0.1345607634   -0.7677984773
 H   -1.6451280463   -1.4659011023   -0.1538277001
 H   -1.9500012979   -0.1335006597    0.9708641593
 H   -0.9429002758   -1.1039017985   -2.8176127133
 H    0.5539392159   -0.8711901292   -5.3718492186
 H    2.1910388229   -1.4952460712   -5.0421919184
 H    0.7693642420   -2.5363668978   -4.7717291812