15

 N    0.0033388506    1.3845061496    0.1087173113
 C   -0.0508398849    0.0083048429    0.0573370713
 C   -1.2079451399   -0.7033832380   -0.0001893787
 N   -2.4560156346   -0.0538062813   -0.0808450365
 C   -1.1292794812   -2.1369811087   -0.0629125590
 N   -2.1952221648   -2.8603115441   -0.1708920265
 C    0.2476197891   -2.6269612992    0.0152338380
 N    1.3270907807   -1.9341887387    0.1142792210
 O    1.1809963758   -0.5536474863    0.1276912085
 H    0.9009496278    1.7676681502   -0.1552836060
 H   -0.7736580834    1.8162482961   -0.3775746616
 H   -2.6487767456    0.5205128042    0.7338604218
 H   -3.1759615682   -0.7676922759   -0.1604058388
 H   -1.9661016581   -3.8535435493   -0.2094010346
 H    0.4275083268   -3.7003948217    0.0136862197