19

 C   -0.0361544984    1.5370812584    0.0949935950
 C   -0.0241689740    0.0428280616    0.0027785599
 C    1.1250368252   -0.8146366817   -0.3730051293
 C    0.6101493901   -0.9984419220    1.0449137106
 C    1.4592110774   -0.8113550337    2.2680214167
 C   -0.7240768653   -1.6323394441    1.0427895997
 O   -1.3511082961   -2.1895049458    1.9132123626
 C   -1.2971097166   -0.8224722531   -0.1473968528
 O   -2.5099605406   -0.2153556237    0.2070863711
 H    0.8904480126    1.9190355876    0.5345449880
 H   -0.1430227643    1.9843801136   -0.9002830539
 H   -0.8811735460    1.8719588518    0.7020653579
 H    1.0055527143   -1.6048539835   -1.1117855242
 H    2.0947338292   -0.3259701914   -0.4106534899
 H    2.0979544428    0.0728657113    2.1725546416
 H    0.8332241709   -0.6954511169    3.1575011956
 H    2.1145096614   -1.6741546950    2.4301294826
 H   -1.3797366980   -1.3156323015   -1.1250071190
 H   -2.8491499346   -0.7089601618    0.9670438678