20

 C   -0.6341863295    1.3553684598   -0.0579690969
 C    0.0712770814    0.0076755374    0.0021017732
 C    1.3945100602   -0.1820319202   -0.8110019973
 C    2.0984447215   -0.7133360116    0.4672346967
 C    2.8788361987   -1.9998744150    0.4170613084
 O    2.8127302675    0.3488042103    1.1515983307
 C    1.6768250965    0.6298595274    2.0009009241
 C    0.8092758683   -0.4291826834    1.3033955584
 H    0.0481005390    2.1820389863    0.1656646256
 H   -1.0420398850    1.5326461758   -1.0592120328
 H   -1.4664196178    1.4044142684    0.6534523192
 H   -0.6422993193   -0.7776248422   -0.2688940750
 H    1.3242299981   -0.8923327732   -1.6395045797
 H    1.8516293125    0.7424445708   -1.1730773192
 H    3.7863942358   -1.8660334466   -0.1829953424
 H    3.1793196587   -2.3152355669    1.4207607186
 H    2.2852149917   -2.7985101321   -0.0396532141
 H    1.9017729399    0.4054194514    3.0516915401
 H    1.3510944381    1.6747315086    1.9306861892
 H    0.3150274536   -1.1627485951    1.9411971329