19

 C   -0.0093885428    1.3472783647    0.0175366518
 O    0.0464774220   -0.0665814920    0.0726243922
 C    0.6995701858   -0.5690655567    1.1689650982
 C    0.3276807558   -0.4061102955    2.6829920442
 C    1.5623976112   -1.3671015429    2.6127280005
 C    0.8762531100   -2.0833833491    1.4189332306
 C    2.1971833150   -0.3689032876    1.5864722662
 C    2.2553586408   -1.9806057120    3.7744382780
 O    2.3775536202   -3.1671338466    3.9509886447
 H    0.9949302493    1.7912307996   -0.0240165057
 H   -0.5506675699    1.6082920135   -0.8938529185
 H   -0.5430850069    1.7658965284    0.8820720156
 H    0.4975784655    0.5706888621    3.1421105512
 H   -0.6108966635   -0.8588072839    3.0110953741
 H   -0.0278909527   -2.6506163402    1.6480277862
 H    1.5336661014   -2.6196554409    0.7319376559
 H    2.9545434101   -0.7877421179    0.9197491306
 H    2.4859397204    0.6103138969    1.9757703698
 H    2.6696920882   -1.2439796099    4.5018118845