17

 C   -0.0060633392    1.5434455191   -0.0205738107
 O    1.3355765763    2.0220857308    0.1469001902
 C    2.1436154642    0.8780174795    0.3289886731
 C    2.3074974199   -0.0591573048   -0.8892332555
 C    2.0837529083   -1.3054071127    0.0031662628
 O    1.1445011182   -1.8916710110   -0.9108434295
 C    0.8437388547   -0.5149140329   -1.2621320108
 C    0.1021918787    0.0154755393   -0.0127411800
 C    1.3067536277   -0.2819962365    0.9284796954
 H   -0.6318954476    1.9135478688    0.8022750229
 H   -0.4188549911    1.9298556261   -0.9614741031
 H    3.0718684980    1.1585273594    0.8271500730
 H    3.0588792970    0.0272926785   -1.6706269419
 H    2.8321486632   -1.9808921291    0.4112633761
 H    0.3961373127   -0.3922509885   -2.2477054307
 H   -0.8311304885   -0.5098401118    0.1885194900
 H    1.1391820675   -0.4169050541    1.9941065286