20

 C    0.0337471964    1.5253775062   -0.0116665833
 C   -0.0352042931   -0.0078891518   -0.0042017950
 C   -1.4471279196   -0.5408888887   -0.0243693257
 C   -2.4278453942   -0.3731652977   -1.2197023830
 C   -3.1507071137   -1.5679501332   -0.5840778495
 C   -1.8261118221   -2.0846689010    0.0514339671
 C   -2.4588092155   -1.8747934407    1.4480822726
 C   -2.3444430130   -0.4137467818    1.2324688358
 N   -3.5931777787   -1.1348850539    0.8112208038
 H    1.0715447305    1.8714270308    0.0032505295
 H   -0.4432555440    1.9384182732   -0.9065409210
 H   -0.4715654425    1.9530945759    0.8606197059
 H    0.5095958878   -0.4015229038   -0.8720613897
 H    0.4815055144   -0.3956665760    0.8840136751
 H   -2.9754432632    0.5669826547   -1.3325824056
 H   -1.9546585728   -0.6531462972   -2.1672882365
 H   -3.8955283360   -2.1739504176   -1.0975540252
 H   -1.1898930568   -2.8865339499   -0.3152194514
 H   -2.5690056643   -2.4804579574    2.3395283222
 H   -2.4515418596    0.4143071596    1.9228426941