18

 C   -0.0623108070    1.6073655135   -0.0301773271
 C   -0.0024949695    0.0821473327   -0.1410262923
 C   -1.3784929905   -0.5674335336    0.0277998076
 N   -2.3012132994   -0.1701912650   -1.0516689889
 C   -2.7492819125   -1.2372912884   -1.5594290110
 O   -2.3634592455   -2.4417224693   -1.0736868533
 C   -1.4095542542   -2.1464554983   -0.0102143956
 C   -0.1490304951   -2.8202716541   -0.2833179815
 C    0.8914994459   -3.3871595447   -0.4817804681
 H    0.9301382778    2.0466754276   -0.1682110901
 H   -0.7338914023    2.0241828898   -0.7846296005
 H   -0.4304550556    1.9184332470    0.9541666443
 H    0.4096718576   -0.2124653310   -1.1123490373
 H    0.6723807137   -0.3268046747    0.6196297015
 H   -1.8065838224   -0.2305249086    0.9798864306
 H   -3.4496979789   -1.2990073900   -2.3852644079
 H   -1.8384592201   -2.5463035564    0.9138524228
 H    1.8112618979   -3.8868259466   -0.6630577631