17

 C    0.1003552283    1.5692704214   -0.4148200635
 C    0.5427274710    0.1247651505   -0.3240069009
 O    1.7151599210   -0.1822386693   -0.2890971082
 C   -0.5852702747   -0.9002365553   -0.2426544700
 C   -0.2761104267   -2.3365465546   -0.6635788971
 C    0.6622055898   -2.6613622399   -1.7828024644
 N    1.0219032568   -2.9888206556   -0.4028990829
 C   -1.4235913945   -3.2060005810   -0.4732402116
 N   -2.3676687316   -3.8573997558   -0.3288618885
 H    0.9572576509    2.2301854582   -0.2824679461
 H   -0.3526789277    1.7515714649   -1.3966473259
 H   -0.6682645832    1.7895680845    0.3337651472
 H   -0.9154900189   -0.8994490058    0.8069329913
 H   -1.4470179505   -0.5341455638   -0.8123362945
 H    0.4441910589   -3.5100714552   -2.4233671746
 H    1.1634012823   -1.8270076096   -2.2641349657
 H    1.6603098688   -2.2705695038   -0.0637209446