14

 O    0.0178149489   -0.0102215765   -0.0264126592
 C   -0.0307535618    1.1875073030    0.0062992574
 C   -1.2072060111    2.1248917802    0.0393347998
 C   -0.9111343425    3.3449591677   -0.8922220176
 C   -1.6556242782    4.1928907684    0.1396184664
 N   -0.8261045555    3.2649352244    1.0416283312
 C    0.3431153741    3.4998001212    0.0281429363
 C    1.1329656594    2.2195250558   -0.0012385383
 O    2.3159647541    2.0279373696   -0.0435422799
 H   -2.2127850046    1.7215958549    0.1401162747
 H   -0.9430727155    3.3720385415   -1.9855646104
 H   -1.3816652059    5.2465233430    0.2379987458
 H   -2.7336013757    4.0475447517    0.2478518593
 H    0.8644394844    4.4506837750    0.1177765846