17

 O   -0.6317532069    0.9292455506   -0.7891313875
 C    0.1675999439    0.9890055166    0.1153920246
 C    1.3715113622    1.8619659488    0.0885914078
 N    1.5497586396    2.7331853758   -1.0895366716
 C    2.8369630082    2.0561699583   -1.4390115505
 C    2.7906953034    1.2514469425   -0.1177732943
 N    3.3094456049    1.8173073819    1.1838074200
 C    3.0831614900    3.2777378408    1.2115087626
 C    1.9208652766    2.4074010455    1.4305563153
 H    0.0584400660    0.3639550544    1.0287212620
 H    0.8059139466    2.5771486722   -1.7633970285
 H    2.7769127269    1.3998883947   -2.3145964948
 H    3.6797815837    2.7426657276   -1.5713010329
 H    2.9754673302    0.1792209861   -0.1588716281
 H    3.5328043831    3.7323112208    2.0885767260
 H    3.1371641583    3.8700118244    0.3047908214
 H    1.4244132334    2.2960806891    2.3898787384