23

 C   -0.0637887585    1.5502750666    0.0120858724
 C   -0.0092733545    0.0087829431    0.0019464646
 C   -1.4534612856   -0.5190593974    0.0610290514
 C    0.6641574684   -0.4895754650   -1.3265562374
 C    2.0667734940   -1.0443957315   -1.1009662833
 C    2.9027785636   -0.1956834397   -0.1235524913
 C    2.1528487565   -1.0546066574    0.9129831893
 C    0.7748382995   -0.5027007896    1.2630283045
 O    1.9741325681   -2.0940487500   -0.0934906905
 H    0.9322810638    2.0012961457   -0.0280340145
 H   -0.6302923105    1.9254701063   -0.8476425981
 H   -0.5550171799    1.9165125297    0.9205994960
 H   -2.0374519344   -0.1702233774   -0.7985754463
 H   -1.4671254900   -1.6136925982    0.0564760453
 H   -1.9620363693   -0.1785349428    0.9704498153
 H    0.0665471657   -1.2930409932   -1.7709470701
 H    0.6950181361    0.3240083658   -2.0618352153
 H    2.5336337173   -1.4000407078   -2.0240348656
 H    3.9619644101   -0.4542053961   -0.1701264119
 H    2.7782702323    0.8878117345   -0.1127364849
 H    2.6966126283   -1.4193744312    1.7892041801
 H    0.8686572112    0.3034094059    2.0011946135
 H    0.2169775478   -1.3108933403    1.7486156069