16

 O    0.0098702861   -0.0773937772   -0.0373438911
 C   -0.0615440545    1.1289962008    0.0049943874
 C   -1.3755088256    1.8828885960    0.0707005299
 C   -1.4205958329    3.0357295651   -0.9444302966
 C   -0.7018796827    4.2813928387   -0.4169569983
 O    0.3533919288    4.0031176748    0.5201721573
 C    1.4077084121    3.2166882347    0.1914920389
 O    2.5400005643    3.6131716057    0.2215584375
 N    1.1154071363    1.8818186005   -0.0820775439
 H   -2.1502785721    1.1408331028   -0.1265248649
 H   -1.5266297885    2.2628615765    1.0877378981
 H   -0.9824351414    2.7036242032   -1.8912846773
 H   -2.4590987505    3.3051649535   -1.1611705039
 H   -0.3021941008    4.8950122761   -1.2321558873
 H   -1.3898960582    4.8987421951    0.1648805878
 H    1.9449481497    1.3141698435   -0.2038049236