20

 C   -0.1485490627    1.5103736321    0.1339231415
 C   -0.0279473337    0.0080418707   -0.0126395420
 C    0.4410076168   -0.7154404864   -1.2456708025
 C    1.0991878818   -0.0128223851   -2.4158997639
 O    2.4809592347   -0.3587879136   -2.5154275325
 C    3.2333518739   -0.1469103479   -1.3559199433
 C    3.0631516607    1.0933059803   -0.5198365048
 C    2.5587601783   -0.2637204514   -0.0113094656
 N    1.2122120795   -0.7630567566    0.0001505957
 H    0.3273641546    2.0804322122   -0.6649185843
 H   -1.2093525523    1.7811403469    0.1394160723
 H    0.2820272309    1.8431791453    1.0841974546
 H   -0.7995832916   -0.5136298469    0.5539851500
 H   -0.0362863457   -1.6598313482   -1.5032638092
 H    0.6548719259   -0.3449213278   -3.3567516567
 H    0.9870165630    1.0786419180   -2.3684213111
 H    4.2238820602   -0.5640039246   -1.4967224515
 H    3.9445713547    1.4888401134   -0.0256438176
 H    2.3673478626    1.8536532214   -0.8416836816
 H    3.1441257383   -0.6853013418    0.8005733926