17

 N    0.0134326068   -1.0204224389   -0.5331131551
 C    0.0013680492    0.1122571352   -0.3039357378
 C    0.0214457869    1.5398821884    0.0006050529
 C    1.4520479179    2.0763506414    0.1154350401
 N    2.2295389136    2.0487968281   -1.1527102301
 C    2.6128297008    3.4743714042   -1.0043356561
 C    1.6404600939    4.3981440552   -1.7544422319
 O    0.6950317826    4.3437822257   -0.6467935901
 C    1.6223847229    3.6159254851    0.1760855214
 H   -0.4976868174    2.0941264617   -0.7864146960
 H   -0.5197239422    1.7110306880    0.9387422873
 H    1.9685415083    1.5938952126    0.9556707001
 H    3.0020119861    1.3950132707   -1.1579504857
 H    3.6766763514    3.7106648131   -0.9832949834
 H    1.9965615087    5.4242984984   -1.9078867596
 H    1.2243082120    3.9926508119   -2.6811846361
 H    1.7940189586    4.0888694793    1.1450899501