18

 C    0.0722768465    1.5219069810    0.0090100423
 C   -0.0164237276   -0.0156972976    0.0027743935
 C   -1.3910921641   -0.5015208536    0.0128341252
 C   -2.5406119297   -0.8748941882    0.0213409283
 C   -3.8746511898   -1.3284106277    0.0310655796
 C   -5.0789849116   -0.6393816253    0.0425200381
 C   -6.1243819411   -1.5942054156    0.0486727163
 C   -5.5428259640   -2.8442331116    0.0409253955
 N   -4.1870916564   -2.6753700683    0.0303660435
 H    1.1182874036    1.8422052572    0.0010602870
 H   -0.4249698710    1.9427963895   -0.8689370953
 H   -0.4090678969    1.9347329971    0.8995600249
 H    0.5067302268   -0.4068104758   -0.8802187076
 H    0.5223463620   -0.4148340616    0.8726853502
 H   -5.1750765231    0.4348448542    0.0459295028
 H   -7.1841279728   -1.3916690004    0.0577695133
 H   -5.9801803333   -3.8296570865    0.0420725015
 H   -3.5002955677   -3.4091344867    0.0229584907