21

 C    0.0250702768    1.5482219706    0.0467331657
 C    0.0036040760    0.0315349149   -0.0039291660
 C    0.3307894403   -0.6550135057   -1.3693156934
 C   -0.7816705297   -1.6768720395   -1.0652467621
 C   -0.5089700025   -2.6795891170    0.0798862885
 C    0.1210742869   -1.9996731015    1.2867907964
 C    0.8162211155   -0.6623764959    1.1067615582
 C   -1.3558403496   -1.8636205090    1.0585270255
 C   -1.3991773207   -0.7305560531    0.0060036597
 H    1.0444142930    1.9350424220   -0.0724834370
 H   -0.5868849346    1.9818211965   -0.7518989546
 H   -0.3600908882    1.9184978292    1.0041711255
 H    0.0551789041   -0.0168375784   -2.2159085997
 H    1.3538438326   -1.0170780028   -1.5157653596
 H   -1.3830694178   -2.0890385187   -1.8771049988
 H   -0.4495714546   -3.7559975954   -0.0332610981
 H    0.4577606437   -2.6739113611    2.0680040895
 H    1.8741867589   -0.7492405746    0.8328880032
 H    0.7640520865   -0.0948829393    2.0455681011
 H   -2.1331602364   -2.1711096021    1.7461736050
 H   -2.3041883702   -0.1522347692   -0.1697412791