18

 C   -0.1092272888    1.5395421081    0.0192999979
 C    0.0498448118    0.0236088784    0.0041720518
 C    1.0674567910   -0.5946403218   -0.9908467491
 C    2.3917730219   -0.0679907199   -0.4040430308
 O    2.1457751151   -0.0641166137    1.0188235685
 C    0.8384085257   -0.5982125816    1.1673395218
 O    0.8400865855   -1.9849627291    0.8745575339
 C    0.9644358401   -2.0687554521   -0.5637413854
 H    0.8326266692    2.0460323526    0.2420142909
 H   -0.4788844337    1.9054359155   -0.9443335458
 H   -0.8333352571    1.8402863382    0.7836554104
 H   -0.9267347152   -0.4613025796   -0.0911050666
 H    0.9191341026   -0.4046725572   -2.0539017322
 H    3.2401441612   -0.7243667062   -0.6306473888
 H    2.6381467497    0.9469354962   -0.7370463506
 H    0.5118000561   -0.4497367481    2.1953963912
 H    0.0812655651   -2.5688470382   -0.9819709791
 H    1.8550805800   -2.6546341916   -0.8187913879