17

 C    0.0507954571    1.5996793926   -0.0815217817
 C    0.0709441132    0.0832548998    0.0019041196
 C    1.1297065929   -0.7134922263   -0.8124931455
 O    2.4026492356   -0.1318053437   -0.3991353004
 C    2.1954022193   -0.7772236309    0.8477864280
 C    1.2128383196   -1.7684236107    0.3489888375
 C    0.6886715575   -0.6172754815    1.2286671614
 C    0.2141864168   -0.6567287099    2.5640065246
 C   -0.1914410680   -0.6799294016    3.6979994973
 H    1.0628253171    2.0013122247    0.0069447151
 H   -0.3721494602    1.9348457169   -1.0349929920
 H   -0.5620226184    2.0205533893    0.7221633054
 H   -0.9178279413   -0.3495350842   -0.1819119995
 H    1.0571790836   -0.8849167774   -1.8838177442
 H    2.9951867999   -0.8219212903    1.5742919678
 H    1.1033103081   -2.8403933226    0.4296211530
 H   -0.5503904427   -0.7009323742    4.6968126736