19

 C    0.0716112884    0.6107864393    1.0259136923
 C   -0.0065438405    0.1298303218   -0.4081036520
 O    0.8508978054    0.3610393602   -1.2275097554
 C   -1.2367172059   -0.7144838596   -0.7698401146
 C   -1.0205994338   -2.1451261298   -0.3651056615
 C   -0.0692551135   -3.1847626566   -0.9869151326
 C   -1.0481484029   -4.3068680546   -0.4894945614
 C   -1.9316523174   -3.2044486906    0.1085244891
 O   -1.1148738153   -2.4698144630    1.0339629383
 H    1.0431625659    1.0675022051    1.2176331870
 H   -0.7195713409    1.3487854384    1.2068991099
 H   -0.1105745426   -0.2213676109    1.7135349402
 H   -2.1285830572   -0.3346774973   -0.2608835027
 H   -1.3789581069   -0.6544029262   -1.8523982969
 H   -0.0187053596   -3.1230133200   -2.0761030558
 H    0.9421583021   -3.1887130227   -0.5755792066
 H   -1.5255521182   -4.8426741621   -1.3130465296
 H   -0.6534905147   -5.0230911180    0.2345279548
 H   -3.0016862824   -3.1954056334    0.2853287575