21

 C   -0.3466429193    0.9777389285   -0.6353464940
 C   -0.7508776155   -0.4963147292   -0.5057518012
 C   -1.4041091649   -0.8247799443    0.8236919432
 C   -2.7504914747   -0.1641200136    1.1257706260
 C   -3.8012375960   -0.5368042885    0.1838047136
 C   -4.6569424836   -0.8561310473   -0.6010859772
 C   -5.7016221017   -1.2363503413   -1.5417005158
 C   -1.0740213783   -2.0769623716    1.5158825906
 O   -0.5145596637   -0.8310005220    1.9491055140
 H    0.1918527776    1.1482448438   -1.5721007352
 H   -1.2173115169    1.6409520217   -0.6336510798
 H    0.3076509928    1.2718056939    0.1909429310
 H   -1.4420140940   -0.7708257657   -1.3108590011
 H    0.1373862489   -1.1275465215   -0.6132440841
 H   -3.0376773671   -0.4346091350    2.1482354354
 H   -2.6190460737    0.9255514645    1.1269228053
 H   -5.8856485810   -0.4448437983   -2.2766174046
 H   -5.4305193518   -2.1433809794   -2.0933225007
 H   -6.6476600577   -1.4347574381   -1.0257890876
 H   -1.7953884716   -2.5273218730    2.1968679494
 H   -0.3676357677   -2.7730206234    1.0654327126