18

 C    0.0581420970    1.4254416292   -0.0060571650
 N    0.0528112959   -0.0408476919   -0.0292301076
 C    0.0813286389   -0.7720942975    1.1960562509
 C   -0.1731798165    0.0361359690    2.4609140089
 O    0.2906213631   -1.9547263928    1.2377981965
 C   -0.0764423093   -0.6974776823   -1.2578865262
 O   -0.1984587287   -1.8950585335   -1.3864128524
 C   -0.0876961166    0.1694154251   -2.5311151252
 O   -0.3010457828   -0.6433531990   -3.6405226959
 H    0.6149097623    1.8141988700   -0.8581531267
 H   -0.9537241449    1.8461796433   -0.0264633788
 H    0.5637905106    1.7810903346    0.8889083199
 H   -1.0216654444    0.7190529908    2.3662823427
 H   -0.3637971737   -0.6812801468    3.2584185596
 H    0.7061437945    0.6276148898    2.7374872350
 H   -0.8716253022    0.9383713948   -2.4521936196
 H    0.8746954876    0.7028828725   -2.6110968241
 H   -0.3356774409   -1.5470196252   -3.2804351518