16

 C    0.0826569174    1.4854488011   -0.0056917092
 C   -0.0639878024    0.0097116567    0.0517760807
 C   -1.1477645988   -0.8323779479    0.0736736806
 C   -0.6116258961   -2.1706797340    0.1292169986
 C    0.7340935407   -2.0386509944    0.1346470777
 O    1.0801521403   -0.7201258634    0.0834261449
 C   -2.5630193804   -0.4008825334    0.0403130528
 N   -3.4782212507   -1.4146412309   -0.1238681661
 O   -2.9195170549    0.7591011590    0.1759302638
 H    0.6342669343    1.7901062421   -0.9023740989
 H   -0.9084929708    1.9369134193   -0.0116327777
 H    0.6408649265    1.8535409133    0.8624444664
 H   -1.1572179122   -3.0992778394    0.1928497959
 H    1.5536563899   -2.7362417580    0.1766937665
 H   -3.1980922237   -2.2891806970   -0.5349217594
 H   -4.4261245490   -1.1162642730   -0.2943811167