19

 C   -0.2031003505    1.4439175965    0.1732249802
 C   -0.1226879987   -0.0071338480    0.0792832087
 C   -0.0187590251   -1.2061571485   -0.0015274645
 C    0.0587642800   -2.6716237235   -0.0868125529
 O    0.7795492947   -3.2557425105    0.9872796516
 C   -0.1239164544   -3.5776362241    2.0618628665
 C   -1.5510363972   -3.3641119692    1.5351767714
 C   -1.3585871211   -3.3044561344    0.0072149746
 O   -2.3618571895   -2.6381909176   -0.7123007745
 H    0.7565546151    1.8685958890    0.4870179352
 H   -0.4628649496    1.8891095122   -0.7932639494
 H   -0.9599060870    1.7583790363    0.8999010203
 H    0.5687650445   -2.9578320742   -1.0124130711
 H    0.0655423816   -4.6189836115    2.3450492642
 H    0.0976238464   -2.9453840987    2.9298023577
 H   -2.2423975495   -4.1519222416    1.8401497063
 H   -1.9589065802   -2.4062519866    1.8735096653
 H   -1.3038378908   -4.3157397673   -0.4075629932
 H   -2.2578644687   -1.6939842682   -0.5316304266