19

 O   -0.1096992364    1.4927674828    0.1497092412
 C    0.0421415960    0.0759260262    0.0533011772
 C   -1.3744479638   -0.5003784971   -0.0459281699
 O   -2.1087212100   -0.0543375388    1.0952506904
 C   -2.0816620672   -0.1355270646   -1.3456057358
 C   -2.6011461803   -1.2075217010   -1.9477025803
 C   -2.2640946656   -2.4685963085   -1.2260511800
 C   -0.7821625056   -2.7931723175   -1.1791170308
 C   -1.4203844172   -2.0274925103   -0.0476297497
 H    0.7282400372    1.8759952021    0.4222168098
 H    0.6399626404   -0.1987439297   -0.8254004827
 H    0.5280342223   -0.3286123226    0.9523756768
 H   -1.8813853371    0.8793104125    1.1970997872
 H   -2.1279896695    0.8870033040   -1.7001413743
 H   -3.1651229104   -1.1964030301   -2.8740861295
 H   -2.9838222452   -3.2761691464   -1.1567591750
 H   -0.4954223258   -3.8187586751   -0.9678044328
 H   -0.1339483236   -2.2797107079   -1.8812055152
 H   -1.5108627482   -2.5015607781    0.9217501833