18

 C    0.0637726861    1.4428731556   -0.1278724412
 N    0.0330085369   -0.0103449016   -0.1085793050
 C    0.4641151284   -0.6155265627    0.9237639094
 C    0.4925732363   -2.1242709632    0.9790291221
 C    0.2206716926   -2.6285374428    2.3958406823
 N    1.1385579240   -1.9653933370    3.3119247644
 C    1.3775183227   -0.6175455717    3.2578973069
 O    1.9030849091    0.0204775230    4.1476049911
 N    0.9729414611   -0.0027560162    2.0674808051
 H    1.0902299558    1.8407843384   -0.0934679982
 H   -0.3914216547    1.7998225089   -1.0545533696
 H   -0.4941706683    1.8902717910    0.7095753591
 H   -0.2366916648   -2.5083173511    0.2654174826
 H    1.4873788874   -2.4651158315    0.6662121957
 H   -0.8288769296   -2.4416535443    2.6695404109
 H    0.3890317060   -3.7069937254    2.4547079957
 H    1.2898515271   -2.3577648395    4.2278433696
 H    1.1223763838    0.9944687100    2.0726051192