15

 C    0.0806981421    1.4004372657    0.2495170046
 C   -0.3472634503    0.0738504729   -0.3159570401
 O   -0.7146147870   -0.1251616153   -1.4478198968
 O   -0.2601703629   -0.8852160956    0.6439787753
 C   -0.5885219524   -2.1917556696    0.4087919387
 N   -0.4972628778   -3.0945127879    1.3440136871
 C   -0.9074422592   -4.2608580137    0.7298126288
 C   -1.2407330418   -4.0332398964   -0.5769163089
 N   -1.0300741775   -2.6823705199   -0.7780350420
 H    1.1081336709    1.3342576975    0.6182198996
 H    0.0077371508    2.1631454644   -0.5242280449
 H   -0.5528553284    1.6646010560    1.1008110729
 H   -0.9358370782   -5.1927850434    1.2722505258
 H   -1.5969453128   -4.6735176253   -1.3660165838
 H   -1.1572768856   -2.1198654193   -1.6042990463