15

 N   -0.0636631826    1.3411783128   -0.0237561701
 C    0.0859044585   -0.0220056130   -0.0487186099
 O    1.1294160528   -0.5882842819   -0.2829122128
 C   -1.2348181687   -0.7982060426    0.1063966258
 O   -1.0245767654   -2.1560120949    0.5223964446
 C   -1.5813899834   -1.8976948634    1.8275538142
 C   -2.1265146251   -0.5365559569    1.3473409008
 O   -1.8196136694    0.6251202052    2.0861373919
 H    0.8015732328    1.8619582461   -0.0460528552
 H   -0.7937516775    1.7113641699    0.5689525853
 H   -1.7555126322   -0.7479435403   -0.8585909148
 H   -2.3060830524   -2.6618885164    2.1274943925
 H   -0.8046479402   -1.7931673572    2.5966915123
 H   -3.1920630603   -0.5727787046    1.0951356100
 H   -2.5233201670    0.7864962172    2.7215472253