24

 C   -0.0446691400    1.5607889911   -0.0006361979
 C    0.0584748589    0.0247127774    0.0003091954
 C    0.5884513251   -0.4553651199   -1.3587347514
 C    0.8555415484   -0.5425912982    1.2170562700
 C    0.9495564085   -2.0798228757    1.1470680524
 C    2.2685674610    0.0597592277    1.3294063189
 N    0.0695633776   -0.1778718523    2.4198658786
 C    0.3878973956   -0.4597391074    3.7080435337
 O    1.3998247290   -1.0070737977    4.1004010344
 H    0.9129199039    2.0220068210   -0.2616245639
 H   -0.7781109009    1.8886401331   -0.7438964495
 H   -0.3485949718    1.9659518579    0.9691759026
 H   -0.9604159443   -0.3793769495    0.1058335405
 H    1.6244377671   -0.1401336904   -1.5210740274
 H    0.5435942664   -1.5415218904   -1.4629863077
 H   -0.0126534126   -0.0216220351   -2.1641072556
 H    1.6144373789   -2.3988098134    0.3406095122
 H    1.3481894041   -2.4627282452    2.0880716601
 H   -0.0371295122   -2.5246380123    0.9783610288
 H    2.2302004761    1.1448811332    1.4521465667
 H    2.7786870780   -0.3620485639    2.1960026113
 H    2.8548446582   -0.1675627429    0.4345444335
 H   -0.8449854208    0.2175954180    2.2684990429
 H   -0.4082935843   -0.1163515050    4.4013346115