19

 O   -0.0695653870    1.3957514117   -0.1827408707
 C    0.0215663584   -0.0020720422    0.0677931312
 C   -1.3875844104   -0.5670742926    0.0007509370
 C   -2.0935494260   -0.3448736616   -1.3502923526
 O   -3.1142765055   -1.3444915867   -1.4174559043
 C   -2.6363984785   -2.5032507783   -0.7761773416
 C   -1.5571119609   -3.3170443640   -1.5259621292
 O   -0.5148165270   -2.8101155921   -0.6605524206
 C   -1.4698603138   -2.0865282271    0.1546954211
 H    0.8227249566    1.7515635832   -0.2249604553
 H    0.6467922092   -0.5084925898   -0.6801770881
 H    0.4600122670   -0.2019239010    1.0583316863
 H   -1.9951229499   -0.1154067685    0.7946399393
 H   -2.5738597792    0.6298609536   -1.4404487964
 H   -1.3788871669   -0.4576624828   -2.1791751171
 H   -3.4877060804   -3.0582994297   -0.3802993370
 H   -1.6540386634   -4.4067636005   -1.4457267230
 H   -1.4092272648   -3.0377794313   -2.5753469906
 H   -1.4580064175   -2.4366534901    1.1914138316