18

 C   -0.0490850784    1.6126635709   -0.1520728361
 C    0.0311578521    0.0795679462   -0.0176349454
 C    0.6285954973   -0.5020212568   -1.2246414278
 N    1.0893986595   -0.9619616307   -2.1791828398
 C    0.8209501986   -0.3994927460    1.2367613617
 O    2.1389717550    0.1135559182    1.2636281427
 C    0.0777509803   -0.1053034063    2.5475057033
 C    0.8611785748   -0.6298561068    3.7370316490
 O    1.1451056711    0.0266214179    4.7029581552
 H    0.9518907985    2.0444239029   -0.2318087913
 H   -0.6023288970    1.8878518820   -1.0523755983
 H   -0.5612314955    2.0532617941    0.7072447503
 H   -0.9859487639   -0.3255805530    0.0603005213
 H    0.9471144568   -1.4845823402    1.1459046985
 H    2.1119429057    1.0309108499    1.5575077900
 H   -0.0921324215    0.9659687917    2.6957148749
 H   -0.9001775690   -0.6064707763    2.5348960692
 H    1.1591964555   -1.6998025778    3.6552483626