25

 C    0.0261606142    1.5978483922   -0.1725009092
 C    0.0276604936    0.0656487979   -0.2065359491
 C   -1.3665571015   -0.5445970129    0.0146479028
 C   -2.3568280453   -0.1709597469   -1.1282774120
 C   -2.9984587092   -1.4813395924   -1.6065232475
 O   -3.3648125013   -1.3511701820   -2.9714551579
 C   -1.9200143099   -2.5311450365   -1.3119469874
 C   -1.4053346194   -2.1143109254    0.0740593709
 C   -0.1263218646   -2.8248961983    0.5169148405
 H    1.0352254505    1.9967732754   -0.3163372951
 H   -0.6113027286    2.0214345244   -0.9551290095
 H   -0.3440115937    1.9679233840    0.7906036157
 H    0.4327976284   -0.2774241705   -1.1682475793
 H    0.7151523791   -0.3006371374    0.5644263585
 H   -1.7358798216   -0.1542401587    0.9710120300
 H   -3.1019229312    0.5710084558   -0.8310946184
 H   -1.8148297419    0.2469790643   -1.9845218696
 H   -3.8893058802   -1.7060351412   -0.9964815019
 H   -3.7883000614   -2.1707689230   -3.2448107006
 H   -2.2931713488   -3.5611722206   -1.3389176145
 H   -1.1280834341   -2.4420984642   -2.0674898774
 H   -2.1897252158   -2.3785368161    0.7971487237
 H    0.7011584330   -2.6469685973   -0.1771356846
 H    0.1947921834   -2.4975865534    1.5117581793
 H   -0.2882435336   -3.9071819572    0.5647489226