18

 C    0.0011903146    1.4535866435    0.0048831817
 N    0.0303785369    0.0089492434   -0.1619660294
 C   -1.2617972399   -0.6788938224   -0.1507201432
 C   -1.2491347867   -1.9970587349   -0.9279283538
 C   -0.0276282123   -2.8363630256   -0.5930143077
 O    1.1055618511   -2.6182839858   -1.4324774030
 C    1.1693511542   -2.1552178852   -0.0754356795
 C    1.2071234287   -0.6514953456    0.0817364542
 O    2.2507775880   -0.0937711187    0.3742528470
 H    1.0261566872    1.8204260786   -0.0079022133
 H   -0.5699759034    1.9132106172   -0.8085567141
 H   -0.4629512796    1.7389627198    0.9590844810
 H   -1.5827393584   -0.8581809033    0.8878159631
 H   -1.9989285384   -0.0001692737   -0.5905250200
 H   -2.1666152251   -2.5489274346   -0.7016714280
 H   -1.2386546487   -1.8009534603   -2.0048186007
 H   -0.1887966209   -3.8802708548   -0.3271656728
 H    1.8941438726   -2.6692792276    0.5511859982