17

 O   -0.0347559200    1.3111787289   -0.0145897652
 N    0.0226033715   -0.0883490921   -0.1154356062
 C   -1.1241651083   -0.6140073920    0.0549517336
 C   -2.4489226899    0.0345022784    0.3823585422
 C   -3.3140256771   -1.0864031480    1.0400005967
 O   -4.6638453044   -1.0832850858    0.6260247064
 C   -2.5998246684   -2.3899943987    0.6909115852
 N   -2.4680914751   -2.5109635408   -0.7730404973
 C   -1.2943311495   -2.0883781418    0.0517987574
 H    0.8890391172    1.5606949260   -0.1238193219
 H   -2.3155705689    0.9062710116    1.0256531877
 H   -2.9385045420    0.3848458729   -0.5322716383
 H   -3.3349371860   -0.9562537870    2.1265197547
 H   -4.6538123229   -1.3635960927   -0.2986178848
 H   -2.7655867640   -3.2794471824    1.2890566264
 H   -2.3445417572   -3.4895311272   -1.0219767825
 H   -0.4296391850   -2.7372091893    0.1155148859