16

 C   -0.0568306577    1.4954844333   -0.0354469006
 C   -0.0184909068   -0.0064348039    0.0061251628
 N   -0.0083971568   -0.6339434792   -1.1344629599
 N    0.0163212694   -1.9673652287   -1.1158393212
 C    0.0363832979   -2.8227611474    0.0005183503
 O    0.0614439499   -4.0328326314   -0.1591680565
 C    0.0303714413   -2.0954840294    1.2433832399
 C   -0.0012240362   -0.7274232858    1.2661539388
 N   -0.0712294607   -0.0026246547    2.4360646345
 H    0.8365909245    1.9405737150    0.4229861756
 H   -0.1015963261    1.8254480487   -1.0739986842
 H   -0.9302888868    1.8897767720    0.4972173739
 H    0.0214114864   -2.4134198824   -2.0230605515
 H    0.0484568086   -2.6830140120    2.1542807008
 H    0.1544085104   -0.4953715010    3.2862775911
 H    0.2617907825    0.9474376571    2.4160205364