16

 N   -0.0821318262    1.2243010697   -0.4355841417
 C   -0.0193398497    0.0374100883   -0.0189931723
 O    1.1203118555   -0.6049206325    0.3902499981
 C    0.8160825459   -1.9010629379    0.8817525412
 C    0.0004461546   -1.9530752797    2.1366883036
 C   -0.6644332733   -2.1370501765    0.7799590812
 C   -1.1940527152   -0.9034179469    0.1165451908
 C   -2.5771169039   -0.4163264298    0.1303182350
 O   -2.0333310474   -1.0573003653   -1.0265827255
 H    0.8403330089    1.6606481396   -0.4514519631
 H    1.5833769273   -2.6254519860    0.6428964827
 H    0.0896619223   -2.8364223150    2.7591568561
 H   -0.1579275173   -1.0253211448    2.6772385916
 H   -1.0915375637   -3.0916416416    0.5024271163
 H   -3.3326905393   -0.9854524963    0.6700605526
 H   -2.7508276586    0.6523885147    0.0266753633