23

 C   -0.2277115466    1.4354717057    0.0675932290
 C    0.0129525438   -0.0681656471   -0.0007318785
 C    0.8753123061   -0.5739518751   -1.2019893553
 C    2.1319814878   -0.3528142262   -0.3073740667
 C    1.1698568032   -0.6245875977    0.8812779636
 O    0.9687020015   -2.0133971721    1.1064516508
 C    1.0808367160   -2.8267893121   -0.0694588670
 C    0.3012465720   -4.1062566152    0.1935361612
 C    0.6278499671   -2.0832701868   -1.3519742666
 H    0.6930852517    2.0139473491   -0.0583440850
 H   -0.9235743199    1.7534604254   -0.7166655948
 H   -0.6642143540    1.7173742608    1.0322515048
 H   -0.9305275119   -0.6047929821    0.1469431037
 H    0.8026161118   -0.0411827885   -2.1541839350
 H    2.9986616817   -1.0053070497   -0.4353639668
 H    2.4697120173    0.6846612542   -0.3145830520
 H    1.3677902020   -0.1735551001    1.8571648475
 H    2.1422608108   -3.0896215963   -0.1940759136
 H   -0.7630052700   -3.8858881792    0.3227854256
 H    0.4140302986   -4.8026904245   -0.6437471562
 H    0.6633847536   -4.5947832927    1.1023818577
 H   -0.4377083205   -2.2610337068   -1.5453761362
 H    1.1822122477   -2.4943461731   -2.2039959702