18

 C    0.0737851938    1.3128172118    0.1578423713
 O   -0.1640885650   -0.0526415579   -0.1048224179
 C    0.5427534114   -0.5526104217   -1.2137974863
 C    2.0707589318   -0.7296101261   -1.0151117873
 C    2.4302174069   -1.9422111592   -1.8830678102
 O    3.4687603991   -2.1323092850   -2.4617384831
 C    1.1965873911   -2.7968349309   -1.9743092266
 N    0.5649452517   -2.9673313442   -0.6326244426
 C    0.0432705690   -1.9508070507   -1.5472399212
 H    1.1183450959    1.5058766702    0.4420435843
 H   -0.1692771584    1.9422487404   -0.7130162794
 H   -0.5734279451    1.5975541440    0.9904458088
 H    0.3660350509    0.0947645650   -2.0903845347
 H    2.6747056173    0.1345533321   -1.2926528266
 H    2.2639811152   -0.9801186778    0.0333776306
 H    1.1290465580   -3.5826691022   -2.7168755526
 H   -0.0327873885   -3.7900724446   -0.6705964434
 H   -0.9436515852   -2.0732412132   -1.9801932430