19

 C   -0.1956360885    1.4634396383    0.0047797786
 C    0.0145074705   -0.0324122330    0.0061899085
 C   -0.7368762837   -0.8782342284    1.0045453245
 C    0.7676724993   -0.7627493621    1.1025223777
 C    1.5587218792   -1.8711382655    0.4385685605
 O    0.7556593298   -2.8558151997   -0.2406320903
 C    1.3684991802   -1.8100116457   -1.0147948675
 C    0.3931375208   -0.6808610508   -1.3470143522
 O   -0.7017802044   -1.1070564599   -2.1365438034
 H    0.6920174603    1.9940808596   -0.3596090540
 H   -1.0359782069    1.7344105183   -0.6446546626
 H   -0.4177338196    1.8348350670    1.0102015352
 H   -1.3236050711   -0.3406140582    1.7424901916
 H   -1.1457539244   -1.8379120394    0.7141242557
 H    1.2212625528   -0.2412913315    1.9378475485
 H    2.4587333290   -2.2600631016    0.9059106366
 H    2.0946325844   -2.1449207877   -1.7515509954
 H    0.9134969109    0.0686538443   -1.9549718561
 H   -1.0768116186   -1.8767217139   -1.6923865459