15

 O    0.0088959381    1.3191607606   -0.0846800163
 C    0.0725087729   -0.0894674805    0.0192774041
 C   -1.3143808913   -0.6502334243    0.2757368426
 O   -2.1785407069   -0.4004379517   -0.9058399573
 C   -2.4259634045   -1.7297803756   -1.0883058736
 O   -3.0620804890   -2.2581085467   -1.9388966671
 C   -1.6106542583   -2.1579660628    0.1502997147
 C   -0.5260961201   -3.1850133831   -0.0725439350
 O    0.6469836061   -2.9989657627    0.1185431494
 H   -0.5377128216    1.5266917228   -0.8510988080
 H    0.5092373599   -0.5514836438   -0.8754146895
 H    0.7259654623   -0.3249283357    0.8628546676
 H   -1.7642475512   -0.1662482683    1.1453053071
 H   -2.2876933783   -2.5452056252    0.9207484949
 H   -0.9125953381   -4.1613971432   -0.4339797038