16

 O    0.0509193826    1.3983205391   -0.0467723928
 C    0.0496069885   -0.0236646223   -0.0424642144
 C    0.7608907290   -0.5599305307    1.1892022526
 C    0.0479916094   -1.2330772993    2.0937423292
 C   -1.4144374033   -1.4394856331    1.7623862232
 C   -1.5281452434   -2.0287143841    0.3328411573
 C   -1.3996163131   -0.5391810331   -0.0417573105
 O   -1.9602240893   -0.1740010282    1.2569356550
 H   -0.4795906582    1.6508456007    0.7211013306
 H    0.5664790474   -0.3257366593   -0.9611279195
 H    1.8121056732   -0.3208130088    1.3148538436
 H    0.4690710301   -1.6348157706    3.0095020011
 H   -2.0150220779   -1.8506789146    2.5752100749
 H   -0.7586601255   -2.7293005156    0.0057936122
 H   -2.5269851215   -2.4111052385    0.1138088206
 H   -1.9756772581   -0.1295328613   -0.8750413633