23

 C    0.6536839772    0.0166479240    1.5547920457
 C    0.0430301222    0.2002700546    0.1597586453
 C   -1.2212830927   -0.6294336358   -0.1389344620
 C   -2.3614701417   -0.3088703027    0.8521414808
 O   -2.7922842791    1.0440900975    0.8229011002
 C   -1.7405154882   -0.3671746434   -1.5874554839
 C   -2.1566251470   -1.7292787947   -2.0811709918
 C   -1.7418659108   -2.7033152602   -1.2741212945
 C   -0.9723084669   -2.1702200104   -0.0901485178
 H    1.5790147886    0.5934645258    1.6485247100
 H   -0.0190453761    0.3519902790    2.3513684948
 H    0.8969030861   -1.0323213242    1.7528487575
 H   -0.1835768038    1.2632068359   -0.0021348152
 H    0.7983854327   -0.0521863673   -0.5948335008
 H   -3.2396793343   -0.9043667715    0.5810888359
 H   -2.0703542474   -0.6070868736    1.8702075936
 H   -2.0902092964    1.5889701537    1.1908133275
 H   -2.5533405053    0.3670166962   -1.5840518673
 H   -0.9516518458    0.0532909981   -2.2277491426
 H   -2.7080895492   -1.8731011027   -3.0041959130
 H   -1.8987618251   -3.7644194331   -1.4356259537
 H    0.0970086114   -2.4103424555   -0.1781811410
 H   -1.3006092782   -2.6124822697    0.8599806122