19

 C   -0.2013929502    1.5487846976    0.1476522509
 C    0.0784759280    0.0404348177    0.0213555888
 C    0.8235652306   -0.5379414601    1.1800608557
 C    2.0838294431   -1.0692708196    1.3001343714
 N    2.3294586314   -1.4906433080    2.5884930687
 C    1.2341556585   -1.2106343407    3.2583156221
 C    0.9796989804   -1.4405367375    4.7151506959
 O   -0.3698360639   -1.8252457735    4.9668446149
 N    0.2936590577   -0.6316249628    2.4530474981
 H    0.7326602802    2.1104151042    0.2406255499
 H   -0.7403518667    1.9190466036   -0.7298318844
 H   -0.8104188705    1.7709338337    1.0303238872
 H   -0.8717881917   -0.4925785191   -0.1215590015
 H    0.6688570827   -0.1472448432   -0.8812687069
 H    2.8238622401   -1.1803249271    0.5211529680
 H    1.7096806241   -2.1712359503    5.0844855059
 H    1.1212411365   -0.5167567358    5.2888681314
 H   -0.5046638482   -2.6859954358    4.5556672947
 H   -0.6351487120   -0.3800371635    2.7497207090