12

 C   -0.0216926252    1.4788959085   -0.0300881576
 C    0.0019101198   -0.0154254206    0.0482467584
 N   -0.0724150714   -0.7527975537   -1.0591188622
 N   -0.0243943534   -2.0284858667   -0.6244741450
 C    0.0778847606   -2.1269779270    0.7221710273
 C    0.0983510000   -0.8359107984    1.2005202485
 H    0.8908826308    1.9166305221    0.3893143385
 H   -0.1075112486    1.7950381153   -1.0717861958
 H   -0.8670406647    1.8960851288    0.5281064417
 H   -0.0662426878   -2.7738574005   -1.2975738102
 H    0.1266986481   -3.0827613725    1.2199525627
 H    0.1719950318   -0.5254876352    2.2303848037