13

 O   -0.4147242405    0.4547451892    0.5661482893
 C    0.0456660531    1.0171164323   -0.3865775684
 C    1.3634290595    1.8075021466   -0.3297396962
 C    1.3486929568    2.9768742463   -1.1855490649
 C    1.2800204832    3.9349422621   -1.9170544765
 C    1.1943484779    5.0653164383   -2.7996637302
 O    1.7951344976    6.1089588912   -2.6543253298
 C    0.2631472353    4.9136330616   -4.0134181976
 O   -0.3745974687    3.9256122582   -4.2518933002
 H   -0.4340414637    0.9944996009   -1.3870618824
 H    1.5818125097    2.0558565497    0.7136994458
 H    2.1556421127    1.1220789198   -0.6686674448
 H    0.2531665072    5.8284112039   -4.6417156541