21

 C   -0.1200787016    1.4388245500   -0.0917335597
 C    0.0950606739   -0.0570118367   -0.0311076211
 C    1.4868396668   -0.6454316140   -0.1348454777
 C    0.7394538318   -0.6952667212    1.1631457565
 C    1.1014155702   -0.0741266626    2.5099559008
 O    0.6309517103   -1.2558859838    3.2033156611
 C    0.2928383283   -1.8931671848    1.9679238288
 C   -0.9033818970   -2.7757570336    1.8385159391
 C    0.5055551413   -3.3543828570    1.7525632599
 H    0.7041117099    1.9784546464    0.3871358338
 H   -0.1825686036    1.7867250596   -1.1284802279
 H   -1.0462454626    1.7310456420    0.4154509361
 H   -0.6943556467   -0.6447910295   -0.4955341171
 H    1.6220997272   -1.5720261166   -0.6843804797
 H    2.3253212693    0.0417401134   -0.2093149490
 H    2.1699627616    0.1005979767    2.6864690674
 H    0.5335758961    0.8186174417    2.7999492897
 H   -1.4696570344   -2.9710834309    2.7429496255
 H   -1.4991865312   -2.7193312327    0.9326698934
 H    0.8720801046   -3.6913938550    0.7877481672
 H    0.8624202657   -3.9297528514    2.6001425629