12

 O   -0.0927905029   -0.0024112517   -0.0891969116
 C   -0.0937527617    1.1820685389    0.0089344370
 C   -1.1408991154    2.2814832609   -0.1107096466
 O   -0.9486392488    3.0983290015    1.0651566338
 C   -0.0734701851    3.3095859967   -0.0254594988
 C    1.0627896636    2.2707865219    0.1036276613
 C    1.9230871287    2.3223362889    1.2609364548
 C    2.6365186481    2.3537718098    2.2274149408
 H   -2.1176783630    2.2889548260   -0.5779584169
 H   -0.0402042556    4.2892131599   -0.4853714667
 H    1.6411340764    2.1871813767   -0.8259681814
 H    3.2606710157    2.3805689006    3.0862270644