25

 C   -0.1148272328    1.5982631002   -0.0304725122
 C    0.0584414752    0.0891581721    0.0514757675
 C    1.0582516304   -0.6260595418   -0.8944080600
 C    1.3948243213   -1.6117008330    0.2557874021
 C    2.8209172552   -2.1233654756    0.4044689539
 C    0.7937885368   -0.5739198664    1.2713217346
 C    1.8411688931    0.3274826627    1.9297123163
 C   -0.1253248283   -1.1740302725    2.3263223498
 O   -0.8127287841   -0.1138142177    2.9822908968
 H    0.8433605655    2.1234244705    0.0383039689
 H   -0.5775325250    1.8833410789   -0.9823480680
 H   -0.7564864426    1.9595338029    0.7793440675
 H   -0.9259851553   -0.3847843800   -0.0452800366
 H    0.6721016027   -1.0442024020   -1.8281147401
 H    1.9137219654    0.0153796843   -1.1352496004
 H    0.7135304464   -2.4702342693    0.1987003422
 H    3.5448114263   -1.3035672583    0.4462939807
 H    2.9449536767   -2.7253219407    1.3120106734
 H    3.0904347452   -2.7565260403   -0.4485333860
 H    2.5053128301    0.7966560242    1.1981659011
 H    1.3535139520    1.1187941281    2.5038833153
 H    2.4670649397   -0.2485667916    2.6207142945
 H   -0.8390300151   -1.8594419835    1.8411764636
 H    0.4649074255   -1.7673040712    3.0460597606
 H   -1.3885167444   -0.4944967997    3.6514212645