21

 C    0.1342293497    1.3572662938   -0.3269727070
 C    0.0492981794   -0.0872344096    0.1627002236
 O    0.5905717067   -0.2521375207    1.4716442292
 C   -1.3757935145   -0.6662060523    0.0984034469
 C   -2.3441772703   -0.0159318288    1.0777013574
 O   -1.9209524574   -0.5785990444   -1.2647424018
 C   -2.1961566292   -1.9825502928   -1.2581672092
 C   -0.9358133667   -2.7804998097   -1.1906863764
 C   -1.5263401281   -2.1958391094    0.0767249783
 H    1.1777087394    1.6835531551   -0.3484749062
 H   -0.2867075940    1.4421291820   -1.3319632171
 H   -0.4198894201    2.0391659321    0.3292697241
 H    0.6840596924   -0.7052284521   -0.4797892726
 H    0.2614908368    0.4676436407    2.0199152464
 H   -2.4561565564    1.0522473528    0.8715899246
 H   -3.3293137465   -0.4812873345    0.9924927087
 H   -1.9937866016   -0.1461772448    2.1065690154
 H   -3.1396140250   -2.3153627653   -1.6749447241
 H   -1.0595902025   -3.8560295185   -1.2762642656
 H   -0.0240333590   -2.3910396888   -1.6329950657
 H   -1.8182793030   -2.7999925248    0.9248915313