21

 C    0.9429142912    1.5797699986   -0.0458809639
 O    0.1990371538    0.3788428708   -0.1030001982
 C    0.5959123266   -0.5212431448   -1.1334657075
 C    0.7130005056   -1.9255005751   -0.5091912259
 C    1.7879075875   -2.0067531689    0.5494110160
 O    2.6775217359   -2.8202797808    0.5597403583
 C   -0.3980901872   -0.5257393663   -2.2854073385
 C   -1.8804189897   -0.5167821317   -2.0147756956
 C   -1.2178639022    0.6877309048   -2.6377161000
 H    2.0027551431    1.3886001751    0.1792232657
 H    0.8861090564    2.1505941821   -0.9827109531
 H    0.5156020164    2.1818428566    0.7600215735
 H    1.5827610195   -0.2213054242   -1.5181504912
 H   -0.2526959216   -2.1542866993   -0.0390773752
 H    0.9142702554   -2.6790414980   -1.2754392852
 H    1.7034766124   -1.2382130555    1.3487481370
 H   -0.0674842538   -1.1359493897   -3.1219335260
 H   -2.5231001298   -1.1378299329   -2.6283330327
 H   -2.1940744085   -0.4163601132   -0.9816636114
 H   -1.1235833713    1.5676960077   -2.0133877210
 H   -1.3929472896    0.8957709246   -3.6873921851