22

 C    0.3442656979    1.3752074490    0.3371158020
 C    0.0078560581   -0.0657761781   -0.0655040656
 C   -1.4959573372   -0.2523246356   -0.3004627160
 C    0.7921125878   -0.4915730252   -1.3057666305
 O    2.1800824147   -0.4390231745   -1.0164155564
 C    2.9850813993   -0.7776168958   -2.0991901806
 C    3.3392378038    0.2793260448   -3.1158270488
 C    4.3642861055   -0.2060530182   -2.1078495501
 H    1.4200629084    1.4961828297    0.4828061882
 H    0.0259335737    2.0806333371   -0.4406653531
 H   -0.1647537621    1.6532493748    1.2656572269
 H    0.3190040698   -0.7326229070    0.7497568285
 H   -1.8483720011    0.3800648942   -1.1241838988
 H   -1.7408080452   -1.2907617128   -0.5482930414
 H   -2.0667699539    0.0221329226    0.5920537315
 H    0.5092684414   -1.5153646408   -1.6025856297
 H    0.5557222186    0.1712967104   -2.1549289741
 H    2.8465019913   -1.7988059610   -2.4586534521
 H    3.4484058363   -0.0077594445   -4.1559376815
 H    2.9259029348    1.2688335637   -2.9554930893
 H    4.6105721386    0.4654086197   -1.2933370084
 H    5.1829317194   -0.8300074026   -2.4481333807