17

 C    0.0444940205    1.4901980319   -0.0858721935
 C    0.0132731632   -0.0073026114    0.0411289746
 C   -1.3171362779   -0.7655085302    0.3639142220
 C   -0.4918468894   -1.6899432385    1.2642474146
 C    0.6799887695   -0.7712697083    1.2214757985
 N    0.7952107245   -2.0973539610    0.6260608758
 C    0.8590148395   -1.9294487636   -0.7923816316
 N    1.1533985242   -2.8566760702   -1.5900642026
 O    0.5925131415   -0.6239037818   -1.1269410525
 H    1.0717426982    1.8390764041   -0.2275289888
 H   -0.5516301500    1.8187059014   -0.9421531966
 H   -0.3614731219    1.9563805986    0.8162450400
 H   -1.9964081027   -0.1514527137    0.9612911267
 H   -1.8509013099   -1.1952164118   -0.4884348533
 H   -0.8494532095   -2.3310219445    2.0598413785
 H    1.3890452274   -0.4306306001    1.9660657407
 H    1.1367344829   -2.5091270910   -2.5490649125