23

 C   -0.0818224500    1.5355888138   -0.0879870575
 C    0.0040643596    0.0065304116   -0.0483669543
 C    0.7761117627   -0.5392508122    1.1588470448
 C    0.7723090232   -2.0598455813    1.2943107490
 C    1.6888725222   -2.8619474815    0.4021780949
 C    2.1255088586   -2.5022411612    1.8033829776
 C    2.9802533461   -1.2594116962    2.0082262459
 C    2.2823688232   -0.1215983667    1.2240600467
 O    2.8745713403    0.1250814841   -0.0507043168
 H    0.9108741485    1.9788453887   -0.2047392886
 H   -0.6987569731    1.8728582988   -0.9269800259
 H   -0.5277902213    1.9340659782    0.8309309645
 H   -1.0077158784   -0.4183522070   -0.0305643421
 H    0.4762272939   -0.3537990404   -0.9681566438
 H    0.3059282090   -0.1391698363    2.0697224090
 H   -0.1406287069   -2.5346862464    1.6387471505
 H    1.4229872597   -3.8986848558    0.2242427084
 H    2.1459184933   -2.3909989968   -0.4625576445
 H    2.2171319310   -3.3092836420    2.5221052688
 H    3.0050780715   -1.0142852647    3.0765004895
 H    4.0217263925   -1.3675634715    1.6837657545
 H    2.3833670824    0.8323948800    1.7482186847
 H    3.1458514620   -0.7120167453   -0.4363730554