21

 C   -0.0202132262    1.5834948641   -0.0465080932
 C    1.4652199161    1.8995614688   -0.0342945174
 C    2.1796442286    0.8959099802    0.4796424340
 C    1.2740576057   -0.2278155391    0.9308134491
 C    1.6812203587   -1.6926414283    0.7768030722
 C    0.4667965435   -2.5715526643    0.9929063261
 C   -0.7935746279   -2.1284261797    0.9936858236
 C   -1.1935270452   -0.6940286838    0.7158262570
 C   -0.0065621831    0.0508460682    0.1150634456
 H   -0.5268506729    2.0760750611    0.7984548128
 H   -0.5311818988    1.9180039893   -0.9560097219
 H    1.8666315579    2.8500568379   -0.3685774412
 H    3.2536715875    0.8997968772    0.6326944819
 H    1.0442333490   -0.0755413235    2.0003117631
 H    2.1089807837   -1.8755262862   -0.2205395147
 H    2.4668856486   -1.9647736202    1.4935182989
 H    0.6553867262   -3.6282307935    1.1695002473
 H   -1.6008860647   -2.8317351823    1.1858813524
 H   -2.0585347161   -0.6769191767    0.0399476069
 H   -1.5315863590   -0.2089559304    1.6443393504
 H    0.1753100185   -0.3687174887   -0.8852304728