18

 C    0.0229479938    1.5339876242    0.1322785727
 C   -0.0795883851    0.0111114470   -0.0606447530
 C    0.6811869021   -0.4863435797   -1.2664118290
 C    0.0389576561   -0.7912266886   -2.4623258008
 N    0.6596553082   -1.2100841758   -3.5722951417
 C    1.9777271027   -1.3440167666   -3.5252994130
 O    2.6023895121   -1.7667453340   -4.6461045901
 C    2.7431798924   -1.0766213457   -2.3846334382
 C    2.0746259904   -0.6449308999   -1.2536438879
 H    1.0652186186    1.8458555178    0.2550772714
 H   -0.3809362157    2.0655995441   -0.7350838536
 H   -0.5326556029    1.8552338270    1.0190039001
 H    0.2918627293   -0.4914682244    0.8408435764
 H   -1.1341193931   -0.2710567076   -0.1576219234
 H   -1.0431263256   -0.6979174664   -2.5352709486
 H    1.9041054417   -1.8950067566   -5.3031980001
 H    3.8170595801   -1.2141478326   -2.4076949248
 H    2.6341090350   -0.4317308823   -0.3468236764