15

 C   -0.0233486015    1.5236015107    0.0320102191
 C    0.0030103863    0.0181100927    0.0006331365
 C   -0.0266197464   -0.6728750992   -1.1770098379
 C   -0.0018789510   -2.1208785017   -1.2427235433
 O   -0.0251307784   -2.8149527663   -2.2464884739
 N    0.0553591420   -2.7262898655    0.0304758097
 C    0.0854666319   -2.0558152644    1.2133418513
 C    0.0610563350   -0.6984861767    1.2398934185
 H    0.8712792957    1.9177500024    0.5277272993
 H   -0.0729394192    1.9460312620   -0.9737111815
 H   -0.8871524867    1.8856851562    0.6012854512
 H   -0.0707202132   -0.1615057958   -2.1315868142
 H    0.0734321191   -3.7362638480    0.0096642217
 H    0.1290334293   -2.6666576436    2.1073171309
 H    0.0852880671   -0.1730928628    2.1856288926