12

 O   -0.0549074164    1.3087935909    0.0096246925
 C    1.2451090410    1.7724319019   -0.0001205456
 C    2.1277182461    0.7520036200   -0.0142371333
 N    1.3594082061   -0.4098215487   -0.0133943767
 C    1.3587490659   -1.7967181509   -0.0210099718
 C    0.0236399259   -2.1309894004   -0.0099287980
 N   -0.8098068508   -1.0214257856    0.0039605222
 C    0.0431415041   -0.0395671260    0.0012273271
 H    1.3688723885    2.8405658805    0.0046337055
 H    3.2032878563    0.7614313690   -0.0244712525
 H    2.2607528834   -2.3824077115   -0.0329252548
 H   -0.3934408500   -3.1265537891   -0.0113330346