13

 C    0.1497009102    1.4882171984   -0.0347381427
 C    0.0348901729   -0.0134799679    0.0839917728
 O    1.2122985685   -0.7778137520   -0.1316760786
 C    0.6752288326   -0.8116593333    1.1827946609
 C    1.4441271557   -0.1379640645    2.2838500351
 O    2.3112636236    0.6778778468    2.1117104669
 C   -1.1739577977   -0.5903663223   -0.4903312362
 N   -2.1477179649   -1.0205156384   -0.9398046236
 H    1.0747873641    1.8251262745    0.4323971232
 H    0.1594745981    1.7679453580   -1.0918912158
 H   -0.7065700195    1.9758451968    0.4396665984
 H    0.1942796975   -1.7490666450    1.4634261956
 H    1.1313316991   -0.4587105609    3.3008704339