19

 O   -0.6127770403    0.7531812841    0.6984925011
 C    0.1147401195    0.9636313824   -0.2364288578
 C    1.3453862918    1.8443264409   -0.2001461222
 C    1.2944688231    2.9559164866   -1.2604024162
 C    0.2222016874    4.0116722733   -0.9480209915
 O    0.2687974548    5.0669472440   -1.8960081104
 C    1.5398033275    5.6585222373   -1.9349177303
 O    2.5476778900    4.7561935753   -2.3104720005
 C    2.6414263886    3.6811220779   -1.3897675329
 H   -0.0842829888    0.5036678564   -1.2334664777
 H    1.4569061363    2.2498255416    0.8104946690
 H    2.2121968455    1.1984688922   -0.4048875161
 H    1.0596820615    2.5187377742   -2.2394557966
 H   -0.7880254948    3.5954120356   -0.9906727555
 H    0.3813904109    4.4082484444    0.0703995222
 H    1.5081501007    6.4392139241   -2.6967717089
 H    1.7798192722    6.0945706792   -0.9451851637
 H    2.9577696435    4.0560085213   -0.4001466894
 H    3.4219059905    3.0125323694   -1.7642948126