19

 C   -0.1293456988    1.4299671691    0.0296379404
 C    0.0126697488   -0.0621635659    0.0495772724
 C   -0.0833981924   -0.9178180883   -1.2496058984
 C    0.6135626449   -2.2482254572   -0.9735144033
 C    0.0240130152   -2.1531855479    0.4573018024
 C    0.7424359995   -0.9132073024    1.0727210788
 O    2.1508849166   -0.8371012975    1.0434419278
 C   -1.0500483116   -1.1143259368   -0.1031781998
 O   -2.4037304337   -0.9673687450    0.0493377844
 H    0.8177889263    1.9154056208   -0.2288406208
 H   -0.8800501900    1.7432651853   -0.7029952894
 H   -0.4456687866    1.8088403167    1.0080102199
 H   -0.2543140705   -0.4199843290   -2.1959957703
 H    0.1698079546   -3.0672695065   -1.5469858893
 H    1.7044967432   -2.2824268802   -1.0427423817
 H   -0.1712672558   -3.0408886203    1.0566584754
 H    0.3504139367   -0.7040290960    2.0790309697
 H    2.5003629157   -1.3958227082    1.7452193991
 H   -2.8487265022   -1.6165454907   -0.5073019471