17

 O   -0.0822892583   -0.0579573849   -0.0616925501
 C   -0.0580294969    1.1480481111    0.0368710225
 C   -1.2949729024    1.9573684431    0.0700914171
 C   -1.2972224122    3.2825495425    0.2609401985
 C   -0.0518726581    4.0833322975    0.5106816786
 C    1.1147589277    3.2031606209    0.9704139563
 C    1.2624099926    1.9542152358    0.0702217736
 C    2.4073061509    1.1374946626    0.4433699047
 C    3.3680355180    0.5003184394    0.7803675306
 H   -2.2126250256    1.3984120399   -0.0844891513
 H   -2.2398185293    3.8253433476    0.2355562745
 H    0.2152612678    4.6217909876   -0.4120864833
 H   -0.2564906648    4.8634359066    1.2531315227
 H    2.0511916520    3.7672430307    0.9693336823
 H    0.9415110209    2.8710687866    2.0002140474
 H    1.4016958805    2.3040612008   -0.9662824025
 H    4.2078996770   -0.0827091877    1.0669179783