16

 O   -0.0848520941   -0.0492150148   -0.0924863260
 C   -0.0686556439    1.1522257901    0.0404578059
 C   -1.2948085866    1.9716263885    0.0942781451
 C   -1.2494731658    3.2993032496    0.2489642701
 C    0.0326713457    4.0363375679    0.4881722152
 N    1.0714449064    3.1257574063    0.9450183083
 C    1.2492550579    1.9698092773    0.0563843840
 C    2.3987655060    1.1763588318    0.4649746782
 C    3.3701709798    0.5566522612    0.8016791102
 H   -2.2264965701    1.4340316238   -0.0497177387
 H   -2.1578930225    3.8940635441    0.2023772136
 H    0.2937338919    4.5819690596   -0.4439421708
 H   -0.1232101470    4.8042184638    1.2553807912
 H    1.9558006464    3.6084739659    1.0535116597
 H    1.4021107834    2.2752455637   -1.0019312697
 H    4.2169248625   -0.0106900187    1.1000421838