20

 C   -0.4127792533    1.4721867124    0.0083822186
 C   -0.0972250826    0.0099778568   -0.0223054681
 C    0.1297055768   -0.7534299831   -1.0913757214
 C    0.4063082381   -2.1931818589   -0.7340314982
 C   -0.0206412602   -2.2623474959    0.7501337723
 C    0.0071096707   -0.8051730481    1.2678572626
 C    1.2901021047   -0.4796800996    2.0460825833
 O   -1.1320831089   -0.6255326131    2.1187119260
 H    0.3473393863    2.0442093109    0.5566615529
 H   -0.4801949149    1.8899142323   -0.9994889108
 H   -1.3699440689    1.6490524819    0.5140626871
 H    0.1396458372   -0.3925410207   -2.1154916060
 H   -0.1452835836   -2.9013605358   -1.3628654483
 H    1.4705286046   -2.4362854398   -0.8646015128
 H   -1.0549605185   -2.6083346224    0.8266085975
 H    0.5998314751   -2.9318918056    1.3518305239
 H    2.1794532766   -0.6961127654    1.4462223849
 H    1.3314864427    0.5801856259    2.3257710986
 H    1.3322825996   -1.0766266257    2.9625927162
 H   -1.0094419817    0.1902523639    2.6150363618