17

 O   -0.0426091878    1.4514154721   -0.1281762850
 C    0.0179531532    0.0539278306    0.0472391073
 C    0.2591906483   -0.5276225396    1.4863389611
 C   -1.0657605864   -1.2757051797    1.3874505002
 C   -2.1953229769   -0.2790049770    1.1626698465
 C   -1.3474773312   -0.6173235276   -0.0077366947
 O   -1.8419499177   -1.2282595365   -1.1389553350
 C   -1.3010175277   -2.6718369852    1.7603682452
 O   -0.4866363502   -3.3764214134    2.3119845360
 H    0.8554593064    1.7978040710   -0.1255514581
 H    0.6882363938   -0.4194474860   -0.6814170366
 H    1.1217840306   -1.1913848921    1.5578140038
 H    0.3065378633    0.2292680901    2.2744228475
 H   -3.1870879117   -0.7223582876    1.1342454481
 H   -2.1370735020    0.6923311085    1.6455739898
 H   -2.5767838139   -0.7045558332   -1.4760592808
 H   -2.3046004701   -3.0620469444    1.4762038547