17

 O   -0.0409188502    0.0500897914    0.2091379208
 C   -0.0511020716    1.2358157424    0.0028892524
 C   -1.2974886875    2.1007406881   -0.1924610026
 C   -0.8090398248    3.3546744838   -0.9196021837
 O   -1.4935437597    4.1108622726   -1.5585426897
 C    0.6992618751    3.4778159029   -0.7231210228
 C    1.1118095861    4.2016704761    0.6050571754
 C    1.5950137436    2.8483835044    1.1949100444
 C    1.1845175461    2.1210785543   -0.1320845750
 H   -2.1075902935    1.5851332454   -0.7112554906
 H   -1.6823173935    2.3929272297    0.7949325671
 H    1.1730758126    3.8625326906   -1.6265105150
 H    1.9037237035    4.9382786977    0.4614043053
 H    0.2926240149    4.6894195374    1.1390336170
 H    2.6666744366    2.8009915445    1.3940004887
 H    1.0718048209    2.5047515767    2.0906129104
 H    1.9892498012    1.5821372419   -0.6326337224