18

 C    0.1003305989    1.5470303621    0.0247354177
 C    0.0675523580    0.0339259089    0.2386952435
 O    0.2743591157   -0.2985130544    1.6088930191
 C   -1.2263639657   -0.5910519813   -0.3088757224
 C   -1.2683908608   -2.0771908146   -0.1971726294
 C   -0.6924958024   -3.0182041182    0.5931015905
 N   -1.1296786415   -4.2830580157    0.2082207159
 C   -1.9349879009   -4.0499189186   -0.7727140770
 O   -2.0791304196   -2.7414201664   -1.0883847043
 H    1.0191759553    1.9636421363    0.4448709229
 H    0.0567008038    1.8005767102   -1.0392000656
 H   -0.7522263920    2.0298333755    0.5189069969
 H    0.9178192807   -0.4241492251   -0.2792135402
 H   -0.4421390489    0.0945767790    2.1204182244
 H   -2.0854870994   -0.1419338799    0.2142839515
 H   -1.3432061149   -0.3162438144   -1.3636991582
 H   -0.0029129840   -2.8683925983    1.4059329685
 H   -2.4970177123   -4.7550301449   -1.3648981637