15

 N    0.0158551462    1.3286496262    0.1600167068
 C   -0.0676489395   -0.0259657298    0.0011558395
 N   -1.1884098779   -0.6448302322    0.0188955552
 C   -1.2454546097   -2.0753051300   -0.1852951357
 C   -0.0227474910   -2.7453626047   -0.7720055550
 O    0.5142877096   -2.1555300074   -1.9462033897
 C    1.2821704552   -2.0493170901   -0.7362602023
 C    1.2921274104   -0.6809010571   -0.1493477501
 O    2.3048426771   -0.1265772961    0.2224107035
 H    0.9160870872    1.6783169232    0.4504952731
 H   -0.8037833571    1.7926037475    0.5175971829
 H   -1.4819534259   -2.5646890469    0.7714673426
 H   -2.1018909128   -2.2906370324   -0.8394741097
 H   -0.0166351701   -3.8360322967   -0.7713370118
 H    2.2266506384   -2.5871649235   -0.7188787394