11

 O   -0.5742327066    0.6880734522   -0.7031263810
 C    0.3155436084    0.8295302919    0.0879683385
 C    1.4107029387    1.8620010363   -0.0173619293
 C    1.8574449868    2.4614299560    1.2709688662
 O    2.6180987241    1.4433735919    0.6582944172
 C    1.5543163041    2.5824327651   -1.2509908361
 C    1.6592220880    3.1750285588   -2.2898789247
 H    0.4264096957    0.1999936070    0.9981902441
 H    2.2782609277    3.4639842218    1.2353425169
 H    1.3473212670    2.1862268939    2.1939456067
 H    1.7515750061    3.6956869750   -3.2113552886