17

 O    0.4739639577    1.0875009918    1.4099417978
 C    0.1725419581    1.5818911843    0.3437831472
 N    0.9499094900    1.5387779267   -0.7705540758
 C    2.2324086514    0.8485641366   -0.7902456873
 C    3.3654463293    1.6831410888   -0.1994111764
 C    4.8138941290    1.1789456875   -0.4665839460
 C    5.0363504969    2.5394834856   -1.1733229658
 O    5.9597644258    3.1134783016   -1.6806754747
 N    3.7158347048    2.8852754885   -0.9749465233
 H   -0.7789991711    2.1221223411    0.1698333081
 H    0.6186123427    1.9839292683   -1.6104955306
 H    2.1319559091   -0.0749428331   -0.2113934884
 H    2.4650320700    0.5898399770   -1.8275010616
 H    3.1555132215    1.8925228359    0.8534920208
 H    5.4338735095    1.0335583335    0.4189098530
 H    4.8962016989    0.3067388028   -1.1190748864
 H    3.2711323363    3.7905556831   -1.0249561507