17

 N    0.0485613518    1.4456323332   -0.0450045365
 C    0.0549246935   -0.0077644660   -0.0319667548
 C    0.8330992318   -0.5098546386    1.1815989268
 O    0.1758571832   -0.1087545242    2.3574260725
 C    0.5766518759   -1.0423018553    3.3594017531
 C    0.8152031709   -2.3438645561    2.5616808394
 O    0.8513387878   -1.9171205277    1.1948312527
 C    2.2428535188    0.0019829507    1.1929078854
 N    3.3471146829    0.3382066360    1.2350158582
 H   -0.3176734736    1.7936614341   -0.9228824938
 H   -0.5437578681    1.8002061046    0.6980590062
 H   -0.9306918957   -0.4949608609    0.0257946431
 H    0.5607274441   -0.3764899942   -0.9290703336
 H    1.4924875701   -0.7010383858    3.8568645357
 H   -0.2282424854   -1.1154183776    4.0923676105
 H    1.7586837118   -2.8272084923    2.8342977453
 H   -0.0013743499   -3.0637053197    2.6682840097