15

 N    0.0634604316    0.9937339954   -0.9284691762
 C    0.0290404354    0.0045878100   -0.1403677626
 O    1.2233269297   -0.4157373782    0.3979589073
 C    1.5305478290   -1.4198604572    1.2546837443
 C    0.7499191348   -2.3293238357    1.8524169038
 C   -0.6749563020   -2.4929150849    1.7436987820
 C   -1.5487779851   -1.7697886781    1.0171134529
 C   -1.3265035475   -0.6288839547    0.1404553357
 N   -2.3564850022   -0.1273440647   -0.4338610966
 H    1.0165954679    1.3372090790   -1.0439635211
 H    2.6011032267   -1.4056554056    1.4235694295
 H    1.2791717703   -3.0226342994    2.4973226557
 H   -1.0888533438   -3.3095833906    2.3285892028
 H   -2.5995422956   -2.0372634361    1.0546970919
 H   -2.0611661591    0.6616497107   -1.0167652694