21

 C   -0.0897312273    1.4568763698   -0.0411552906
 C    0.0306842940   -0.0480976265    0.0136197621
 C   -0.7718770657   -0.8138086711    1.0420276997
 C    0.7424590304   -0.7660811927    1.1511818638
 C    1.4502988151   -1.9165057509    0.5190644571
 C    1.2420403848   -1.9590022279   -0.7989357437
 C    0.4086060674   -0.7883586275   -1.2814556292
 C   -0.7856765048   -1.1871525503   -2.1496067091
 O   -0.2761519161   -1.7798357844   -3.3373424070
 H    0.8278050678    1.9139849626   -0.4294660384
 H   -0.9158071201    1.7701792632   -0.6915052832
 H   -0.2780760359    1.8776656106    0.9517029146
 H   -1.3444293705   -0.2164711104    1.7454824235
 H   -1.2248538447   -1.7653305500    0.7850248593
 H    1.1907858322   -0.2254717151    1.9785697855
 H    2.0253428759   -2.6379084772    1.0892908477
 H    1.5931332546   -2.7257551823   -1.4782853775
 H    1.0284704096   -0.1283584296   -1.9077149251
 H   -1.4307809292   -1.8890234954   -1.6009536312
 H   -1.3873496310   -0.2929483928   -2.3799324060
 H   -1.0196859964   -2.0884266223   -3.8629807422