22

 C   -0.0526269477    1.4997356865    0.1223989940
 C   -0.0833735213   -0.0205545685   -0.0167840326
 N    0.5925319948   -0.4849072651   -1.2175589030
 C   -0.0635869506   -0.2483103572   -2.5339509121
 C    0.5065943015    0.8482551418   -3.4218447225
 C    0.2824162938   -1.7042597652   -2.8815670228
 O    0.3159039032   -2.3469766747   -3.8888700309
 C    0.6595928640   -1.9576134254   -1.4159736524
 C    1.9806585968   -2.6389038402   -1.0967458932
 H    0.9774762299    1.8669857726    0.1081413051
 H   -0.5982052178    1.9862102832   -0.6924803401
 H   -0.5209592990    1.8068882715    1.0625307343
 H    0.4242298084   -0.4747312847    0.8428160023
 H   -1.1340907116   -0.3743003802    0.0154140612
 H   -1.1603419799   -0.1423051169   -2.4428961870
 H    1.5942991237    0.7596731932   -3.4857393475
 H    0.0895677329    0.7609960259   -4.4301521671
 H    0.2656357544    1.8425954068   -3.0353712703
 H   -0.1745436804   -2.4843870045   -0.9161213726
 H    2.8075080642   -2.1248463798   -1.5936040924
 H    2.1721872669   -2.6358125318   -0.0189289688
 H    1.9586315637   -3.6789730874   -1.4364501617