23

 C   -0.3223437059    1.5819898118   -0.0286143668
 C    0.0033459589    0.0843067859   -0.0745095717
 C    0.7230819802   -0.4256238059   -1.3457818098
 C    2.1806101937   -0.8063535768   -0.9343351407
 C    2.7481891903   -1.9131754494   -1.8282345529
 C    3.0998019534    0.4282227817   -0.9943618429
 C    2.0106837153   -1.2515750321    0.5343364021
 C    0.9209713969   -0.3386277428    1.0874811277
 O    0.7952217160    0.0158437540    2.2320510083
 H    0.5621097675    2.1907762576   -0.2422162992
 H   -1.0896898150    1.8369758119   -0.7655714128
 H   -0.6863951203    1.8537286414    0.9656588914
 H   -0.9363557760   -0.4640728568    0.0728380418
 H    0.2160508545   -1.3144892841   -1.7360897577
 H    0.7191550450    0.3172602423   -2.1497146998
 H    2.7994586208   -1.5854859108   -2.8729927786
 H    3.7613574377   -2.1942205348   -1.5201220638
 H    2.1243146322   -2.8128319476   -1.7908565610
 H    2.7448289308    1.2376641931   -0.3474681059
 H    4.1147535231    0.1737232012   -0.6698556770
 H    3.1614278196    0.8206690721   -2.0150176550
 H    1.6302885527   -2.2824249542    0.5778391678
 H    2.9188340685   -1.2093602976    1.1403534065