20

 C    0.1113093466    1.5447047589    0.0720405126
 C    0.0049496577    0.0067278120   -0.0157747027
 C   -1.4459014626   -0.4987156421    0.0091116991
 C   -2.1869784782   -0.1570261959    1.3173219107
 C   -3.5267563337   -0.7395032545    1.3616981633
 N   -4.5830288422   -1.2073860970    1.3860631202
 C    0.6940043968   -0.4402019608   -1.3129969617
 C    2.1813688707   -0.7270519959   -1.2284531132
 O    0.0776592263   -0.5439029038   -2.3480076166
 H    1.1497627234    1.8792233294   -0.0120980260
 H   -0.4595081851    2.0124125107   -0.7363385725
 H   -0.2705665385    1.9179631068    1.0261977483
 H    0.5580259029   -0.4231912345    0.8304518079
 H   -1.9863097254   -0.0842960086   -0.8458820329
 H   -1.4518717940   -1.5852003417   -0.1246729483
 H   -1.6246821165   -0.5251248146    2.1844484374
 H   -2.2839278832    0.9264809473    1.4429380114
 H    2.7117380649    0.0637157133   -0.6879187709
 H    2.3366767809   -1.6543738719   -0.6632868610
 H    2.5983348889   -0.8441642272   -2.2292687251