18

 C   -0.1371923167    1.5232485659    0.1098815186
 C   -0.0190151688    0.0422506275   -0.0380950894
 C   -0.0536412830   -0.7613018572   -1.1558987334
 C    0.1086000077   -2.1155662065   -0.7339371619
 C    0.2309432810   -2.0977158978    0.6369708858
 N    0.1559330792   -0.7886557340    1.0443127633
 C    0.1434409324   -3.3180022227   -1.5906532997
 C    1.3011166303   -4.2330990957   -1.6347541617
 O    0.1154338676   -4.5859341249   -0.9235529826
 H    0.7593157776    1.9693373158    0.5588176716
 H   -0.2772146917    1.9833935924   -0.8708151146
 H   -0.9922818632    1.8114475106    0.7345024680
 H   -0.1759038986   -0.4144230586   -2.1715365868
 H    0.3389516863   -2.9088732540    1.3373038644
 H    0.1920728325   -0.4824774153    2.0011339018
 H   -0.4802846727   -3.2756137526   -2.4851662592
 H    1.5009639551   -4.8206629636   -2.5309149056
 H    2.1676116451   -4.0069822293   -1.0153671887