18

 C   -0.0665393483    1.5062484250   -0.0085977697
 C   -0.0090901857   -0.0230739807   -0.0129079797
 C    0.7279905778   -0.5735081422   -1.2388749253
 N    0.7895718790   -2.0373107096   -1.2781445855
 C   -0.3368053588   -2.7108985558   -1.7668971005
 N   -0.4900578485   -3.9685050907   -1.7594921560
 C    1.9439279480   -2.6604485687   -0.8057678798
 O    2.1551678777   -3.8398041931   -0.7328947974
 H    0.9381202901    1.9430500610    0.0014013007
 H   -0.5848414633    1.8882622692   -0.8951127595
 H   -0.5981061228    1.8767278533    0.8721390037
 H    0.4915093514   -0.3875684071    0.8921711465
 H   -1.0243437551   -0.4378579834    0.0106606701
 H    0.2493873745   -0.2195268229   -2.1591370765
 H    1.7536594398   -0.1921323283   -1.2597998038
 H   -1.0662760865   -1.9932011951   -2.1639651017
 H   -1.3845179253   -4.2013114858   -2.1895494374
 H    2.6871563060   -1.8959808752   -0.4982013081