21

 C   -0.0385891802    1.6477280609    0.3376043935
 C    0.0048609819    0.1434915823    0.1515496775
 C   -1.3113815795   -0.4383597415   -0.3816465016
 C   -1.6615419236    0.0346579014   -1.7185925308
 C   -1.9388399484    0.4314943738   -2.8190420265
 C    1.2176868230   -0.6095408548   -0.3369745130
 C    2.5281717228   -0.0160333925    0.1941650151
 C    2.0068544571   -0.2044875141    1.6562591520
 C    0.7052188705   -0.7979200651    1.1018766757
 H    0.9122019460    2.0568910940    0.6842636250
 H   -0.2910334277    2.1415078116   -0.6062849848
 H   -0.8043830708    1.9237036252    1.0725978207
 H   -1.2461829074   -1.5336414879   -0.3952405472
 H   -2.1246843963   -0.1898656265    0.3138536475
 H   -2.1884904011    0.7759870665   -3.7917546825
 H    1.1435626011   -1.2845429700   -1.1824533683
 H    3.3890392232   -0.6544234993   -0.0158932523
 H    2.7712871555    1.0016068880   -0.1271707224
 H    2.5968331228   -0.9398491911    2.2075486232
 H    1.9116186454    0.6923042181    2.2765499386
 H    0.1815725255   -1.6444632992    1.5335363305