18

 O   -0.4335743640    1.3533127282    0.0451985743
 C   -0.8892556380    0.0576773165    0.4433195915
 C   -1.3519134657   -0.7165276659   -0.7952698498
 O   -0.3280590558   -0.6794524081   -1.7779114846
 C   -1.6618215719   -2.1813770163   -0.5407399949
 N   -1.4479640895   -2.7313175371    0.7994810430
 C   -2.8294962644   -2.6564678514    0.2670063590
 C   -3.7532734192   -1.7596800885    0.9071833850
 C   -4.5598528606   -1.0231310036    1.4107825618
 H   -1.2076872929    1.8860079269   -0.1666810824
 H   -0.0270713275   -0.4461002727    0.8849138191
 H   -1.6801192335    0.1156958538    1.1979865349
 H   -2.2655331481   -0.2314295800   -1.1876125306
 H    0.0629681195    0.2016488200   -1.6977814252
 H   -1.4029044708   -2.8026317546   -1.3956886915
 H   -1.1122164832   -3.6894663075    0.7524760772
 H   -3.2813487569   -3.5876991623   -0.0691293778
 H   -5.2673625575   -0.3775219475    1.8695648412