19

 O   -0.1425309301   -0.0371226539    0.2202857735
 C   -0.0439912335    1.1612343293    0.0960308035
 C   -1.2077361597    2.1655667216    0.0521930642
 C   -0.5565010449    3.5645947585   -0.0483138876
 C    0.9251129545    3.2541301343   -0.1147795388
 C    1.2047843778    1.9485945125   -0.0426336286
 C   -1.0258194509    4.3958663424   -1.2301512194
 C   -2.2480525034    5.2699971777   -1.1116400894
 C   -0.8790933384    5.8966745395   -1.2181395149
 H   -1.8368593025    1.9445820878   -0.8159614394
 H   -1.8369358081    2.0397750648    0.9374239273
 H   -0.7543744544    4.1466777621    0.8632065499
 H    1.6559455248    4.0494656583   -0.2222323719
 H    2.1827785817    1.4849909770   -0.0688144547
 H   -0.8771601457    3.9097548881   -2.1916919624
 H   -2.9160060976    5.3410442499   -1.9625800807
 H   -2.7495948041    5.3108479627   -0.1501239133
 H   -0.4661828506    6.3596853121   -0.3273828742
 H   -0.6103865248    6.3979138153   -2.1411787630