22

 C   -2.1976257247   -1.7006063388    1.6378867866
 C   -1.3520001390   -0.5321060798    1.1120788597
 C   -1.9757262809    0.8040478043    1.5454389019
 C    0.1217023500   -0.5678330195    1.5244559937
 C    0.6900807277   -1.4790798566    2.5918953698
 C    1.0736528052   -1.6767002919    1.1444974221
 C    0.6222055374   -2.8465150001    0.3021327336
 N    0.6275220913   -4.0601702355    0.9337782383
 O    0.2953878766   -2.7202901628   -0.8626028577
 H   -2.2841065983   -1.6657265237    2.7301371569
 H   -3.2100628102   -1.6407429457    1.2262567000
 H   -1.7911020916   -2.6765268358    1.3605695575
 H   -1.3716783261   -0.5776481826    0.0156303951
 H   -1.9532897159    0.9123788976    2.6363733131
 H   -1.4382245766    1.6550868750    1.1141700360
 H   -3.0203056484    0.8715229350    1.2246447678
 H    0.5820016773    0.4165071701    1.4853022585
 H    1.4323444174   -1.0859776387    3.2785637833
 H    0.0182046757   -2.2052592425    3.0367643958
 H    2.0667492038   -1.3495916478    0.8470750141
 H    1.0300402868   -4.1697218642    1.8478637654
 H    0.4460912823   -4.8819420062    0.3800396384