17

 C    0.0428252272    1.2767985676   -0.3655351447
 O   -0.0196034950    0.0241468893    0.2816015552
 C   -1.2641323277   -0.5966431354    0.1860039620
 C   -1.7023329141   -1.2855201173   -1.1519059600
 O   -0.5821476773   -2.1437142052   -1.4970767663
 C   -0.9620826724   -2.9358397550   -0.3735382747
 C   -2.3635336170   -2.4174633210   -0.2896105170
 C   -1.3635513141   -1.9904519456    0.7777683322
 O   -1.3880476408   -2.3607802041    2.1011086266
 H    1.0360034642    1.6907138791   -0.1774060475
 H   -0.0997366094    1.1845205280   -1.4518353043
 H   -0.7133364019    1.9746747707    0.0271925730
 H   -2.0765696719    0.0469895036    0.5582292389
 H   -2.1274380195   -0.7458414380   -1.9943781311
 H   -0.5397179822   -3.9220765008   -0.2337375839
 H   -3.3446938343   -2.8660882097   -0.2413970209
 H   -0.4794238638   -2.3828976262    2.4226057826