19

 O   -0.1424315170    1.4600318434    0.1573121647
 C    0.0475345827    0.0577453921   -0.0496210030
 C   -1.3301360225   -0.5494681548    0.0135484736
 O   -2.2508378066    0.0996418695   -0.8176668921
 C   -1.6052942414   -2.0280965393    0.1311731791
 C   -0.5079885425   -2.9849152624    0.6016254104
 C   -0.4862586740   -2.7404978259    2.1258553314
 O   -0.9608931278   -1.4037457553    2.3210657762
 C   -1.8875934719   -1.1148546187    1.3043155027
 H    0.6561163128    1.9192550667   -0.1158870912
 H    0.4915593550   -0.1317274445   -1.0379777442
 H    0.6967641677   -0.3684335976    0.7231322675
 H   -2.0919521025    1.0430380640   -0.6774020254
 H   -2.4135735974   -2.4001021049   -0.4867998510
 H   -0.7608193732   -4.0207834119    0.3606536763
 H    0.4641698230   -2.7724042198    0.1458379730
 H   -1.1476290201   -3.4538452498    2.6402563172
 H    0.5092999388   -2.8075528275    2.5731719799
 H   -2.8879367531   -0.8465801633    1.6298089251