19

 C   -0.0164333037    1.3990667963    0.0587831908
 O   -0.0069078920   -0.0142341702    0.1458577054
 C   -1.2566864843   -0.5985829713   -0.0528370762
 O   -1.7732037061   -0.3806706934   -1.3593802125
 C   -1.4395172780   -1.3769490797   -2.3336193451
 C   -1.3168161374   -2.7392678097   -1.6669149797
 C   -2.2801887632   -2.8483979886   -0.4639157783
 C   -1.1224730716   -2.0972973234    0.2220394833
 O   -0.1906596988   -2.6499654671   -0.7451673954
 H    1.0057068929    1.7359107826    0.2433459600
 H   -0.3398044599    1.7387389686   -0.9316085329
 H   -0.6813072824    1.8420419705    0.8164773917
 H   -2.0049210284   -0.1409922123    0.6160829701
 H   -2.2440687197   -1.3566654579   -3.0771371062
 H   -0.4894053168   -1.1365036685   -2.8288130632
 H   -1.2209902593   -3.5626480434   -2.3797447285
 H   -3.2555841283   -2.3635394253   -0.5275517136
 H   -2.3693885727   -3.8737707312   -0.1049655064
 H   -0.8386397902   -2.3067205160    1.2551649769