15

 C   -0.5235365641    0.8850011262   -1.0637255008
 C   -0.2122400824   -0.2528318221   -0.1624658139
 C   -0.9233424540   -1.1634611169    0.5722959640
 N   -2.2763935977   -1.4173076266    0.7873669483
 C   -3.3178512621   -1.2838542172   -0.0952928338
 N   -3.2060687568   -0.7626459593   -1.2523492867
 N   -0.0183247350   -1.9305471439    1.2652768369
 N    1.1618627983   -1.5644360114    1.0032642159
 O    1.0871443628   -0.5051216334    0.0863901521
 H    0.2428568109    0.9672012151   -1.8390247459
 H   -1.5025030080    0.7253922614   -1.5168048628
 H   -0.5353172600    1.8281798983   -0.5047038205
 H   -2.4447738094   -1.9889042685    1.6004188776
 H   -4.2470807109   -1.6715777685    0.3369541674
 H   -4.1061512016   -0.7550652732   -1.7245924778