18

 O    0.1485551101    1.4376806653    0.1476204177
 C    0.0580639092    0.0292066793    0.1398194118
 C   -1.3935671997   -0.5005768419   -0.0095399041
 O   -1.3224863018   -1.9291844220   -0.1194477614
 C   -2.2064269452   -0.1193658424    1.1491095118
 C   -2.8549237719    0.1510725562    2.1243509561
 C   -2.0266421649    0.0329522934   -1.2976890822
 C   -1.7564908675   -0.6415001248   -2.5914706396
 N   -3.0889740236   -0.7212466903   -1.9616225319
 H    0.0542154359    1.7492486273   -0.7575065640
 H    0.6497181859   -0.4272328276   -0.6649779466
 H    0.4592311177   -0.3178650746    1.0969056957
 H   -1.4589940769   -2.2985072085    0.7583077775
 H   -3.4341757649    0.4050317703    2.9779506994
 H   -2.1905977766    1.1068252048   -1.2756535647
 H   -1.7140864112   -0.0587807164   -3.5073777227
 H   -1.1332143628   -1.5300502216   -2.5765547269
 H   -3.1597374119   -1.6261740965   -1.4985971159