15

 O   -0.4442012263    0.7290620412    0.9159867613
 C    0.0819174163    1.0325162054   -0.1206218185
 C    1.4062971293    1.7852606540   -0.2187080077
 C    1.3536020653    2.8742069959   -1.2585774827
 C    1.4125738701    4.2298969847   -0.9176197180
 N    1.3558824120    5.2002340635   -1.8283075106
 C    1.2265689805    4.8107585217   -3.0979156586
 C    1.1543910131    3.4646853535   -3.4467083175
 N    1.2201277855    2.4941123431   -2.5351517346
 H   -0.3615069930    0.7742561298   -1.1060737038
 H    1.6698359457    2.1659880257    0.7701611548
 H    2.1600331231    1.0469374747   -0.5234413726
 H    1.5135896259    4.5341325979    0.1214913573
 H    1.1795803671    5.5891672954   -3.8545656009
 H    1.0452455253    3.1607763734   -4.4846451980