15

 O    0.0562321434    1.4109564253   -0.2212882446
 C    0.0088579577    0.0415903541    0.0319503602
 C   -0.3745808190   -0.9280382702   -1.0732029169
 C   -1.3022691258   -0.6691613474    0.1031548976
 O   -1.3229632566   -1.5776310441    1.1688312318
 C    0.0281391052   -1.7778543155    1.5982588889
 C    0.8202265943   -0.5165255551    1.1950676571
 H    0.8420452793    1.5899451246   -0.7493255993
 H   -0.6763489376   -0.4754469347   -2.0118922594
 H    0.1352972463   -1.8814075644   -1.1655218587
 H   -2.2535185429   -0.1755280381   -0.0528657250
 H    0.0136607733   -1.9559518725    2.6766240286
 H    0.4445432066   -2.6724482161    1.1144685598
 H    1.8606830858   -0.7513135433    0.9485155211
 H    0.8162336600    0.2342698172    1.9917666989