20

 C    0.3711173672    0.9920010843   -0.5117836173
 N   -0.3866401003    0.2753837893    0.5217569014
 C    0.3601235152   -0.6175449397    1.3166591741
 C    0.6763780670   -1.9576387542    1.1751559150
 C    0.2938528570   -2.8676339893    0.0497978788
 C    1.4441298925   -2.3218604995    2.3268304458
 N    1.8958903102   -3.6322081492    2.5974544597
 C    1.5817546748   -1.2023722799    3.1166813683
 N    0.9135913725   -0.1696565024    2.4871616113
 H    0.8609973347    0.3319308541   -1.2442427033
 H   -0.3018926942    1.6702887694   -1.0455697000
 H    1.1484714674    1.5955446266   -0.0344488873
 H   -1.1796438916   -0.1990001376    0.1077585467
 H    1.1680507284   -3.2544981675   -0.4922241695
 H   -0.2697716989   -3.7397468895    0.4036352291
 H   -0.3284819220   -2.3477466175   -0.6858768406
 H    2.2993929832   -4.0708101740    1.7772486213
 H    2.5889829615   -3.6487097586    3.3357587935
 H    2.0893258961   -1.0563953792    4.0561439061
 H    0.7284149893    0.7396866743    2.8713131270