20

 C   -0.1277780905    1.5217450066   -0.4004834265
 C   -0.0630128321    0.0768514468    0.0893267729
 O    0.3440606200   -0.0010757267    1.4492648761
 C   -1.3936355405   -0.6756395006   -0.1334062484
 O   -1.7762277280   -0.6106791862   -1.5156877762
 C   -1.3391956163   -2.1180175819    0.3836114005
 C   -2.6812465470   -2.8519682786    0.4832058395
 N   -3.5390374554   -2.6346825359   -0.5532121392
 O   -2.9356497988   -3.5965439063    1.4106075756
 H    0.8411989306    2.0094339326   -0.2670683984
 H   -0.4126266393    1.5677091257   -1.4537544794
 H   -0.8778652441    2.0854020273    0.1695247046
 H    0.7213869018   -0.4601752359   -0.4642324400
 H   -0.2201732371    0.5888963550    1.9619498788
 H   -2.1883326799   -0.1286406285    0.3916620678
 H   -1.1140658848   -1.0963532404   -2.0226829344
 H   -0.6731568353   -2.7042300727   -0.2670674251
 H   -0.8958869600   -2.1310098553    1.3794946042
 H   -3.3289656219   -1.9423789230   -1.2565748606
 H   -4.4504456615   -3.0596073920   -0.5066103517