17

 C   -0.1028251662   -1.1728597370   -0.0776578803
 C   -0.0573264844    0.0276984255   -0.0794472139
 C    0.0023928988    1.4829579250   -0.0573690086
 C    1.4327961826    2.0324610658    0.0444944384
 O    2.1430727427    1.6716417948   -1.1383421330
 C    3.0554682998    2.6998409424   -1.5044590630
 C    2.5190722792    3.9631896691   -0.8691909172
 O    1.1247185490    4.1692664257   -1.1256017059
 C    1.5115328882    3.5468041854    0.1055095568
 H   -0.1446643313   -2.2335427718   -0.0895026037
 H   -0.4475198824    1.9016742777   -0.9640358795
 H   -0.5764558836    1.8607379815    0.7955985758
 H    1.9257962639    1.6166173169    0.9385657578
 H    4.0702729940    2.5006052242   -1.1232665270
 H    3.0947048562    2.7399891438   -2.5978185609
 H    3.1316540285    4.8544780093   -0.7681211520
 H    1.2815281350    4.0873667118    1.0195161363