23

 C   -0.1361179170    1.5607558331   -0.0480308461
 C    0.0138275771    0.0546921390    0.0997155639
 O   -1.2844578670   -0.5130816701    0.0739778343
 C   -1.3712677509   -1.9350301029    0.0069251159
 C   -0.7108686987   -2.6182790919    1.2087814361
 C   -2.8832068018   -2.2851836927   -0.0858483506
 C   -3.0268602530   -2.9898255705   -1.4454158444
 O   -1.7340000073   -3.5058064702   -1.7389151725
 C   -0.8274009587   -2.4945334010   -1.3416473108
 H    0.8429463280    2.0480927995   -0.0129019775
 H   -0.6160293884    1.8082248284   -0.9991064349
 H   -0.7536669277    1.9627679484    0.7602884564
 H    0.6351856602   -0.3454113139   -0.7168114410
 H    0.5280074362   -0.1810096867    1.0434225413
 H   -1.1670453436   -2.2792424843    2.1441652079
 H   -0.8461927296   -3.7012093793    1.1293450922
 H    0.3642354267   -2.4211631986    1.2559810046
 H   -3.1766214061   -2.9474334664    0.7322301158
 H   -3.4741735207   -1.3706242524   -0.0160807900
 H   -3.7300089500   -3.8260757363   -1.4432278073
 H   -3.3384005624   -2.2763424012   -2.2253162666
 H   -0.8027764947   -1.6739376035   -2.0780333847
 H    0.1660587695   -2.9453099567   -1.2748104522