21

 C    0.1322005577    1.5461653429   -0.3549320059
 N    0.0784978365    0.1132813028   -0.1175216872
 C    0.6435625214   -0.2766167808    1.1685874139
 C    2.1878520512   -0.2937731378    1.1258339200
 C    2.7639657177   -0.7403640105    2.3911289492
 N    3.1985356730   -1.0981397734    3.4004341700
 C   -1.1958784239   -0.5300864456   -0.3517098293
 C   -2.5026026783   -0.1101561640    0.2991809787
 C   -2.2909246075    0.0563755625   -1.1912064525
 H    1.1514978223    1.9069612088   -0.1929924370
 H   -0.1230512531    1.7672621313   -1.3931479614
 H   -0.5309003576    2.1354278826    0.3048233145
 H    0.3061709015    0.3714257784    1.9960076531
 H    0.2987647870   -1.2868441976    1.4043306592
 H    2.5174180619   -0.9588740158    0.3211534980
 H    2.5858006516    0.7008504401    0.9000319214
 H   -1.0679335675   -1.6047923911   -0.4581587760
 H   -3.1753604163   -0.8821840390    0.6557052457
 H   -2.5106156220    0.7969483953    0.8938813817
 H   -2.1928699010    1.0685420556   -1.5638215814
 H   -2.8092215746   -0.6095609647   -1.8721756947