13

 O   -0.2747528054   -0.1229586096    0.0742051169
 C   -0.1428544676    1.0757648323    0.1587608153
 N   -1.0760967048    2.0907160373   -0.0678167499
 N   -0.6265486693    3.4022643982    0.1124789099
 C    0.6000837349    3.1831319044    0.4537930861
 C    1.9706395121    3.6822838793    0.8664285337
 C    2.3502130943    2.1441053813    0.9147966135
 N    0.9571943110    1.8736241508    0.5036723759
 H   -2.0278432798    1.9288008220   -0.3464229484
 H    2.5070266567    4.2633474971    0.1145516641
 H    2.0159209502    4.1963885119    1.8278175208
 H    3.0931566606    1.8208289509    0.1832676035
 H    2.5985249372    1.7531912341    1.9033116688