10

 N    0.1019390283    1.3792594853    0.1861357863
 C   -0.0518325876    0.0107534698    0.0473779884
 C   -1.1058733474   -0.8458485657   -0.0263346487
 N   -0.6175984520   -2.1518690151   -0.0507354907
 C    0.6606812456   -2.0232161092    0.0003334688
 O    1.0926783630   -0.7251568608    0.0664700047
 H    0.9127962902    1.7394207740   -0.3014955461
 H   -0.7290636718    1.8923386382   -0.0735449060
 H   -2.1599787359   -0.6261120959   -0.0626426722
 H    1.4263675677   -2.7813337506   -0.0075398545