13

 O   -0.5246340373    0.5943077391    0.7357925760
 C    0.0404208533    1.0227579936   -0.2338962510
 C    1.3398837646    1.8028519229   -0.1981590888
 C    1.2362847971    3.1091038270   -1.0217136497
 C    2.5016592141    3.8157749890   -1.1090085281
 C    3.5637205579    4.3880461231   -1.1693186847
 C    4.7620357186    5.0382672516   -1.2420735551
 N    5.7820081020    5.5906596375   -1.3045502574
 H   -0.3683049025    0.8590471079   -1.2592398158
 H    1.6085852193    2.0054516354    0.8406582404
 H    2.1215025047    1.1690401261   -0.6374335435
 H    0.8822419137    2.8816782157   -2.0361593981
 H    0.4849669644    3.7716714212   -0.5738404943