21

 C   -0.0293768624    1.5086157070    0.0143709618
 C   -0.0956245965    0.0182653955   -0.0313810860
 C   -0.0640224816   -0.8009834992   -1.0910580714
 C    0.0328717759   -2.2252595183   -0.5750464293
 C    1.4308865702   -2.3226849064    0.1085823880
 O    1.3261815816   -1.4395607822    1.2288467353
 C   -0.0376659468   -0.8954578259    1.2024903966
 C   -0.3422037219   -0.3102142110    2.5600696595
 C   -0.8327087622   -2.1144098324    0.7042582279
 H    0.8779393307    1.8447054925    0.5323565659
 H   -0.0200619341    1.9366329636   -0.9921056897
 H   -0.8782624255    1.9401175086    0.5590615440
 H    0.0207736110   -0.5142080967   -2.1328295216
 H   -0.1873011427   -3.0281950765   -1.2780882606
 H    1.6397499642   -3.3412011799    0.4616908338
 H    2.2445899772   -2.0032965560   -0.5530423710
 H    0.3569916557    0.4952797962    2.8035840014
 H   -1.3577731988    0.0965147645    2.5857361744
 H   -0.2539252989   -1.0787916799    3.3327591441
 H   -1.8796551645   -1.8942087060    0.4895393262
 H   -0.7511614907   -2.9703261173    1.3818372107