18

 O   -0.0646524143    1.3602196461   -0.0610997578
 N    0.0580842676   -0.0362184580    0.0227923730
 C   -1.0731594002   -0.6259478425    0.0582423324
 C   -2.4284262830    0.0458866683    0.0739877761
 O   -3.2730405348   -0.5252102578    1.0642927095
 C   -3.4275204393   -1.9235963653    0.9164169787
 C   -2.0910479899   -2.6507452432    1.1164148269
 O   -2.2221437824   -4.0480245291    0.9094916747
 C   -1.0771887620   -2.1319519159    0.0935336032
 H    0.8542153964    1.6447727687   -0.0205871072
 H   -2.3323274001    1.1038396076    0.3132822945
 H   -2.8934302046   -0.0460576570   -0.9235429598
 H   -4.1587902639   -2.2345563290    1.6703569396
 H   -3.8296298566   -2.1813738177   -0.0783314742
 H   -1.7259634796   -2.4300775485    2.1312315154
 H   -2.7510979063   -4.4113130696    1.6269307872
 H   -1.3881164897   -2.5176896371   -0.8884569157
 H   -0.0728023175   -2.5099420099    0.2946363932