19

 C   -0.3841061386    1.5988876974   -0.2257919020
 C    0.0637993215    0.1418735657   -0.0108492389
 C    0.8800963328   -0.4043452294   -1.1260088056
 C    2.1485864317   -0.8501765438   -1.2857417034
 C    3.2543173708   -0.9546353884   -0.2906729364
 N    2.3429828615   -1.2542052713   -2.6147474563
 C    1.2005001826   -1.0229370832   -3.1778147216
 N    0.8651074259   -1.1713509024   -4.5024797023
 O    0.2500816999   -0.5130104032   -2.3683585129
 H    0.4805968822    2.2628956461   -0.3180974912
 H   -0.9766228645    1.6907890114   -1.1403561084
 H   -0.9960073636    1.9448235065    0.6130105997
 H    0.6560545737    0.0655366524    0.9067847292
 H   -0.8234659393   -0.4877653616    0.1427579577
 H    3.6030816944   -1.9895664434   -0.2032763389
 H    4.1152175960   -0.3519759846   -0.6005669694
 H    2.9380666630   -0.6150247569    0.6988758371
 H    1.4943003568   -1.7891409257   -4.9937130974
 H   -0.1090192868   -1.3794407254   -4.6678139391