21

 C    0.0611666394    1.4272080334   -0.3239918636
 C   -0.1021461397    0.0360395841    0.3026581259
 C   -1.4989384372   -0.5485743686    0.1216210901
 C   -2.5976091744    0.1690771913    0.8836367079
 C   -1.8310685136   -1.1667450227   -1.2071085832
 C   -1.5688163029   -2.0867027359   -0.0269461556
 O   -0.3514236308   -2.7767603786    0.0567895816
 C   -2.7036585694   -2.8506046833    0.5613804937
 O   -3.8776847099   -2.5939470671    0.4290183505
 H    1.0886808026    1.7831626809   -0.2012566037
 H   -0.1600949515    1.4064184598   -1.3965107684
 H   -0.6000513129    2.1667062401    0.1374973955
 H    0.6333448609   -0.6486956738   -0.1249327826
 H    0.1189393422    0.0901209248    1.3763192552
 H   -2.6935733591    1.1982658649    0.5226798520
 H   -3.5637447893   -0.3210577578    0.7618622991
 H   -2.3647201390    0.2123892303    1.9536547463
 H   -2.8581869069   -1.1283948399   -1.5556021381
 H   -1.0694165387   -1.1618976682   -1.9807844443
 H   -0.3027847127   -3.3935029318   -0.6812917732
 H   -2.3591019571   -3.7280131519    1.1529586849