21

 O   -0.4209430841    1.2888133601   -0.0582057335
 C   -0.0985174319   -0.0905888229   -0.0180657120
 C    0.6620267753   -0.4819112039   -1.2794042015
 C    0.3861930698    0.1494152371   -2.5724455372
 O    1.5286468592    0.5417017113   -1.7917421617
 C    0.6778589284   -0.4738989403    1.2445473659
 C    1.9879865545    0.2860128324    1.6066686603
 C    1.5511843940    0.2417587861    3.0953841207
 C    0.1011894456   -0.0468621012    2.6220667340
 H    0.3563937417    1.7256532304   -0.4343418090
 H   -1.0564605898   -0.6299638099   -0.0105658720
 H    1.1037119945   -1.4787471514   -1.2741835471
 H    0.6216378445   -0.3799889244   -3.4934994909
 H   -0.4012822397    0.8960438749   -2.6374516118
 H    0.8609234006   -1.5554667877    1.2258624343
 H    2.9393134538   -0.1749637033    1.3316489721
 H    1.9724949914    1.3088730592    1.2202783079
 H    1.9858530568   -0.6147864638    3.6191184275
 H    1.7182538938    1.1372651871    3.6984330259
 H   -0.4782641659    0.8739692573    2.5179112297
 H   -0.4869983225   -0.7804738569    3.1791937784