14

 N    0.0693729610    1.3754644519    0.2837617701
 C   -0.0276988444    0.0171202361    0.1131364824
 C   -1.1870847934   -0.6742719025   -0.0261170666
 N   -2.4266699323    0.0071128096   -0.0808453434
 C   -1.1426782720   -2.1132499862   -0.2215132822
 O   -2.1407040458   -2.7771970810   -0.4372354676
 N    0.1463743381   -2.7122051612   -0.1640827929
 C    1.1575492291   -1.9716770612    0.0163185066
 O    1.1740318328   -0.6171629528    0.1557239173
 H    0.9574919730    1.7725055250    0.0098631338
 H   -0.7329093099    1.8647483907   -0.0947990752
 H   -3.1304827191   -0.6739615185   -0.3576190498
 H   -2.6967963580    0.3760566135    0.8269564618
 H    2.1693533309   -2.3597466833    0.0846606658