21

 C    0.0021121471    1.6020178044   -0.0155410276
 C    1.5599881839    1.5400203592    0.0401613407
 C    1.4178770767    0.1069657215    0.5220222151
 C    2.1433929361   -0.6628384757    1.3225181690
 C    1.7442753841   -2.0082879922    1.8731696919
 C    0.4898170114   -2.6437215520    1.2410407223
 C   -0.7913400145   -1.8636978410    1.4435811369
 C   -1.0303871143   -0.6750267925    0.8909158237
 C   -0.0279273477    0.0398644657    0.0340325667
 H   -0.4158952585    2.0346873700    0.8972986708
 H   -0.4537688231    2.0836655189   -0.8833512785
 H    2.0022509473    1.6093330752   -0.9608152572
 H    2.0774663683    2.2458048227    0.6953567032
 H    3.1153736209   -0.2924207804    1.6489474304
 H    2.5862238282   -2.7040337997    1.7506571728
 H    1.5989473131   -1.9204123144    2.9603158077
 H    0.6757653220   -2.7707944844    0.1658652345
 H    0.3706733429   -3.6518049874    1.6509189210
 H   -1.5571719616   -2.3215810896    2.0653276665
 H   -1.9850321908   -0.1786908350    1.0554385527
 H   -0.0685427815   -0.3423961232   -0.9981849724