20

 C    0.1274341913    1.4427024621   -0.0935274950
 O   -0.2271373168    0.0879431406   -0.3093562538
 C    0.6244731342   -0.6030406701   -1.1935146706
 C    1.9933196879   -0.7294626632   -0.6269752248
 N    3.0562142625   -0.8161392798   -0.1816441497
 C    0.0267885209   -1.9707376645   -1.4822522131
 C   -0.1781413011   -2.8505077722   -0.2654143400
 C   -0.9718041910   -2.0262162981   -2.6116717341
 C    0.4103875295   -2.6017139073   -2.7990228187
 H    1.1147311901    1.5355218773    0.3781683688
 H    0.1312186984    2.0096576459   -1.0365651268
 H   -0.6289813111    1.8620653622    0.5722437321
 H    0.7257638246   -0.0455453640   -2.1397448921
 H   -0.8399190522   -2.3643844321    0.4565793942
 H   -0.6267122541   -3.8051513512   -0.5541935081
 H    0.7736347705   -3.0628501700    0.2334112783
 H   -1.8056282013   -2.7113693859   -2.5064141552
 H   -1.2188275038   -1.1049312113   -3.1283077417
 H    1.1020955867   -2.0743168333   -3.4477412536
 H    0.5241020548   -3.6798076251   -2.8185118863