16

 N    0.1170638664   -1.1677364416   -0.0024075918
 C    0.0689007968   -0.0135260121   -0.0174539860
 C   -0.0159429402    1.4342021696   -0.0140645443
 C   -0.2857853056    2.1603391880    1.3659626830
 N    0.8038938819    3.1086231697    1.0107236954
 C    2.0080849664    3.5049843937    1.7535905545
 C    3.0908545433    3.2356234910    0.6498804107
 N    2.5141274124    2.1830246483   -0.2416946853
 C    1.2822108209    2.2381527169    0.0338732399
 H   -0.6999613148    1.7772007523   -0.7939718985
 H   -1.2677191158    2.6184493953    1.4928872251
 H   -0.0474424055    1.5135890169    2.2178539797
 H    1.9750741535    4.5456953016    2.0818444501
 H    2.1591664931    2.8584479399    2.6306348496
 H    3.2872175683    4.1433324000    0.0667569891
 H    4.0402245888    2.8910521104    1.0648772187