17

 O    0.1282396146    1.0988144815   -0.2346374973
 C   -0.0192916194   -0.2871764972   -0.1107119893
 C   -0.0434294838   -0.9002907217    1.3311506941
 O   -1.3422437949   -1.4983640846    1.0646022593
 C   -1.4570518872   -0.7729614132   -0.1625852345
 C   -2.6674796946    0.0234727570   -0.5180251678
 C   -2.3007124157   -1.2339829550   -1.2975614879
 C    0.9801358664   -1.8597023683    1.6907611909
 C    1.8541388497   -2.6375766770    1.9673045371
 H    1.0622608585    1.3009911769   -0.3462906379
 H    0.6550338488   -0.8379506181   -0.7766972679
 H   -0.1282168328   -0.1076708589    2.0858470154
 H   -3.5125163009   -0.0390333300    0.1588898085
 H   -2.5155725402    0.9909120579   -0.9837323897
 H   -1.9141100940   -1.1311908332   -2.3066676889
 H   -2.9047556139   -2.1191374168   -1.1293500715
 H    2.6172560396   -3.3313501396    2.2211097875