17

 C    0.0004996710    1.4705335785   -0.0135009914
 C    1.3170335188    0.7273442571    0.0086408698
 C    2.0359486801    0.4224465946    1.3167576552
 C    1.0544500268   -0.5109031078    2.0162563060
 C   -0.0212349378   -0.7941443220    1.2706211654
 C    0.0365500655   -0.0490079039   -0.0176398653
 O   -0.0438893207   -0.6587809485   -1.2848046262
 C    1.2969254937   -0.6503362630   -1.7632052623
 O    1.9227775432    0.5222013560   -1.2461484456
 H   -0.3350612271    1.9766857585    0.8861956537
 H   -0.2570710177    1.9419675159   -0.9546346063
 H    3.0006376719   -0.0639456030    1.1275087228
 H    2.2455853762    1.3201288321    1.9101816015
 H    1.2171296584   -0.8615586506    3.0302033111
 H   -0.8451652037   -1.4348437873    1.5607905715
 H    1.8317054038   -1.5509888037   -1.4187437926
 H    1.2886630773   -0.6006018929   -2.8549975573