18

 C    0.0181972770    1.3770735723    0.3241012130
 C   -0.0141227368   -0.0737902597    0.0068590540
 C   -0.9896703776   -1.0255098748    0.0469680779
 N   -2.3378110670   -0.9285159233    0.4833010141
 C   -0.3834223143   -2.2720586934   -0.3516328914
 C   -1.1027184750   -3.5867446142   -0.3992473949
 O   -1.7527529157   -3.8868587773    0.8268601629
 C    0.9150199731   -1.9731207387   -0.6026882025
 O    1.1624121553   -0.6523110584   -0.3893685959
 H    0.4775791332    1.9494164172   -0.4892106966
 H   -0.9988979402    1.7545701230    0.4647749501
 H    0.5853956237    1.5923208761    1.2379751853
 H   -2.5306578523   -0.0416903398    0.9337603308
 H   -2.9951277783   -1.0369527399   -0.2838462116
 H   -1.8260792286   -3.5899732697   -1.2340932490
 H   -0.3967737654   -4.4005671433   -0.5940490027
 H   -2.2199168465   -3.0817558223    1.0918702682
 H    1.7577273254   -2.5631174137   -0.9245110516