20

 C   -0.1168503259    1.5621217820    0.0591747662
 C    0.0310730337    0.0575994823    0.0548737095
 C    1.3440430430   -0.6647770580   -0.2188942583
 C    2.6582491606    0.0822812235   -0.0761484734
 C    2.6995511120    0.5464654187    1.3905537796
 O    3.5129263797    1.2805786783    1.9051210778
 N    1.6090974083   -0.0120877219    2.0144890946
 C    0.7101740225   -0.7390068832    1.1570239408
 C    0.0945625238   -1.9835321933    1.7445484801
 H    0.7145300310    2.0647336762    0.5591689888
 H   -0.1708165479    1.9501706589   -0.9638219661
 H   -1.0369214167    1.8593355191    0.5740836798
 H   -0.8248750922   -0.4595257751   -0.3740196048
 H    1.3135744111   -1.5331884842   -0.8671038933
 H    3.5188234668   -0.5653722045   -0.2715640769
 H    2.7612424242    0.9555251685   -0.7271524271
 H    1.3582217834    0.2903424439    2.9434459335
 H   -0.5843323815   -1.7432306467    2.5717565578
 H   -0.4874871006   -2.5174656286    0.9881302410
 H    0.8667185949   -2.6594123860    2.1270579304