20

 C   -0.0740947545    1.5475692281    0.0092803270
 C    0.0288212031    0.0342022994   -0.0327734592
 C   -1.1862616778   -0.6645721677    0.5559205192
 C    0.7009378418   -0.6903292703   -1.1721106325
 C    1.6313634653    0.0859723708   -2.1047999313
 N    2.6837175136    0.5559880302   -1.2207639844
 C    2.6291795722    0.0949764928    0.0740601482
 O    3.4689188924    0.2855191093    0.9272249018
 C    1.3502959574   -0.6914602006    0.2004793873
 H    0.8084872992    2.0453046594   -0.3961939564
 H   -0.9467173689    1.8845104251   -0.5626803376
 H   -0.2041427345    1.8917984809    1.0410780504
 H   -2.0972080977   -0.3800648769    0.0166157165
 H   -1.0913939798   -1.7534832111    0.5036305209
 H   -1.3226895656   -0.3899581010    1.6077752656
 H    0.2245786680   -1.5774952373   -1.5730482870
 H    2.0291354538   -0.5742277324   -2.8869460644
 H    1.1205641224    0.9205558547   -2.6034908010
 H    3.4615701508    1.1170281184   -1.5281550368
 H    1.3704077989   -1.5481162819    0.8623604238