20

 C   -0.1475558525    1.5078978928    0.0347202063
 C    0.0743922150   -0.0037296030    0.0585697593
 C    1.0040030639   -0.5635372684   -1.0830296479
 C    2.0356078672   -1.3217836490   -0.2288508238
 C    1.1265885912   -2.0196594338    0.8286580618
 C    0.8556886149   -0.5500833840    1.2748883079
 C    2.3407077847   -0.2609711944    0.8762387455
 O    3.3376118217   -0.5630787755    1.8229234361
 H    0.7931323435    2.0638172145    0.1038741415
 H   -0.6411360239    1.8134299820   -0.8942573018
 H   -0.7834173152    1.8265439437    0.8681007449
 H   -0.9055679382   -0.4927014603    0.0130391342
 H    0.4703941847   -1.2168410212   -1.7790401737
 H    1.4649711624    0.2410329623   -1.6659193684
 H    2.8395248361   -1.8478181786   -0.7453683927
 H    0.2764054280   -2.6065058479    0.4678579038
 H    1.6770682775   -2.6174771034    1.5602545620
 H    0.4777809179   -0.3022637041    2.2683866912
 H    2.5792866928    0.7474204185    0.5285804889
 H    3.1620166283   -1.4298615301    2.2018943447