21

 C   -0.0362549131    1.5344716742    0.0587635015
 C    0.1357070321    0.0487955861    0.0047832348
 C    0.6527524081   -0.7745637582   -1.1911961526
 C    1.2410663413   -1.7724941715   -0.1676807466
 C    1.4492642765   -3.2279230770   -0.2669438767
 N    2.6021036457   -2.2965921366   -0.1759689269
 C    0.7145838442   -0.9283966292    0.9818231160
 C    1.3318793170   -0.7752174248    2.3346748079
 N   -0.7608953527   -0.8765985671    0.7508593721
 H    0.8409291086    2.0492674446   -0.3480011452
 H   -0.9096069943    1.8542545548   -0.5225769994
 H   -0.1797951005    1.8789279535    1.0890100344
 H   -0.1126494484   -1.1507985007   -1.8752439461
 H    1.4354408987   -0.2548597285   -1.7538862245
 H    1.3087421949   -3.8662823886    0.6010012129
 H    1.2450495454   -3.7089629610   -1.2202882468
 H    3.0210501416   -2.1735825124   -1.0952251816
 H    2.4195627372   -0.6991645323    2.2475677039
 H    0.9575010724    0.1195662657    2.8440069590
 H    1.1092289853   -1.6393273813    2.9719276756
 H   -1.1516317499   -0.3384324698    1.5266596284