14

 O   -0.0197427120    1.3038296366    0.0365701171
 N    0.0524527851   -0.0922047462    0.0362386765
 C   -1.1091217289   -0.6227749159    0.0171355455
 C   -1.2537346078   -2.1417236132    0.0146636702
 N   -2.6997654949   -2.3258323992    0.1780216857
 C   -3.3302666147   -1.1291736615    0.0742271457
 C   -2.4682237982   -0.0684062591    0.0110047879
 C   -2.8854710809    1.2811185435   -0.0232813055
 N   -3.2920159588    2.3663579844   -0.0583298381
 H    0.9074021709    1.5627292020    0.0604427508
 H   -0.9082781433   -2.5745190285   -0.9323043248
 H   -0.6962472525   -2.6117106198    0.8296594070
 H   -3.1505426923   -3.1840288276   -0.0909897419
 H   -4.4113363116   -1.0817545054    0.0767019337