13

 O    0.5981775115    0.0663895573    0.9287013853
 C   -0.1290703275    0.3211125314   -0.2678111141
 C   -1.5078746442   -0.2284972942   -0.0885326994
 C   -2.7149647773    0.0322460647   -0.7081070663
 C   -3.6216776740   -0.8685582788   -0.1091842173
 N   -3.0360169839   -1.6263517314    0.8144210820
 N   -1.7512093795   -1.2243676573    0.7964531371
 H    1.5291142683    0.2340405641    0.7576218839
 H   -0.1873861910    1.3971201099   -0.4888651701
 H    0.3609209399   -0.1603472108   -1.1293467752
 H   -2.9087027829    0.7633903102   -1.4764590919
 H   -4.6761448275   -0.9896922873   -0.3100636924
 H   -1.0865863618   -1.6022401180    1.4506311284