19

 C    0.3586980070    1.6064661557    0.0936129630
 C   -0.0990736991    0.1815247604   -0.2521607221
 N    0.6519197617   -0.3671017595   -1.3699595643
 C    1.7264914737   -1.0084915446   -1.1273789843
 N    2.3070341059   -1.3172770426    0.0816426033
 C    2.5322722818   -1.5880766243   -2.2748637851
 O    3.6075356003   -2.1205897129   -2.1037465234
 O    1.9419721098   -1.4464411752   -3.4580411893
 C    2.6764488207   -1.9711791600   -4.5714185122
 H    1.4001066073    1.6235901423    0.4329344199
 H    0.2875486333    2.2498031578   -0.7876414486
 H   -0.2647674703    2.0313514830    0.8865355538
 H   -0.0471683338   -0.4576821501    0.6450284050
 H   -1.1531291739    0.2138494579   -0.5489950119
 H    2.1011233836   -0.7446673750    0.8813405297
 H    3.2423522008   -1.6903563795    0.0175162043
 H    2.0604518105   -1.7733950304   -5.4480413444
 H    3.6456579922   -1.4740944670   -4.6619830622
 H    2.8418878383   -3.0448920361   -4.4514048911