14

 C    0.0217429367   -1.1865249899   -0.0090885392
 C    0.0059036681    0.0163579386   -0.0069058428
 C   -0.0119259673    1.4553571948   -0.0031268100
 C   -0.6558861985    2.4338892494    1.0172999337
 N   -0.0362515877    3.4068605727    0.0020458917
 C    1.1730106265    2.4592737281    0.0373027421
 C   -0.5901444365    2.4402363465   -1.0565043791
 H    0.0348060665   -2.2485070947   -0.0115148695
 H   -1.7470617708    2.4771097267    1.0596537829
 H   -0.2103511749    2.4936668280    2.0133918439
 H    1.7543927929    2.5209099484    0.9606305371
 H    1.8113591380    2.5264533263   -0.8472075890
 H   -0.0824046364    2.5059112589   -2.0220321343
 H   -1.6764890865    2.4835507661   -1.1675649075