17

 C    0.3326487017    1.4933973692   -0.2890150005
 C    0.0607756005    0.0147084629   -0.0276770760
 O    0.4126947077   -0.8071709611   -1.1328359824
 C    1.4557492981   -1.6833336288   -0.7648119392
 C    2.7711655829   -1.3368288621   -1.4642377556
 O    3.2827320624   -0.0895850179   -1.0449354956
 O    1.6385861248   -1.5650068234    0.6466695673
 C    0.8879841084   -0.5330526022    1.1270421648
 O    0.9232442685   -0.1703309540    2.2637662179
 H    1.3787453842    1.6323480628   -0.5704858175
 H   -0.3040920722    1.8514725176   -1.1015897295
 H    0.1145078838    2.0707809859    0.6136359638
 H   -1.0006434977   -0.1405646095    0.2073995288
 H    1.1586794335   -2.7169313566   -0.9876068667
 H    3.4876215598   -2.1545708612   -1.2975845914
 H    2.5765831380   -1.2645244231   -2.5382326206
 H    3.5762377456   -0.1901253385   -0.1326500475