17

 O    0.0518044717    1.3982832845   -0.4668910757
 C   -0.0356959741    0.0727386067   -0.0649718012
 C    0.0436500471   -0.2401911421    1.4761369939
 C   -1.1752959366   -1.1980005556    1.3454027301
 C   -1.4415011911   -0.5712443900   -0.0220038570
 C   -2.6561399730    0.0284225106   -0.5661839824
 O   -2.0897102497   -1.1720151142   -1.1233584374
 C    0.9362436871   -0.7763816518   -0.8538044642
 O    1.6617040385   -0.2923687738   -1.6888530477
 H    0.7390378565    1.4219928521   -1.1539640593
 H    0.9779218468   -0.6617567891    1.8520083709
 H   -0.1902687658    0.6717294173    2.0274726585
 H   -0.8830633349   -2.2488704386    1.2633420542
 H   -1.9627720999   -1.1110462094    2.0959674224
 H   -3.6010022831   -0.1058463983   -0.0417201217
 H   -2.5728420806    0.9158777684   -1.1889868238
 H    0.9552454512   -1.8588799367   -0.6208578698