17

 O   -0.1641643621    1.4502843906   -0.1463965080
 C    0.0242566971    0.0508135815   -0.0305692415
 C   -1.3657890119   -0.5600837027    0.1873431439
 C   -1.4402521389   -2.0489969605   -0.0970976974
 O   -1.4786462102   -2.4183182358   -1.4703451676
 C   -0.3147947958   -2.7929012723   -0.7213047942
 C    0.9373967269   -2.0333098776   -1.0531635089
 O    2.0177208250   -2.5768431576   -1.0684242907
 C    0.7260194605   -0.5459764198   -1.2710839147
 H    0.7014459325    1.8702712113   -0.1823115229
 H    0.6489248666   -0.1756122897    0.8491764566
 H   -1.6932141952   -0.3613351247    1.2121054960
 H   -2.0699032167   -0.0486426154   -0.4788608791
 H   -2.1170343482   -2.6282802937    0.5305427884
 H   -0.1842046695   -3.8580204612   -0.5419694186
 H    0.0939417677   -0.3801703179   -2.1496168099
 H    1.7007241722   -0.0779963645   -1.4331035911