17

 O    0.0892140073    1.3767789604    0.0109278501
 C   -0.0205302031   -0.0067156095   -0.0173912316
 C   -1.3446623860   -0.7002577356    0.0752115538
 C   -2.5959485983    0.1686796388    0.1006143616
 C   -3.0492093060    0.5116722510   -1.3129945122
 O   -1.9554116902    0.9812266127   -2.1349686641
 C   -0.9592563919    0.0637589521   -2.3968296674
 O   -0.4249367591    0.0542756529   -3.4689406924
 C   -0.5529800598   -0.7678861461   -1.2373240029
 H   -0.5068749296    1.7635491496   -0.6433669430
 H    0.8314501561   -0.4557124842    0.4809315197
 H   -1.3789836296   -1.6201939476    0.6490808054
 H   -3.4093239298   -0.3499566602    0.6164259512
 H   -2.3937069742    1.0890687043    0.6608317170
 H   -3.4967822067   -0.3619030431   -1.8019818913
 H   -3.7817682397    1.3213315473   -1.3259711608
 H   -0.0400833994   -1.6805571530   -1.5128741633