20

 C    0.0325735334    1.6419262354    0.1317722810
 C    0.0004228272    0.1187328538   -0.0878971195
 C   -1.3768334020   -0.4720324285   -0.0319768693
 C   -2.1747509502   -0.8376119459   -1.0767776359
 N   -2.0472850603   -0.7444072400   -2.4607548041
 O   -3.3660682698   -1.3214934897   -0.6426226833
 C   -3.3488930777   -1.2723334245    0.7365622865
 C   -4.5600552442   -1.7751708225    1.4324661301
 C   -2.1651779629   -0.7554212758    1.1447998372
 H    1.0578614636    2.0257007593    0.0978057184
 H   -0.5535376500    2.1592169923   -0.6342059004
 H   -0.3946688707    1.9033648699    1.1050437137
 H    0.4660006401   -0.1128970537   -1.0556689741
 H    0.6363240907   -0.3633880398    0.6658808821
 H   -1.0863610309   -0.6008239456   -2.7424769988
 H   -2.4293837908   -1.5536643524   -2.9369155437
 H   -5.4573372418   -1.2100315772    1.1521572987
 H   -4.7564597994   -2.8298428804    1.2032722892
 H   -4.4258043025   -1.6833548123    2.5128796466
 H   -1.8632531718   -0.6012806623    2.1704929957