15

 N   -0.0194933551   -1.1622793932   -0.1594466435
 C   -0.0300967773   -0.0070420282   -0.1401681136
 C   -0.0154679704    1.4527029053   -0.1073246692
 C    1.4001901060    2.0165651164    0.1793021126
 C    1.4193119022    3.5015740967    0.2027502109
 C    1.6861335657    4.4477908377    1.1361822750
 N    1.5396654711    5.7123662231    0.5766889218
 C    1.1933965887    5.4753161643   -0.6436534900
 O    1.0967025295    4.1614036164   -0.9593087340
 H   -0.3775129217    1.8335650137   -1.0675925576
 H   -0.7175769627    1.7984534984    0.6587272690
 H    1.7539121841    1.6484824767    1.1457900390
 H    2.0920335019    1.6373148810   -0.5811192754
 H    1.9769658412    4.3133176209    2.1660906389
 H    0.9770009469    6.1795893807   -1.4315197539