16

 O   -0.0713053260    1.5408846057   -0.1404642656
 C    0.0480880989    0.1629123863   -0.0954953355
 C    0.0979222166   -0.5307107540    1.3024565148
 O   -1.3279247077   -0.1411475768    1.4691550324
 C   -1.2487859755   -0.6870381569    0.0877315676
 C   -0.4123828709   -1.8559528739    0.6748093967
 N    0.4205142339   -2.6921672901   -0.1410045907
 C    0.4540179256   -4.0527431005   -0.0026359548
 O   -0.1923960112   -4.6907721527    0.7964034086
 H   -0.7168565362    1.7628093480    0.5466715658
 H    0.7711068154   -0.1362843523   -0.8585669769
 H    0.7652068465   -0.3650982706    2.1485384038
 H   -2.1683809762   -0.7056278483   -0.4975466129
 H   -0.9675776950   -2.4797209559    1.3706149134
 H    1.0108192764   -2.2848533283   -0.8479057733
 H    1.1571658055   -4.5156020796   -0.7226058032