12

 C   -0.0038454124    1.4998062128   -0.0505535106
 N    1.3564376589    2.0149758557    0.1146406378
 C    2.3486428868    1.2602856582    0.2629720673
 O    2.4033070478   -0.1313674429    0.3043905000
 C    1.1972636138   -0.7129498153    0.1610308458
 N    0.9788358389   -1.9935802377    0.1640173257
 O   -0.3836221828   -2.0918524587   -0.0116993631
 N   -0.9806902921   -0.8561897457   -0.1202000498
 C   -0.0124473543    0.0051686125   -0.0148438765
 H   -0.6317869348    1.9251794934    0.7406463404
 H   -0.4046519386    1.8823765491   -0.9961989344
 H    3.3551708488    1.6465051185    0.3850738976