17

 C   -0.0633871248    1.4713618764    0.0236591924
 C    0.0159894017   -0.0275618920   -0.0401089919
 C    0.2344199532   -0.8193255399   -1.3476235103
 C   -0.5041447559   -1.9247516215   -0.5789741590
 C    0.2847345092   -2.2486409867    0.6979587312
 C   -0.6387484427   -1.3959934787    1.5146449474
 C    0.6817377669   -0.8172560736    1.1050363977
 N   -1.2686182291   -0.8596603523    0.2375057380
 H    0.9205528496    1.9196565263   -0.1580123669
 H   -0.7608673883    1.8557851759   -0.7265861613
 H   -0.4074340688    1.7999445781    1.0100744562
 H   -0.3778986093   -0.4169540524   -2.1600726267
 H    1.2558003316   -1.0039631122   -1.6898986433
 H   -1.0811240266   -2.7079212894   -1.0707301218
 H    0.8595345226   -3.1226747506    0.9750324220
 H   -1.1369604607   -1.5294607851    2.4663794841
 H    1.5610500013   -0.5915929422    1.6949850022