16

 C    0.5586875337    0.5246125481   -0.7466872123
 C   -0.1829762529    0.1485509176    0.5193288358
 O    0.0512793689    0.6775156057    1.5836764757
 C   -1.2327240115   -0.9523394685    0.4389443270
 C   -2.1229882063   -1.1985232193   -0.8387933751
 C   -1.5823397487   -2.6337038161   -0.8891399811
 O   -0.1594362941   -2.5470689043   -1.0347090902
 C   -0.7133968446   -2.4050669890    0.2753350738
 H    0.8653032350   -0.3710994973   -1.2936301578
 H   -0.1081842232    1.0892979313   -1.4097843069
 H    1.4157359232    1.1504120735   -0.4944707808
 H   -1.8476852248   -0.8786390124    1.3383211377
 H   -3.1875460887   -1.1347866571   -0.6049023253
 H   -1.9091975457   -0.5992787076   -1.7259957518
 H   -2.0589160208   -3.5366808954   -1.2510266222
 H   -0.3442453194   -3.0704067492    1.0466259435