17

 C   -0.0584532249    1.4378879642   -0.0203971624
 C   -0.0255370151   -0.0155555573   -0.0169976362
 C    0.0222045863   -1.2216033697   -0.0144383440
 C    0.0799314162   -2.6342665134   -0.0114652703
 N    1.1805228946   -3.3744756431   -0.0240482982
 C    0.7483430146   -4.6699965272   -0.0149110460
 C   -0.6235963113   -4.7247271622    0.0033611105
 N   -1.0518623131   -3.4215101225    0.0055716897
 C   -2.4291703501   -2.9695239668    0.0225526819
 H    0.9575702388    1.8469102787   -0.0309656362
 H   -0.5817203504    1.8257542294   -0.9017281598
 H   -0.5651002124    1.8302387667    0.8686227043
 H    1.4442789039   -5.4953287355   -0.0219245417
 H   -1.3206330915   -5.5468337682    0.0147450485
 H   -2.9429154053   -3.3254815319    0.9207560137
 H   -2.4350845772   -1.8791521415    0.0196391217
 H   -2.9664635031   -3.3303684197   -0.8597837153