16

 O   -0.0588809289    0.0018913449    0.1782678881
 C   -0.0848089982    1.1938772136    0.0992235333
 C   -1.1638628278    2.2725221700    0.2277877831
 C   -0.0191917110    3.2835503745    0.5475982389
 C    1.0469805354    2.2607421660    0.0399234199
 C    2.3584327548    1.9707486965    0.7922518116
 O    3.3911625339    2.1503506308   -0.2087510124
 C    2.7298205520    2.4338063799   -1.3493745733
 N    1.4632484346    2.5239435200   -1.3476544573
 H   -1.6344048970    2.4704644532   -0.7400475289
 H   -1.9413438892    2.0976468841    0.9744607734
 H   -0.0369783961    4.2250392890   -0.0006483668
 H    0.0797988403    3.4793265663    1.6184388619
 H    2.5564825359    2.6563517209    1.6202597158
 H    2.4030088823    0.9368499609    1.1476640733
 H    3.3652751890    2.5784985895   -2.2158621607