17

 C    0.1552698860    1.4532237076    0.4171215676
 C   -0.1315083075    0.0255738244    0.0120360113
 C    0.3929095614   -0.6215601936   -1.2539391062
 C    1.2592376812    0.1412717479   -2.2489080021
 C    2.1437568176   -0.7481707034   -3.0032732849
 N    2.8359697988   -1.4628546654   -3.5904024674
 N    0.8921088226   -0.9934773324    0.0488558895
 C    2.1673767857   -0.9199427862    0.5698301930
 O    2.4461138293   -0.4038521340    1.6258145091
 H    1.1227096087    1.8112776186    0.0600809570
 H   -0.6276538859    2.1147693289    0.0329043630
 H    0.1693116166    1.5311310856    1.5070810367
 H   -1.1057515538   -0.3345671717    0.3419695513
 H   -0.2334274847   -1.3761951240   -1.7274522767
 H    0.6123109608    0.6702779668   -2.9587747028
 H    1.8709150399    0.8961877086   -1.7468713563
 H    2.9002943531   -1.4584386678   -0.0602798021