13

 O    0.2415462529    1.4415313007    0.3044718942
 C    0.0189253865    0.0820151584    0.0587821206
 C   -1.4842865099   -0.3079786727   -0.1118713063
 C   -1.1717260535   -1.0491609955   -1.4494129268
 C    0.1970438980   -0.3716829505   -1.4396485938
 O    1.0211419828   -0.0765722111   -2.2478899491
 C    0.7450646445   -0.7932807476    0.9884095524
 N    1.3344553832   -1.4945212368    1.6943321737
 H    1.1355641857    1.6558436053    0.0077632694
 H   -1.9141056580   -0.9038798817    0.6912650412
 H   -2.0677251733    0.6017058242   -0.2591620053
 H   -1.0799655091   -2.1329680996   -1.3262550119
 H   -1.8022804498   -0.8460557131   -2.3169340483