16

 C    0.1212870684    1.5456154967   -0.1796938286
 C   -0.0549283795    0.0364962232    0.0637500451
 C    0.5759073663   -0.4275141894    1.3328957198
 C    0.0931437981   -0.9576785255    2.4868746189
 C    1.2571844813   -1.1571892403    3.2892162267
 N    2.3523882056   -0.7720121226    2.6565908307
 O    1.9174717626   -0.3131787115    1.4243350519
 C    1.3211830804   -1.6918711445    4.6012091516
 C    1.3357622303   -2.1491540488    5.7131303999
 H    1.1807607520    1.8104940424   -0.2214876230
 H   -0.3431474360    1.8344882159   -1.1265056036
 H   -0.3422923219    2.1280787671    0.6218014867
 H   -1.1170838034   -0.2229314109    0.0993937139
 H    0.3813743507   -0.5225492085   -0.7728630539
 H   -0.9280925923   -1.1807905988    2.7439713314
 H    1.3634220073   -2.5514747542    6.6956787326