18

 C   -0.1209808865    1.4883702997    0.0121993857
 C   -0.0076545984   -0.0234464236    0.0039370427
 O   -1.3458200838   -0.5600360640    0.0110021538
 C   -1.4497247630   -1.8886306576    0.0057508935
 N   -0.4630282151   -2.6979577258   -0.0050299058
 C   -0.9750060985   -4.0640739304   -0.0075488305
 C   -2.5115099351   -3.9717938311    0.0042502489
 O   -3.2911906893   -4.8848709473    0.0053286645
 C   -2.8373556907   -2.4722167165    0.0130767822
 H    0.8782711200    1.9338270899    0.0070270869
 H   -0.6618298174    1.8449903749   -0.8688761567
 H   -0.6487803944    1.8362935129    0.9045918424
 H    0.5162011655   -0.3942377179   -0.8832126821
 H    0.5290063337   -0.4029533792    0.8796660933
 H   -0.6348127707   -4.6194528066   -0.8911339109
 H   -0.6218588604   -4.6275577270    0.8657612982
 H   -3.4161908524   -2.1909012208    0.8990423763
 H   -3.4287079934   -2.1832030093   -0.8620809323