23

 C   -0.0219579084    1.5515106101    0.0152382616
 C   -0.0167488334    0.0237171683    0.0008955321
 C    0.7124383697   -0.5295389593   -1.2597835564
 C    0.6545169396   -2.0808382120   -1.2771896289
 C   -0.1118866633   -2.5774671413   -0.0225887713
 C    0.6771715527   -2.1042714106    1.2270231466
 C    0.7353155149   -0.5529183952    1.2374189158
 C   -1.4624230153   -1.9028842579   -0.0039904503
 C   -1.4106488571   -0.5698171892    0.0080498447
 H    0.9979733985    1.9514024149    0.0097199969
 H   -0.5424104989    1.9528481622   -0.8615723179
 H   -0.5263433017    1.9362842230    0.9087049571
 H    0.2457510145   -0.1124212119   -2.1574544079
 H    1.7507986499   -0.1770825893   -1.2498252018
 H    0.1535674614   -2.4402571429   -2.1804905189
 H    1.6626274959   -2.5104745717   -1.2792431186
 H   -0.1947629104   -3.6673724590   -0.0320343242
 H    0.1923566500   -2.4804011864    2.1323234822
 H    1.6850021460   -2.5338943386    1.2030124506
 H    1.7734423681   -0.2003483195    1.2148375784
 H    0.2854677286   -0.1525622450    2.1511740168
 H   -2.3848127954   -2.4744654076   -0.0009441153
 H   -2.2857366360    0.0734430291    0.0220592989