13

 O    0.0880158465    1.3487743980    0.1855968700
 C    0.0649592081    0.0043225673    0.0259207558
 C    0.1022455173   -0.7974281000   -1.0837219686
 O    0.1743022106   -0.3234611367   -2.3606099957
 C    0.0457821949   -2.1545794646   -0.6189698995
 C   -0.0243068869   -2.1170702197    0.7649119641
 N   -0.0120606647   -0.8028496840    1.1347472882
 C    0.0637988834   -3.2852499438   -1.4628603216
 N    0.0837643093   -4.1666553084   -2.2168438779
 H    0.1507908325    1.7459797591   -0.6905846772
 H    0.2258317152   -1.0687820095   -2.9691896689
 H   -0.0793324759   -2.9144927639    1.4846797342
 H   -0.0518931104   -0.4534358037    2.0768333673