19

 C    0.0365969695    1.5372867961    0.0315731756
 C    0.0050766242    0.0082088535    0.0198739442
 C    0.5369520858   -0.5859463036    1.3338913773
 N   -1.3562124553   -0.4262839645   -0.2988103223
 C   -1.6602333082   -1.7307132802   -0.5877513025
 N   -2.8532503667   -2.2875351739   -0.4373957110
 C   -2.6581279932   -3.5455008020   -0.9276752935
 N   -1.4449231793   -3.8186672534   -1.3592865251
 N   -0.8014123680   -2.6269549158   -1.1294148524
 H    1.0514783501    1.8997549728    0.2153969719
 H   -0.3152289451    1.9421935647   -0.9205985213
 H   -0.6050248131    1.9301413630    0.8294643265
 H    0.6470199872   -0.3303018666   -0.8051222154
 H    0.4936411000   -1.6786953034    1.3212270703
 H    1.5765980411   -0.2873527246    1.5025988687
 H   -0.0596482447   -0.2339168738    2.1825463953
 H   -2.0866869455    0.0075095417    0.2493313816
 H   -3.4453827474   -4.2844917528   -0.9591332240
 H    0.1617564186   -2.5221818369   -1.3947755339