21

 C    0.4851085681    1.3452824006   -0.3134890029
 C    0.0522334333   -0.1036945121   -0.0676241231
 O    0.4300814138   -0.9761619654   -1.1232595328
 C   -0.3206397722   -0.8570236377   -2.2914794594
 C    0.1884710633   -0.0208598322   -3.4401678238
 C    0.2354430556   -1.5350619162   -3.5007202569
 C    0.6625080202   -0.6298408388    1.2179549582
 C    1.2163540049   -1.9795927220    1.3544287536
 O    2.0728352366   -0.8377096784    1.2283825842
 H    1.5724785184    1.3901481292   -0.4178858077
 H    0.0226411134    1.7470109083   -1.2173951289
 H    0.1902453603    1.9776462179    0.5304519256
 H   -1.0445442360   -0.1386387851    0.0555407273
 H   -1.3991319210   -0.8960148853   -2.1303016444
 H   -0.5282379833    0.5081288519   -4.0594355813
 H    1.1317185395    0.4913811772   -3.2915872006
 H    1.2069668462   -2.0013458492   -3.3831756314
 H   -0.4456495402   -2.0588516324   -4.1616499615
 H    0.2776137120   -0.1337256846    2.1115956839
 H    1.2234158237   -2.4610015588    2.3316536286
 H    1.2024399434   -2.6400384470    0.4926307032