19

 C   -0.9999836734    1.1570131046    0.2440447556
 C   -0.1154859593   -0.0653070684    0.0453493306
 C    0.6150828412   -0.3512233646   -1.3200786953
 C    0.9960028312    0.8567233571   -2.1360243649
 C    2.2940504152    1.1548452780   -2.0516144382
 C    3.0695662657    0.1976503793   -1.1733816623
 C    1.9515372488   -0.6666325643   -0.5583609704
 C    1.2779739846   -0.0752202768    0.6961223853
 O    1.7047975153    0.3420674234    1.7347521981
 H   -0.4972269888    2.0643218158   -0.1032894858
 H   -1.9447698143    1.0592763467   -0.3003133342
 H   -1.2306084432    1.2872298641    1.3055538416
 H   -0.6446097608   -0.9735990751    0.3655022127
 H    0.1588825141   -1.1454308458   -1.9172602723
 H    0.2737802743    1.4095515550   -2.7271319462
 H    2.7739542712    1.9819957051   -2.5640259100
 H    3.7831821876   -0.3958022491   -1.7592714733
 H    3.6503865298    0.7099657956   -0.3973092970
 H    2.2079670409   -1.7217855408   -0.4396499140