23

 C   -0.1237652344    1.5037866913    0.0107816310
 C    0.0056032126   -0.0022217887   -0.0120456477
 C   -0.7946336311   -0.8226184412    0.9700537972
 C    0.7137980649   -0.7862477624    1.0786501375
 C    1.5696948221   -1.8771256894    0.4484624226
 C    2.9348276727   -2.1028514650    1.0565594147
 C    0.8702339000   -3.0110066368   -0.2635427719
 C    1.3382162034   -1.8092731646   -1.0514030386
 C    0.3721725611   -0.6615891143   -1.3546935879
 H    0.7856992600    1.9893962227   -0.3632919247
 H   -0.9594092914    1.8430229673   -0.6137617036
 H   -0.3052278976    1.8708967991    1.0262898914
 H   -1.3509846063   -0.2729025237    1.7238927231
 H   -1.2952722654   -1.7275570470    0.6451642346
 H    1.1417865794   -0.2766772892    1.9364588062
 H    2.8592612384   -2.5186272191    2.0685054223
 H    3.5231386267   -2.8031515327    0.4552321764
 H    3.5004776344   -1.1658387267    1.1249720276
 H    1.4373095992   -3.9278661789   -0.3956962086
 H   -0.1901838132   -3.1821158952   -0.1170860251
 H    2.1615673149   -1.9637553158   -1.7421491821
 H   -0.5141236227   -0.9875630291   -1.9130384308
 H    0.8815955224    0.0773017694   -1.9838652437