20

 C    0.0414655301    1.4414373752   -0.0170797915
 N   -0.0361240483   -0.0047221902    0.0824761261
 C   -1.2677340446   -0.6306049334    0.0124617176
 O   -2.3261605202   -0.0241615972    0.0489908687
 N   -1.1891228112   -2.0064566002   -0.1042936114
 C   -2.3970649292   -2.8204563376    0.0407896631
 C   -2.1799031689   -4.1692930152   -0.6469420034
 C   -2.8185311970   -2.9768286342    1.5083983256
 H    0.9095534572    1.8075692605    0.5388042520
 H    0.1120418647    1.7957559622   -1.0545897080
 H   -0.8677320015    1.8546656679    0.4197814081
 H    0.7552691156   -0.5218212414   -0.2674630360
 H   -0.3337804690   -2.4397356066    0.2137328624
 H   -3.1814278801   -2.2671453378   -0.4824416277
 H   -1.3778318820   -4.7375286021   -0.1587842494
 H   -3.0881149138   -4.7767912425   -0.5958965747
 H   -1.9100325868   -4.0346004789   -1.6980190132
 H   -3.7467126841   -3.5525330062    1.5874272029
 H   -2.0472512561   -3.5022610440    2.0846565653
 H   -2.9838255050   -1.9947931085    1.9576051533