23

 C   -0.5318248117    1.3950307054    0.2466717020
 C   -0.0118142603   -0.0101893413   -0.0335143447
 C   -1.0989197925   -0.8769280713   -0.6821176756
 C    1.3400616535   -0.1020032137   -0.8193710592
 C    1.8655482931   -1.1411417726    0.2109667840
 C    0.7073483858   -0.7427950192    1.1314895416
 C    0.8760849369   -0.2271880510    2.5421119897
 C    0.1171509329   -1.5049038238    2.2694804285
 O   -1.2809282281   -1.4995636979    2.3773629163
 H    0.2420663796    2.0274811992    0.6935060181
 H   -0.8641655557    1.8755492871   -0.6810626401
 H   -1.3870711224    1.3686985013    0.9314274430
 H   -1.4239543965   -0.4321050047   -1.6301198175
 H   -0.7304039815   -1.8856207484   -0.8965372648
 H   -1.9654282309   -0.9743266982   -0.0241722284
 H    1.2722123445   -0.4271249025   -1.8609155645
 H    1.9017698261    0.8354669269   -0.7816577089
 H    1.7935400064   -2.1727796119   -0.1477730683
 H    2.8751033943   -0.9804301043    0.5985575959
 H    1.8574481391   -0.2873604781    3.0041532444
 H    0.2838529638    0.6331942207    2.8386165188
 H    0.5907006586   -2.4486717260    2.5458639441
 H   -1.5049633549   -1.4493771256    3.3125761658