18

 C   -0.2104567226    1.3837363678    0.0533021149
 O    0.1060611611   -0.0028597915    0.0479579223
 C    0.6851093573   -0.5139068913   -1.1558271700
 C    0.6051490328   -2.0474481239   -1.0336105393
 C   -0.0265472511   -0.0672935614   -2.3565627265
 C   -0.6457769530    0.2842402588   -3.3238649316
 C    2.1998170741   -0.1435641786   -1.2628379863
 N    2.7606535639    0.1653736359   -0.0649233572
 O    2.8039622388   -0.1944190436   -2.3120485182
 H    0.6764015659    2.0074052295   -0.1218924496
 H   -0.9666343810    1.6239967494   -0.7013344603
 H   -0.6083397821    1.5985346677    1.0476363500
 H   -0.4412994888   -2.3556954752   -0.9925904782
 H    1.0897334076   -2.5117636194   -1.8941453762
 H    1.1082810954   -2.3674436345   -0.1173156975
 H   -1.1737587877    0.5971388745   -4.1909066546
 H    2.2090023591    0.1244539163    0.7748620481
 H    3.7555012003    0.3093110796   -0.0195851597