19

 C    0.0521834894    1.4918394989    0.0959428324
 C   -0.0081403390   -0.0031972594   -0.0319035537
 C    0.6115541365   -0.7924475217   -1.2123911933
 C    0.7411621706   -1.8463122911   -0.0825388472
 C    1.7542330019   -2.9460751890   -0.0129577165
 O    0.9009377626   -0.7358563450    0.8709404538
 C   -0.7434949814   -2.1679724509    0.1878784585
 O   -1.2732176713   -3.2349385216    0.3260484175
 C   -1.3352396392   -0.7437106539    0.2443887077
 H    1.0694717735    1.8538091502   -0.0768480453
 H   -0.6150053170    1.9630419553   -0.6330402270
 H   -0.2613510932    1.8047091332    1.0969868674
 H   -0.0033936340   -1.0158555974   -2.0889809967
 H    1.5895660931   -0.4001100411   -1.4985087171
 H    2.7604384960   -2.5710097428   -0.2160727265
 H    1.7430092076   -3.4072057686    0.9790616013
 H    1.5083714368   -3.7221121108   -0.7440137670
 H   -1.7367285495   -0.5131707090    1.2347101807
 H   -2.1204704229   -0.5959468853   -0.5028855888