20

 C   -0.0579861826    1.5302832619    0.0181923425
 C   -0.0479647463    0.0061103851   -0.0351132696
 O   -1.3570679714   -0.4980152981   -0.2253714834
 C    1.0814858900   -0.5753587669   -0.9738066310
 C    1.8146107636   -1.1307707535    0.2743782231
 C    0.6760686513   -0.6323134866    1.1904820582
 C    0.4383578041   -2.1063409273    1.5505810113
 C    0.2435529130   -2.9999020220    0.3992048639
 N    1.6248027901   -2.5791860258    0.7054034047
 H    0.9359861120    1.9291840766    0.2432161095
 H   -0.3695762247    1.9497211628   -0.9473143143
 H   -0.7540308567    1.8767470404    0.7886927572
 H   -1.7560507726   -0.0196960881   -0.9604325474
 H    0.7414527893   -1.3166682141   -1.7000627202
 H    1.6504673259    0.1923858539   -1.5057890927
 H    2.8552316421   -0.8404131968    0.4128964411
 H    0.8524071752    0.0189488662    2.0467301675
 H    0.3113498247   -2.4488720351    2.5730325356
 H    0.0939976122   -4.0527093370    0.6225398046
 H   -0.2756909392   -2.6541742356   -0.4854780408