23

 C   -0.0338900683    1.4097186655    0.0413483730
 O   -0.0128037392    0.0077030730   -0.0560388450
 C   -1.2992262386   -0.5673270611    0.0452702553
 C   -1.1560450486   -2.0815687776   -0.0337796274
 C   -2.4955961752   -2.8056756948    0.0178798108
 C   -2.4109787080   -4.3365829486   -0.0298904637
 C   -3.6869662621   -4.7497565923    0.7155895043
 C   -3.7889634675   -3.6586288603    1.7903884662
 O   -3.1595015216   -2.4963426175    1.2513951468
 H    0.9977657127    1.7614220351   -0.0412789795
 H   -0.6300583311    1.8687757700   -0.7642834834
 H   -0.4484827271    1.7482559477    1.0046085272
 H   -1.7800812061   -0.2837555051    0.9939131557
 H   -1.9476343590   -0.2001664931   -0.7706669511
 H   -0.6423951924   -2.3408691327   -0.9674742107
 H   -0.5257957257   -2.4256561246    0.7941407429
 H   -3.1281248979   -2.4506959651   -0.8146432132
 H   -2.3563191683   -4.7222121362   -1.0507882339
 H   -1.5204079292   -4.6785091141    0.5105233734
 H   -4.5507187203   -4.7077569430    0.0434483254
 H   -3.6401407364   -5.7557658851    1.1393639207
 H   -4.8248172138   -3.4163548481    2.0549983962
 H   -3.2685295263   -3.9584699720    2.7117978402