18

 C    0.0119982576    1.5860935163   -0.0085810671
 C   -0.0973420403    0.0938388796    0.1820504453
 N    1.0818998467   -0.7164814927   -0.2083696674
 C    0.6941120067   -0.6400853998    1.1870478704
 C    1.5611911431   -0.1628281003    2.3432164999
 O    0.9984014509   -1.1829246076    3.2056708297
 C    0.2423354470   -1.7794897881    2.1209027174
 C   -1.1770313928   -1.9247024292    2.3909544876
 C   -2.3571448426   -2.0475956037    2.5857300763
 H    1.0241715321    1.9320072224    0.2182782538
 H   -0.2124748886    1.8626045808   -1.0439058447
 H   -0.6919592705    2.1138672748    0.6436318139
 H   -1.0769556076   -0.3323771866   -0.0309954672
 H    0.7975445242   -1.6051325982   -0.6149969109
 H    2.6388532569   -0.2981937908    2.1914984651
 H    1.3653154035    0.8457143468    2.7248231934
 H    0.6722664916   -2.7541263560    1.8437024742
 H   -3.3973686581   -2.1573049376    2.7708929602