21

 C    0.0597945450    1.5272140702    0.0797908720
 C    0.0152906768    0.0094866625   -0.0134660970
 C    0.6806529119   -0.5380534554   -1.2829346586
 C    0.6827736834   -2.0755510250   -1.2745988846
 C    1.2438186786   -2.5789528708    0.0396136762
 C    1.8530748265   -3.9064038110    0.1614980472
 O    2.6712679402   -2.7362790101    0.0879567108
 C    0.6268995187   -1.9050319591    1.2488515915
 O    0.6734048883   -0.4945143352    1.1468189419
 H    1.0966160746    1.8771650854    0.0716147071
 H   -0.4680192034    1.9811677609   -0.7642536256
 H   -0.4081908697    1.8655906217    1.0079539654
 H   -1.0387878037   -0.3267601108    0.0042681762
 H    0.1613282647   -0.1586662209   -2.1698689152
 H    1.7127271424   -0.1697504852   -1.3199690536
 H   -0.3455313879   -2.4457032282   -1.3865392615
 H    1.2696517553   -2.4780014260   -2.1054687360
 H    1.8562432701   -4.4199274816    1.1230438530
 H    1.8885672107   -4.5615188488   -0.7087657924
 H   -0.4179954715   -2.2473128452    1.3601607674
 H    1.1799942192   -2.1731865174    2.1526888559