23

 C   -0.0407534020    1.5054448956    0.1043127921
 C    0.0359968431   -0.0083788387   -0.0222211143
 C    0.8063774623   -0.4830637666   -1.2574439657
 C    1.0902943093   -1.9562656403   -1.1511160114
 C    1.0071945334   -2.6298234024   -0.0023105146
 C    1.2049569468   -4.1197629245    0.0776989819
 C    0.6589956744   -1.9069620207    1.2879743520
 C    1.6134920818   -2.2233427748    2.4404727687
 O    0.6754449991   -0.4944453354    1.1507256711
 H    0.9643214268    1.9297091070    0.1932864149
 H   -0.5255697526    1.9414746598   -0.7746176883
 H   -0.6106874729    1.7878989498    0.9935787201
 H   -0.9860755439   -0.4236647065   -0.0723506101
 H    0.2216725910   -0.2746047279   -2.1628876322
 H    1.7392217416    0.0912073698   -1.3552551196
 H    1.3489393025   -2.4869650665   -2.0653389439
 H    1.3235252010   -4.5528716249   -0.9190794870
 H    2.0889163460   -4.3866517800    0.6688243716
 H    0.3480990089   -4.6102142368    0.5581960078
 H   -0.3590578004   -2.2275913978    1.5872112955
 H    2.6436901478   -1.9868123058    2.1581749651
 H    1.3445969938   -1.6143869983    3.3073602389
 H    1.5581504022   -3.2765185941    2.7263850273