20

 C    0.4765070598    1.3844142863   -0.3171593039
 C   -0.0621931433    0.0317222187    0.1637219713
 O   -0.0859238105   -0.8878075086   -0.9465864952
 C    0.9117720882   -1.7832211181   -1.1728914248
 N    0.8884316491   -2.5547170864   -2.1779818585
 C    2.0516407539   -1.8463194804   -0.1806457336
 C    1.6628066196   -1.3737070018    1.1903409554
 C    0.6783144687   -0.4967756446    1.3692477779
 C    0.2505743658    0.0272153883    2.7109341925
 H    1.5333582172    1.3047364433   -0.5886668378
 H   -0.0862789770    1.7221354011   -1.1914465700
 H    0.3814971226    2.1397520048    0.4688694456
 H   -1.1222419066    0.1508508528    0.4192333896
 H    0.0568209531   -2.3664492858   -2.7418193363
 H    2.4189757031   -2.8748217564   -0.1730421262
 H    2.8827720303   -1.2400745660   -0.5715525101
 H    2.2206030018   -1.7612984987    2.0385644697
 H    0.8673816520   -0.3892563746    3.5112645364
 H    0.3252981680    1.1206346915    2.7632656502
 H   -0.7968349659   -0.2248987852    2.9197999878