26

 C    0.1934664557    1.5480941876    0.1250262342
 C    0.0567702240    0.0265929779    0.2255222284
 C   -1.3550312213   -0.4763683961   -0.0953685687
 C   -1.4947804874   -1.9980535348    0.0059128562
 C   -2.9067342921   -2.4946589023   -0.3113236491
 N   -2.9582562132   -3.9507998115   -0.2360825222
 C   -3.3463060336   -4.5541700013    1.0353851617
 C   -4.2460705041   -4.6422142757   -0.1507113377
 C   -5.5815594122   -3.9301773237   -0.1854457223
 H    1.2113269997    1.8753612023    0.3595654032
 H   -0.0451840505    1.9017356099   -0.8843895082
 H   -0.4867807645    2.0537785215    0.8196576653
 H    0.7735467070   -0.4521471521   -0.4546050567
 H    0.3350733375   -0.3006808216    1.2361080318
 H   -2.0725508069    0.0053602083    0.5841447191
 H   -1.6334436759   -0.1493552246   -1.1073328202
 H   -0.7907254017   -2.4893856384   -0.6762718744
 H   -1.2218678611   -2.3270118551    1.0176801480
 H   -3.6236745882   -1.9994707184    0.3662446245
 H   -3.1796009882   -2.2003582988   -1.3330081953
 H   -2.7593692819   -5.4076306623    1.3659422428
 H   -3.6609978939   -3.8852594900    1.8374678882
 H   -4.2437969378   -5.5791687529   -0.7076618752
 H   -5.6031830884   -3.0449157247    0.4543019889
 H   -5.8382495255   -3.6194279504   -1.2045275608
 H   -6.3705812755   -4.6066417529    0.1601693885