17

 C   -0.0478565433    1.5091727042    0.0196814269
 C   -0.0008142248    0.0166678765   -0.0608756101
 C    0.8271975220   -0.8280485594   -1.0443118894
 C   -0.1058346629   -2.0250050808   -0.7000219515
 O    0.4687041793   -2.7686756258    0.3816280125
 C    0.5303241768   -1.8951619575    1.4444849925
 N    1.1840922031   -2.0642637311    2.5060210090
 N   -0.2939338836   -0.7564825814    1.1933548719
 C   -1.0709280341   -1.0269802386   -0.0163991717
 H    0.9061838325    1.9057979472    0.3835035334
 H   -0.2400657055    1.9430302528   -0.9673251581
 H   -0.8325408948    1.8317614068    0.7078965784
 H    0.6764219974   -0.4769710101   -2.0689859555
 H    1.8948228823   -0.9712791455   -0.8522017638
 H   -0.4288281310   -2.7114014907   -1.4779838800
 H    1.6997442357   -2.9432031471    2.4611908379
 H   -2.1532738290   -0.9870012193    0.0010563277