17

 O    0.0519459394    1.0228810338   -0.8314075932
 C   -0.1204611289    0.0170358296    0.1772612388
 C   -1.4885899103   -0.5788323678    0.1458813107
 O   -2.5429034829   -0.0861362749    0.9803146205
 C   -3.3231890124   -1.2212924621    0.4890157835
 C   -3.6209632641   -0.8571581835   -0.9904999132
 C   -2.1166057379   -1.0506859314   -1.1786762586
 O   -1.3870452492   -1.0810179837   -2.3407833698
 C   -2.0195937371   -1.9761911183    0.0384575310
 H   -0.5617273719    1.7384714844   -0.6320373371
 H    0.6239768486   -0.7505554571   -0.0489526527
 H    0.0951238200    0.4142828058    1.1776926380
 H   -4.0862280549   -1.5623084836    1.1835516618
 H   -4.1901688442   -1.6418098035   -1.4949722715
 H   -4.0663365603    0.1267958255   -1.1706782538
 H   -0.8369249090   -0.2833360608   -2.3441179791
 H   -1.6007466152   -2.9569084623    0.2171142548