17

 C   -0.0267333162    1.5423661700    0.0255643185
 C    0.0267181191    0.0426106878   -0.0014143336
 C   -0.8404747049   -0.8319883343    0.8157277904
 O   -1.5852013032   -1.8546364043    0.1963607269
 C    0.6557178223   -0.9575464129    1.0475450288
 C    1.2212552161   -1.7609372633   -0.0886708001
 O    1.9444809563   -2.7141807417   -0.1454967115
 C    0.6318164087   -0.7887911531   -1.1585732372
 O   -0.1884135617   -1.2301743174   -2.1950795876
 H    0.9573538700    1.9773326094   -0.1778031052
 H   -0.7189162262    1.9113575898   -0.7395102598
 H   -0.3699897011    1.9171179321    0.9949655624
 H   -1.3725114976   -0.3355651849    1.6278370025
 H   -1.5665662851   -2.6355092438    0.7609070900
 H    1.1011358414   -0.7835441651    2.0196775294
 H    1.4721566951   -0.2516091086   -1.6161097068
 H   -0.9045243630   -1.7279987295   -1.7780676870