23

 C    0.2153011276    1.6654131485    0.2542804462
 C    0.0868522600    0.1346600795    0.0958314971
 C    0.8835172883   -0.5658904366    1.2180492605
 C   -1.3820281297   -0.3295539074    0.0395271641
 C   -2.2235362762   -0.0423353734    1.2873204012
 C   -3.6566463381   -0.5377790594    1.1348916621
 O   -4.3546061966   -0.2288012434    2.3331156152
 C    0.7810469860   -0.2238356194   -1.2155533066
 O    0.2752189321   -0.7813812618   -2.1540815270
 H    1.2591510284    1.9852203943    0.1610203860
 H   -0.3697077871    2.1949831794   -0.5046073299
 H   -0.1374729989    1.9827874667    1.2393441794
 H    0.5295189873   -0.2447683055    2.2014588208
 H    0.7831846238   -1.6544289252    1.1579887886
 H    1.9496322722   -0.3203978886    1.1570017651
 H   -1.8525488910    0.1365580175   -0.8348199348
 H   -1.3904250843   -1.4065976506   -0.1679598265
 H   -1.7932537481   -0.5236220336    2.1729559236
 H   -2.2595745245    1.0321212012    1.5003284896
 H   -4.1272441467   -0.0536664745    0.2634368783
 H   -3.6568408122   -1.6231914651    0.9421722071
 H   -5.2602403776   -0.5393859768    2.2426070518
 H    1.8546184252    0.0837485143   -1.2458673920