18

 O    0.3073662370    0.0639778682   -0.1679284039
 C    0.1039834521    1.2454155511   -0.0806118792
 N   -1.0379480612    2.0072779350   -0.0806093620
 C   -0.3682977506    3.2952435904    0.1209915277
 C    0.9832989758    2.5131946128    0.1069202420
 C    1.8391631086    2.5230374346    1.3586438262
 C    3.0925701056    1.6171224274    1.3082727239
 O    3.9744373139    2.7604690539    1.3441213738
 C    2.8690654124    3.6700146303    1.4955281824
 H   -2.0126439708    1.7537239165   -0.1460138322
 H   -0.5090170691    4.0086199920   -0.6967515086
 H   -0.6074446168    3.7788085401    1.0743768657
 H    1.5908816635    2.7227831464   -0.7790349650
 H    1.2151630403    2.3709326598    2.2436183333
 H    3.2306874831    0.9638569108    2.1780752703
 H    3.2143698718    1.0234692918    0.3956684920
 H    2.8478840754    4.4304851545    0.7036214566
 H    2.8805687388    4.1751524744    2.4702931971