18

 C   -0.0310930282   -1.1939721297    0.0226748959
 C    0.0176343762    0.0073332618    0.0427236014
 C    0.0394425473    1.4453869797    0.0085463593
 C   -1.1072535338    2.0758742405   -0.7828357448
 O   -0.9642491137    3.4763971091   -0.8902056728
 C    0.2352702158    3.8205620080   -1.5714395880
 C    1.4739008769    3.5133197504   -0.7206812491
 C    1.3343166379    2.2061010608    0.0482151283
 N    0.4739744467    2.1415090652    1.2389014094
 H   -0.0635010255   -2.2553752639    0.0247191967
 H   -1.1587886426    1.6097871166   -1.7794028984
 H   -2.0575813183    1.8951950152   -0.2709132780
 H    0.2831885811    3.2685001482   -2.5234026435
 H    0.1666897159    4.8867271528   -1.8024877667
 H    2.3554916160    3.4681920706   -1.3692558177
 H    1.6533263830    4.3258372382   -0.0056452309
 H    2.2451516145    1.6236860442    0.1576892241
 H   -0.0595906391    3.0093757821    1.3002986948