19

 C    0.1562842275    1.2023930109    1.0719996237
 C    0.0973837896    0.0104954071    0.1083968474
 C   -1.2669397280   -0.6477699348    0.0948942453
 C   -1.5507466646   -2.0740190948   -0.2264548957
 N   -1.8268965690   -1.4817340633    1.1741167048
 C   -0.7034909073   -2.3387783621    1.7176444110
 C   -0.5209562337   -2.9688569166    0.3539404365
 N    0.0445956159   -3.9950036945   -0.1273849282
 O    0.8711073787   -4.6016253738    0.8380874580
 H    1.1364466087    1.6868191175    1.0374600440
 H   -0.5986200661    1.9539264009    0.8171209119
 H   -0.0303124742    0.8876522876    2.1037712640
 H    0.3076602883    0.3496177080   -0.9135150673
 H    0.8831855167   -0.7110951252    0.3483696173
 H   -2.0489263052    0.0196366913   -0.2686847569
 H   -2.3413337448   -2.3778812169   -0.9037767542
 H    0.1307253008   -1.7909121786    2.1626543915
 H   -1.0957738713   -3.0490330958    2.4499931797
 H    1.2081969180   -5.3686549072    0.3630901774