17

 C   -0.0182440542   -1.1230584054    0.0567472060
 C   -0.0226838389    0.0777145241    0.0067433211
 C   -0.0023718208    1.5131194471   -0.0709730943
 C    0.5673235202    2.1553660201   -1.3143865732
 C    1.3492858100    2.2234214563   -0.0057954352
 C    1.3489958680    3.4885529341    0.7619980214
 C    0.2093088411    4.0864212819    1.1089819333
 C   -1.1233205667    3.4826798866    0.7620808955
 O   -1.0848293114    2.0642544837    0.6269064017
 H   -0.0202834417   -2.1836731786    0.1068116985
 H    0.9270145795    1.4944528087   -2.0939509602
 H    0.1191472298    3.0781823201   -1.6645457849
 H    2.2312162817    1.5984221684    0.0711581428
 H    2.3093240618    3.9110515909    1.0418368932
 H    0.2051372326    5.0209693377    1.6606691190
 H   -1.8498378885    3.6675519218    1.5599135413
 H   -1.5393451224    3.9395110826   -0.1523812958