18

 C    0.1538662516    1.2844976430    0.2083913649
 O   -0.1405919583   -0.0870489401   -0.0478601329
 C    0.4657048288   -0.5676185716   -1.1718149596
 C    1.9361751652   -1.0356009028   -1.1977363143
 C    0.8216314634   -2.0001116088   -1.5111739185
 C    0.5106546052   -3.2712788147   -0.7857850421
 N    0.3345939455   -1.7690566774   -2.8867503766
 C    0.0200867524   -0.4168003422   -2.6251181674
 O   -0.4131691838    0.4554453549   -3.3230304300
 H    1.2301520467    1.4331629941    0.3697468719
 H   -0.1753681996    1.9195096964   -0.6218903598
 H   -0.3900171744    1.5565826388    1.1147565800
 H    2.6216270919   -0.7043611740   -1.9726551674
 H    2.3675830880   -1.1173640486   -0.2031031544
 H    0.6972443285   -3.1497902298    0.2849239262
 H   -0.5384190370   -3.5455027702   -0.9285240016
 H    1.1337784078   -4.0978273588   -1.1447883395
 H    0.8633456081   -2.0420929083   -3.7095157287