18

 C    0.8444913870    0.6032321043   -0.2279741464
 C   -0.1124345599   -0.1900445917    0.6330805216
 O    0.1791273581   -0.6415941178    1.7138072765
 C   -1.5039200086   -0.4413227558    0.0234351432
 C   -1.4425856925   -1.7333257442   -0.7885077998
 O   -1.2706555027   -1.7254155292   -1.9904292650
 C   -1.5639080205   -3.0072066792   -0.0199244980
 C   -2.5836001885   -3.9849359679   -0.5307679872
 N   -1.1626857786   -4.2461764499   -0.6973603789
 H    1.8455083673    0.5857831201    0.2038234673
 H    0.8550478041    0.1984786776   -1.2459632329
 H    0.4961933698    1.6401294828   -0.3043034628
 H   -2.2162198962   -0.5425220677    0.8454287946
 H   -1.7925411523    0.3683219538   -0.6491820255
 H   -1.3584297677   -2.9517223679    1.0442945170
 H   -3.0984907668   -4.6176196601    0.1862005047
 H   -3.1653312531   -3.6819380070   -1.3971616906
 H   -0.8920651290   -3.9875379502   -1.6472325578