17

 O   -0.0063072004    1.4457387570    0.1129660463
 C    0.0120534254    0.0395540045   -0.0122710511
 C   -1.3765617975   -0.5336429354   -0.3832959249
 C   -1.6322116843    0.2783406161   -1.6748694105
 C   -0.4936587804   -0.4433735167   -2.4116740147
 O   -1.0538107961   -1.7699667976   -2.4111277607
 C   -0.9236052707   -1.9504876022   -1.0170574556
 O    0.4945043143   -1.9605102001   -0.8739719456
 C    0.6588898822   -0.5939979366   -1.2729064981
 H    0.8710774692    1.7266483218    0.3891092074
 H    0.4483394703   -0.4301787177    0.8746455917
 H   -2.1436228626   -0.5632053817    0.3872690961
 H   -2.5845814568    0.0703160404   -2.1627779364
 H   -1.5041332094    1.3477794459   -1.5201033846
 H   -0.1923898072   -0.1432012308   -3.4121745000
 H   -1.3768302722   -2.8761148013   -0.6719148770
 H    1.6904978362   -0.3722517356   -1.5396275923