12

 N   -0.0472558095    1.2716099112    0.3560860147
 C   -0.0197716146    0.0602157237    0.0066321998
 O    1.1493678567   -0.5670139960   -0.4142909896
 C    1.1282116740   -1.8655077567   -0.7784307521
 C    0.0013663971   -2.5991986079   -0.7526036640
 N   -1.2012562388   -2.0564959836   -0.3487113021
 C   -1.2099657687   -0.8131655832    0.0060695446
 C   -2.4515522901   -0.2266569925    0.4301585142
 N   -3.4603439057    0.2263776390    0.7681040338
 H    0.8713365751    1.7102298916    0.2897076303
 H    2.1040230711   -2.2227174058   -1.0825322010
 H   -0.0004156065   -3.6397388397   -1.0475870686