19

 C    0.0089605854    1.5163315254    0.0007813163
 N    1.2649018843    0.7521397301    0.0141536731
 C   -0.0375317687    0.0289782178    0.0100415647
 C   -0.3714710493   -0.7180876603    1.2896242550
 C   -0.0703503218   -2.2145732632    1.1327431399
 C   -0.8759067975   -2.8159100648   -0.0284200875
 C   -0.8191202806   -1.9489281905   -1.2595395477
 C   -0.4275880483   -0.6728273410   -1.2365067694
 H   -0.2024194226    2.0619265332    0.9172784434
 H   -0.2840978985    2.0346202424   -0.9094132250
 H    1.6667709585    0.7344053402   -0.9211852299
 H    0.2005710606   -0.2856755154    2.1153816481
 H   -1.4374725746   -0.5803780205    1.5166399591
 H    1.0008162126   -2.3394665450    0.9326784098
 H   -0.2866946047   -2.7501507300    2.0627672762
 H   -0.5057828042   -3.8205179703   -0.2677207195
 H   -1.9257528409   -2.9561113021    0.2719228259
 H   -1.1140636834   -2.4019512824   -2.2029250582
 H   -0.3808300564   -0.0952922337   -2.1584379244