18

 O    0.0286454855   -0.0466097624    0.2723626117
 C   -0.0196918795    1.1449447139    0.0882461510
 C   -1.3022596371    2.0272908224    0.0163461669
 C   -0.7804803319    3.4420548096   -0.0211725165
 C    0.0658074005    3.9747959720    1.1075505153
 C    0.7466754796    3.3606860182   -0.0897165214
 C    0.7717485814    4.2961248749   -1.3125887020
 C   -0.7881640396    4.4204915869   -1.2144055273
 N    1.0796451833    1.9823858113   -0.0648083184
 H   -1.8610016267    1.7653855856   -0.8882236653
 H   -1.9389399446    1.7782497993    0.8699098875
 H    0.1164424612    5.0485300424    1.2687264845
 H    0.0963202675    3.3804813828    2.0142663453
 H    1.3607172591    5.2119302402   -1.2071582607
 H    1.0878150027    3.7750357031   -2.2179459513
 H   -1.2977586675    4.0168584195   -2.0919430971
 H   -1.1938346587    5.4151209685   -1.0057919247
 H    1.9952384548    1.6151883417    0.1474847925