17

 C    0.1806266835    1.3886928576   -0.2637692376
 C   -0.0389940341   -0.0651714417   -0.0485359518
 C   -1.0771147158   -0.7959948113    0.4430321678
 C   -0.6652484844   -2.1668244011    0.4057109537
 C    0.5944961712   -2.1747068336   -0.1096563191
 O    0.9855799844   -0.8978211680   -0.3937319046
 C    1.5330312756   -3.2629984674   -0.3982456099
 C    2.6711611120   -3.1194987064   -1.3200085624
 O    2.8830276110   -3.1370276095    0.0890709287
 H    1.0367840149    1.7541295296    0.3144791193
 H    0.3778042056    1.6144751369   -1.3179564357
 H   -0.7054931763    1.9468703862    0.0459551811
 H   -2.0193496179   -0.4044927574    0.7935495542
 H   -1.2284099392   -3.0308207727    0.7229749195
 H    1.1012653230   -4.2531581803   -0.2592821773
 H    3.0315469045   -3.9918609376   -1.8646752732
 H    2.8376814718   -2.1594643133   -1.8044100128