20

 C    0.2361933234    1.4423021042    0.0451030074
 C    0.0771628700   -0.0041409355    0.0072108700
 C   -0.0431755080   -1.2028830555   -0.0007897727
 C   -0.2293870026   -2.6545103680   -0.0691547952
 O   -1.6121989467   -3.0148006682   -0.0293862144
 C    0.4512558864   -3.2317071847   -1.3033801657
 N    1.8628799725   -3.6154207101   -1.1617265000
 C    0.8526529749   -4.6588401487   -1.4169610222
 C    0.6323872779   -5.6993445660   -0.3452207562
 H    1.1785485768    1.7206761651    0.5295611703
 H    0.2414205993    1.8730468335   -0.9622008701
 H   -0.5765306199    1.9165734111    0.6061604035
 H    0.2180000346   -3.1168931231    0.8158468569
 H   -2.0800648080   -2.4187160198   -0.6239253987
 H    0.1513309192   -2.7370446653   -2.2271337270
 H    2.3837137839   -3.3901834344   -2.0041753606
 H    0.8123688110   -5.0565769528   -2.4311475814
 H    0.7523513410   -5.2759738087    0.6540064012
 H   -0.3734068266   -6.1245837349   -0.4212831607
 H    1.3578282308   -6.5132790084   -0.4491158044