21

 C    0.0414390676    1.5078828575    0.0928040033
 C   -0.0351185448   -0.0021297848   -0.0262513072
 C    0.6693958662   -0.6237717474   -1.2487654389
 C    0.0981086937   -2.0560330613   -1.1752029985
 C    0.7884487591   -2.7413027452    0.0307640506
 C    0.5178976898   -1.9395286314    1.3209376497
 O    0.6050084136   -0.5258065940    1.1614846160
 C   -1.3586185691   -1.7542134964   -0.8348083768
 C   -1.4376696416   -0.5934046494   -0.1832588557
 H    1.0834464262    1.8310114375    0.1739002402
 H   -0.4069412900    1.9846477946   -0.7839033601
 H   -0.4891439997    1.8490940983    0.9868337377
 H    0.3582082134   -0.1230286467   -2.1704197615
 H    1.7581464746   -0.5743111260   -1.1572807580
 H    0.2305831981   -2.6411765719   -2.0891364990
 H    0.4286339029   -3.7667142919    0.1763318066
 H    1.8645117064   -2.7996681075   -0.1691715440
 H   -0.4759088483   -2.2097947536    1.7032480303
 H    1.2471659272   -2.1929985643    2.0961994452
 H   -2.1764769370   -2.4394824521   -1.0283634272
 H   -2.3224969982   -0.1549939138    0.2635444074