17

 C   -0.5366037220    1.6613089067   -0.3356564749
 C    0.0303169639    0.2558505636   -0.0502982079
 C   -1.0447922602   -0.6179621618    0.5737194599
 O   -1.2461854205   -1.7875189344    0.3507250175
 C    0.7326962831   -0.3307883254   -1.2390587732
 C    1.5001924172    0.2490837011   -2.2226614496
 N    1.9807910759   -0.6977535932   -3.0946450078
 C    1.5103392499   -1.8419290490   -2.6497373100
 N    0.7601209032   -1.6799702763   -1.5274188364
 H    0.2655837612    2.3437968318   -0.6230968664
 H   -1.2633935318    1.6290065930   -1.1517801942
 H   -1.0236508254    2.0735544590    0.5537008459
 H    0.7474038161    0.3711793451    0.7851200405
 H   -1.6561571999   -0.0804097075    1.3323831997
 H    1.7381765411    1.2945215078   -2.3494886595
 H    1.6768367145   -2.8112181765   -3.0955288866
 H    0.2094542339   -2.3608481140   -1.0263801471