17

 C   -0.0116876631    1.4518003912    0.1029317273
 N   -0.1337809812    0.0143515012   -0.0315861134
 C    0.5596858142   -0.6292886181   -1.0663176881
 C    1.1645233902    0.0202645564   -2.1049986441
 N    1.7603431209   -0.6935091045   -3.1167507445
 C    1.8546095644   -2.0852684305   -3.2060276074
 O    2.4214955853   -2.6189522320   -4.1495786635
 C    1.2161233393   -2.7526431185   -2.0826131217
 C    0.6039061584   -2.0617298567   -1.0872351216
 H    1.0320450874    1.8040619701    0.1662177775
 H   -0.4809880034    1.9489115634   -0.7540636415
 H   -0.5418845264    1.7725078996    1.0021233995
 H   -0.0424161278   -0.4714938083    0.8494475146
 H    1.2035548698    1.0959705996   -2.2010247177
 H    2.1938312553   -0.2001608616   -3.8840041034
 H    1.2489245764   -3.8351100619   -2.0885811927
 H    0.1221717704   -2.5987301295   -0.2732361693