15

 O   -0.0209470685   -0.0199801214    0.0829862690
 C    0.0043332457    1.1897571978   -0.0079966288
 C    1.2291209825    1.9733061598   -0.0524175496
 C    1.3927196252    3.3018938239   -0.0252833859
 C    2.9258024315    3.5112745028   -0.0046290534
 O    3.3310579215    2.4116168975   -0.8310996117
 C    2.6719468310    1.4032556634   -0.0452014988
 C    3.2696365214    1.7046270386    1.3498767313
 C    3.4235768738    3.0244167861    1.3807960531
 H   -0.9334476985    1.7844740441   -0.0625202964
 H    0.6431876351    4.0796581842    0.0312567235
 H    3.3059902766    4.4607473622   -0.3764795013
 H    2.8051798007    0.4066378164   -0.4571083463
 H    3.4472382889    0.9682410240    2.1195764230
 H    3.7576050530    3.6667211406    2.1821515424