19

 C    0.0749168580    1.5963923236    0.1004816374
 C    0.0033653008    0.0692704090    0.0130872279
 C    0.6689889964   -0.4796498045   -1.2552623036
 O    2.0179665568   -0.0550588957   -1.3633924095
 C    0.5752707943   -2.0283324095   -1.3577185045
 C   -0.8681013713   -2.5652737882   -1.4409624296
 C    1.3449973553   -2.4995139837   -2.5154172538
 N    1.9193203296   -2.9017420022   -3.4338488315
 H    1.1101749400    1.9410809642    0.0468903549
 H   -0.4720177801    2.0616522591   -0.7265610019
 H   -0.3636333921    1.9552802623    1.0359065245
 H    0.4942432553   -0.3812095599    0.8891559484
 H   -1.0428648219   -0.2522578051    0.0490703658
 H    0.1752358964   -0.0535859512   -2.1374704671
 H    2.5000593313   -0.3745190360   -0.5916719830
 H    1.0556524440   -2.4493474309   -0.4624136432
 H   -0.8659918309   -3.6466352401   -1.5953789197
 H   -1.4138366085   -2.3542222901   -0.5191890654
 H   -1.4035171033   -2.1060698911   -2.2771759160