9

 O    0.0228677314    1.4137962655    0.0092785924
 C   -0.0195478035    0.0190508945    0.0025856320
 C   -1.4656858544   -0.4357772967    0.0135625293
 O   -2.4278677325    0.2801901751    0.0261106135
 C   -1.6072373100   -1.9116440481    0.0073985829
 N   -1.7057112862   -3.0636022985    0.0025533057
 H    0.9441441960    1.6900161557    0.0019880992
 H    0.4523213415   -0.4352946097   -0.8872486822
 H    0.4685228677   -0.4442556879    0.8789659272