19

 C   -0.0027059197    1.5697642368    0.0187607883
 C    0.0077718866    0.0394216019   -0.0157897908
 C    0.6963335506   -0.5096195372   -1.2799457291
 N    0.7591206272   -1.9692045934   -1.3465512474
 C    1.4242094822   -2.5580248121   -0.1785765191
 C    0.8502449851   -2.0671266232    1.1513721844
 O    0.5438793454   -2.8179853925    2.0486970006
 C    0.6834835339   -0.5560931892    1.2399331941
 H    1.0186390020    1.9686918369    0.0169870367
 H   -0.5241467472    1.9827473855   -0.8512146112
 H   -0.5033696390    1.9427933092    0.9179509513
 H   -1.0341435237   -0.3135498731   -0.0331129963
 H    0.1825585103   -0.1453429258   -2.1765389929
 H    1.7264206571   -0.1263014365   -1.3281834631
 H   -0.1827651475   -2.3441624008   -1.4143588510
 H    1.3554961319   -3.6477902473   -0.2151419568
 H    2.4900625459   -2.2875504782   -0.2185905943
 H    1.6917111033   -0.1227428638    1.3313812188
 H    0.1369981458   -0.3140008572    2.1557509379