11

 N   -0.1972838482    1.2997694870    0.1501774290
 C   -0.0181208891    0.0209507446   -0.2334434817
 O    0.6343630324   -0.4041257356   -1.1417375173
 O   -0.7477331301   -0.8030545990    0.6460443202
 C   -0.7985199159   -2.1015741477    0.3300131339
 N   -0.3108082371   -3.0443826431    1.0807123266
 O   -0.6710449281   -4.1795623976    0.4449410003
 N   -1.3844058074   -3.8481934940   -0.7142106464
 N   -1.4602114912   -2.5972173900   -0.7735066470
 H    0.3102495709    2.0164817853   -0.3368209482
 H   -0.7386407061    1.5281469099    0.9647326006