20

 C   -0.0571123568    1.5832704502   -0.1468902827
 C    0.0618761799    0.0758378586    0.0068296850
 N    1.1689460386   -0.5533839242   -0.7421155117
 C    1.7174544697   -1.1877486193    0.3385124652
 O    2.5903514949   -2.0156348273    0.4625912709
 C    0.7087248773   -0.5333409343    1.3085625355
 C    1.2990139691    0.4273211656    2.3349591756
 C   -0.1088477048   -1.6499667241    1.9814309402
 O    0.7092053813   -2.4478489019    2.8113941329
 H    0.8945597023    2.0837188440    0.0474820261
 H   -0.3741839619    1.8408759991   -1.1630561984
 H   -0.8078632090    1.9803361340    0.5439346604
 H   -0.9015557530   -0.3988261973   -0.2205699394
 H    1.2759396392   -0.7436482778   -1.7291814830
 H    2.0226587105    1.1168989697    1.8928088690
 H    0.5089309320    1.0179390553    2.8123497600
 H    1.8045174579   -0.1491793987    3.1128872621
 H   -0.8891551413   -1.2223881472    2.6223382278
 H   -0.6114742359   -2.2545717172    1.2077809333
 H    1.4624264300   -2.7325412172    2.2736717912