16

 O    0.1847526342    1.4246993972   -0.1480185654
 C    0.0583766996    0.0386832325   -0.0368654377
 C    0.0454413822   -0.6696049232    1.3630058559
 C   -1.4289391241   -0.1636661214    1.5281144977
 C   -1.3499544357   -0.6485068164    0.0395831639
 C   -0.5772544515   -1.8474546803    0.6032696383
 C   -0.1213789047   -3.1339577703    0.1020782242
 O   -1.1167266054   -3.0199394985    1.1533791706
 H   -0.4049011728    1.8535412126    0.4804737543
 H    0.7483419941   -0.3837824505   -0.7710882059
 H    0.8351796500   -0.6934082155    2.1130001922
 H   -2.0682480974   -0.7456707428    2.1929117308
 H   -1.5782662545    0.9055857209    1.7026123631
 H   -2.1408697156   -0.6484100513   -0.7095482688
 H   -0.4974503852   -3.5211985816   -0.8436133330
 H    0.8365549068   -3.5413860314    0.4215818797