23

 C    0.1707921817    1.1489117346   -0.1305216874
 O   -0.0840067128   -0.1520502623    0.3586094294
 C   -1.3933769666   -0.6155689271    0.1571920108
 C   -2.4369475352    0.0248026621    1.0459528955
 C   -1.7566240869   -1.0547399192   -1.2473435040
 C   -1.4643989616   -2.0776486521   -0.1777256048
 C   -0.2705659511   -3.0386679518   -0.1056984729
 C   -1.1323967426   -3.9745715796    0.7935439516
 C   -2.3937738824   -3.1259425588    0.4524574444
 H    1.2411268986    1.3306255850   -0.0047826265
 H   -0.0848395556    1.2396679154   -1.1958371055
 H   -0.3807622711    1.9206328982    0.4248110414
 H   -2.5428354735    1.0945908314    0.8359501789
 H   -3.4163019415   -0.4354909876    0.8923553793
 H   -2.1648649788   -0.0885195814    2.1009521904
 H   -2.7822478778   -0.9255721969   -1.5816624628
 H   -1.0070492608   -0.9244460887   -2.0222698397
 H   -0.0230377555   -3.4852321860   -1.0738766053
 H    0.6398960352   -2.6282799366    0.3346266587
 H   -1.1669662166   -5.0284335597    0.5093640887
 H   -0.8578311331   -3.9107803229    1.8493029440
 H   -3.0093285064   -2.8028011554    1.2966258497
 H   -3.0456950054   -3.6085208205   -0.2828817537