14

 N    0.0254504755    1.4331561318    0.1545536891
 C    0.0121434422    0.0339143536    0.0363315102
 C   -1.1289693000   -0.6921524969   -0.0036547207
 O   -1.1256329956   -2.0619893035   -0.0175741255
 C    0.0196567857   -2.7801640615   -0.0309979246
 O    0.0042184668   -3.9958477426   -0.0565049944
 C    1.2702793684   -2.0206489008   -0.0091364053
 O    2.3787456079   -2.7767091343   -0.0227247479
 C    1.2673382405   -0.6678801689    0.0334128034
 H    0.7448806074    1.8709782376   -0.4067438690
 H   -0.8689574561    1.8633486787   -0.0411233244
 H   -2.1341693270   -0.2957735145   -0.0084851917
 H    2.0528547942   -3.6954764658   -0.0425693031
 H    2.2000172600   -0.1157449031    0.0760056239