19

 C   -0.0470757227    1.5375238626   -0.0271557118
 C    0.0664794096    0.0429053854    0.0460334007
 C    1.0062464351   -0.8083856075   -0.9347600961
 C    0.6010429024   -1.8635884062    0.1193735494
 C    0.7132221492   -0.7510834664    1.1995859977
 O    0.6681880333   -3.2565911878    0.4702516298
 C   -0.7597418822   -3.1774607910    0.8368616842
 C   -0.8753960406   -1.9438333172   -0.1185034701
 O   -1.2701764837   -0.5802000063    0.0106184218
 H    0.9409594744    2.0006568970    0.0402470731
 H   -0.5128995982    1.8439848396   -0.9683693721
 H   -0.6638238495    1.9104812100    0.7961484932
 H    0.6814031478   -0.9682432572   -1.9648269367
 H    2.0303526939   -0.4331962124   -0.8912960484
 H    1.7493509832   -0.4758244356    1.4057608749
 H    0.1295493786   -0.8316095771    2.1176617736
 H   -1.2937450129   -4.0835990921    0.5430823632
 H   -0.8862425601   -2.9789442878    1.9054046398
 H   -1.1446056878   -2.3136059699   -1.1133777161