18

 C    0.1430350392    1.4472395769    0.0270140456
 N   -0.0859409522    0.0053517124   -0.0052158436
 C    0.6579416828   -0.6769255051    1.0491074430
 C   -1.5022447579   -0.3453036092   -0.0145085188
 C   -2.0581237202   -0.1726440260   -1.4516852655
 O   -1.1966055880   -0.7821342149   -2.3815738338
 C   -3.3975822567   -0.7740641470   -1.5436550742
 N   -4.4607490779   -1.2238356443   -1.5803852130
 H    1.2142610967    1.6490807109   -0.0590763903
 H   -0.3561704665    1.9338620965   -0.8149556600
 H   -0.2226789442    1.9120234979    0.9596749152
 H    0.3451556605   -0.3705715388    2.0625586557
 H    0.5230551842   -1.7580725918    0.9593179439
 H    1.7240929458   -0.4553238249    0.9432699052
 H   -1.5970001595   -1.4003272924    0.2556338563
 H   -2.1042038240    0.2420311663    0.6984241076
 H   -2.1780627200    0.9012091007   -1.6716970123
 H   -0.3218400721   -0.7051270173   -1.9616625810