19

 C   -0.7111412583    0.4716811211    0.4740175788
 O   -0.4582208714    0.5828380556   -0.9178451602
 C    0.4410132085   -0.3170575488   -1.4184791255
 C    0.1955095387   -1.8158381454   -1.5918570552
 O    1.5989709784   -2.1075799888   -1.3429459982
 C    1.8746509283   -0.7309207239   -1.0774276814
 C    1.5925491739    0.1297846938   -2.2971324354
 C    1.8368307913   -0.3311796922   -3.7134685222
 O    1.8468302226    1.4889022533   -2.0553088572
 H   -1.1623859116   -0.4946594322    0.7368982342
 H    0.2119180456    0.5996117503    1.0538059689
 H   -1.4125808097    1.2688747024    0.7282721271
 H   -0.4307337516   -2.2476828368   -0.8027946575
 H   -0.1450193933   -2.1738263660   -2.5695228558
 H    2.5817073010   -0.4760663516   -0.2958848640
 H    1.7329894517   -1.4147133843   -3.7992486542
 H    1.1460479400    0.1554335374   -4.4087015933
 H    2.8596638678   -0.0772901501   -4.0184524175
 H    2.7856639280    1.6374117263   -2.2162555813