17

 N   -0.0943569904    1.3114948667    0.0730541668
 C   -0.0329607592    0.0605147467   -0.0651704185
 O   -1.1340021485   -0.6946381517    0.1407528718
 C   -1.0013636533   -2.1117383318    0.0763557656
 C   -1.0361779436   -2.6794334203    1.4945341714
 O   -1.0401633960   -4.1105612094    1.4684570657
 C   -1.7701690024   -4.6753949378    0.4721730317
 N   -2.3253722499   -4.1328884828   -0.5242296752
 C   -2.1687432021   -2.6945445503   -0.7180846113
 H    0.8089416665    1.7305958496   -0.1369984964
 H    0.8485601057   -0.5267487299   -0.3586470933
 H   -0.0503029399   -2.3834922346   -0.4006457855
 H   -0.1592731247   -2.3814284511    2.0738084926
 H   -1.9350384595   -2.3177342594    2.0084100003
 H   -1.8305112242   -5.7504791928    0.6279287055
 H   -3.0919448401   -2.1818728279   -0.4209835499
 H   -2.0371321287   -2.5007182231   -1.7875669613