21

 C   -0.7260580973    1.2013655847    0.0478368788
 C    0.0992474654   -0.0818539306   -0.1051402224
 C    1.1971865978   -0.0010153856   -1.1431174009
 C    2.3125791419   -0.6168254559   -0.7622821873
 C    2.1844293646   -1.2255357910    0.6093926380
 C    0.8841662408   -0.5936974414    1.1769171299
 C    1.2187745225    0.5473575547    2.1548757724
 C    0.0058286947   -1.5956401842    1.9021094116
 O    0.2033784678   -2.7807983141    1.9890795417
 H   -0.1041711857    2.0605602614    0.3133414284
 H   -1.2239567773    1.4345975805   -0.8991111556
 H   -1.5063876027    1.0963174633    0.8084783306
 H   -0.6012552313   -0.8741957310   -0.4148498761
 H    1.0343544518    0.4793498810   -2.1025253763
 H    3.2089282634   -0.7186499902   -1.3641411539
 H    2.0887759238   -2.3172887825    0.5601066455
 H    3.0484950478   -1.0199982644    1.2519713600
 H    1.8040641118    1.3222573634    1.6514679467
 H    0.3212795258    1.0151358535    2.5708928260
 H    1.8156424096    0.1659520675    2.9897916309
 H   -0.9006408552   -1.1402186991    2.3683521021