21

 C   -0.1706678222    1.4881074634   -0.1744846627
 C   -0.1186151072   -0.0160329914    0.1064584342
 C    0.7650850092   -0.4052447791    1.3140413956
 C    0.6619694763   -1.9068495707    1.7016627543
 C    1.9171438831   -2.5826056901    1.1025101415
 C    2.9999556119   -1.5232412783    1.3263774864
 O    4.1676824285   -1.6591403248    0.5700284483
 C    2.2549495466   -0.2262686393    1.0120444093
 O    2.8084709680    0.7253292317    0.5110870099
 H    0.8244074587    1.8845242098   -0.3848591606
 H   -0.8174412550    1.6977570147   -1.0321298871
 H   -0.5739490517    2.0318979650    0.6874567115
 H   -1.1301057115   -0.3889298255    0.3079855951
 H    0.2309004638   -0.5507356559   -0.7859811113
 H    0.4940913705    0.2459721537    2.1540786881
 H    0.6690528433   -2.0181366776    2.7911925119
 H   -0.2650567741   -2.3590845099    1.3406894133
 H    2.1510610369   -3.5432009433    1.5659091358
 H    1.8020635178   -2.7478124644    0.0250503944
 H    3.2311420690   -1.4923687318    2.4101063694
 H    4.3754874881   -0.7667114264    0.2527491927