18

 C   -0.1442211140    1.4971985102    0.1794900075
 C    0.0599429899    0.0140476819   -0.0324594016
 C    0.6204197979   -0.6659587240   -1.2186924552
 N    1.3408175782   -0.7089213612    0.1254752707
 C    2.4199299981    0.1489039934   -0.4759622065
 C    1.7778757340    0.0726843949   -1.8998559619
 O    2.4381805882   -0.8712103953   -2.7337020330
 C    1.5257568798    1.3088014874   -2.6334697853
 C    1.3806967592    2.3259892180   -3.2594503829
 H    0.5485336351    2.1228505501   -0.3832835740
 H   -1.1565479415    1.7714456063   -0.1347457623
 H   -0.0494369317    1.7398717470    1.2436039307
 H   -0.7234788743   -0.5782902545    0.4394423454
 H    0.1822928905   -1.5499305347   -1.6711848336
 H    2.5360239187    1.1341009821   -0.0175694921
 H    3.3694408733   -0.3880822487   -0.4609638353
 H    3.1478101845   -0.4084607930   -3.1931232728
 H    1.2307979140    3.2220428100   -3.8102139079