25

 C   -0.8946737016    1.1042366167   -0.0173477631
 C    0.1160415319   -0.0413390091   -0.0029673071
 C    1.1794709920    0.0359713448   -1.1250539313
 C    2.3964105541   -0.7801038076   -0.6098302830
 C    2.0139423495   -1.2485999797    0.8204637945
 C    3.2093110909   -1.4672977927    1.7448817146
 O    4.0323455369   -2.5494067232    1.3249923787
 C    0.9499232343   -0.2254055290    1.2917572991
 C    1.5398848931    1.0833743544    1.8396642329
 H   -0.4040877675    2.0799696303    0.0613191425
 H   -1.4673027367    1.1025983740   -0.9511987155
 H   -1.6107425532    1.0205149288    0.8077615457
 H   -0.4409803048   -0.9785572982   -0.1398473854
 H    0.7906149072   -0.3435266664   -2.0744320258
 H    1.4625635811    1.0794978897   -1.3028275355
 H    2.6295570610   -1.6278678963   -1.2606141287
 H    3.2952974166   -0.1513503778   -0.5797654735
 H    1.5102777514   -2.2202586492    0.7341528928
 H    3.7995512856   -0.5420575504    1.8355489402
 H    2.8672600036   -1.7345531362    2.7511506094
 H    4.4044839744   -2.3158990341    0.4689601112
 H    0.3276566646   -0.6676866074    2.0796569803
 H    2.1851455446    1.5866329072    1.1111436381
 H    0.7470008563    1.7845140874    2.1157335583
 H    2.1374976047    0.9021263840    2.7378851907