17

 C   -0.4536616212    1.5636622010    0.0601946586
 C    0.0021239061    0.1099898082    0.0550539902
 N    1.3129600234   -0.1265204494   -0.5980219997
 C    1.7509175819   -1.0551901036    0.4658221626
 C    0.6093963374   -0.5200375558    1.3856562654
 C    1.0086177838    0.4277443068    2.4020822298
 C    1.3454710411    1.2049706809    3.2552904999
 C   -1.0603137151   -0.7655128059   -0.4688812144
 N   -1.8702455390   -1.4650203144   -0.9082753274
 H    0.3363224551    2.1854021976    0.4833195922
 H   -0.6574580396    1.8937222561   -0.9626325328
 H   -1.3656978052    1.6861673343    0.6514646940
 H    1.2701314970   -0.5071241237   -1.5372138091
 H    1.6179404671   -2.1193078660    0.2358873502
 H    2.7713159547   -0.8811706820    0.8145926861
 H   -0.0214969696   -1.2978935804    1.8187805327
 H    1.6411509521    1.8887508261    4.0123805218