23

 C    0.1361168968    0.9072477758   -1.5353806653
 C   -0.1604161031    0.5639229031   -0.0711327836
 C   -1.4450686804   -0.2451087733    0.0899040753
 C   -1.4882429763   -1.6933027197   -0.4292944090
 C   -0.5994797248   -2.5890283686    0.3872850691
 C   -1.9395583825   -2.1976682085    0.9403080960
 C   -1.9264954911   -0.7737717570    1.5062717187
 C   -1.0756544344   -0.4873739272    2.7376241282
 O   -3.2823012593   -0.4186759585    1.7564548500
 H    1.0592960668    1.4872744326   -1.6309339736
 H    0.2493150019   -0.0012186625   -2.1364517092
 H   -0.6760387301    1.4962771927   -1.9763092530
 H    0.6902927584    0.0140374116    0.3491757173
 H   -0.2400710269    1.4905255013    0.5131264297
 H   -2.2874001000    0.3179238664   -0.3261282235
 H   -1.8486003816   -1.9941788772   -1.4055678033
 H   -0.5333608154   -3.6149531885    0.0388746103
 H    0.3235523273   -2.2224129407    0.8283048246
 H   -2.7080663547   -2.9202869860    1.1856983323
 H   -0.0380999971   -0.8064267095    2.6097058290
 H   -1.0623887933    0.5869357174    2.9619581235
 H   -1.4937736160   -1.0090858204    3.6039560217
 H   -3.2993482043    0.5090449267    2.0163527949