20

 C   -0.1579746388    1.4846605767   -0.0881506671
 C    0.0365119875   -0.0195992485   -0.0053369623
 O    0.6426856414   -0.4619365761   -1.2027746747
 C    0.8785174165   -1.8508502243   -1.2304192317
 C    1.5381342188   -2.2140726485   -2.5423311688
 C    2.7584715592   -1.4075283652   -2.9222636317
 C    1.3548642654   -3.5807235432   -3.0505910307
 O    0.6264137464   -2.4914017010   -3.6169617173
 H    0.8037274867    1.9894071168   -0.2170884784
 H   -0.7964432381    1.7416294873   -0.9379422412
 H   -0.6274992147    1.8592737959    0.8262908440
 H    0.6694807688   -0.2826972164    0.8598914102
 H   -0.9315895249   -0.5282741081    0.1395523539
 H    1.5356879711   -2.1456800844   -0.3921832599
 H   -0.0636680277   -2.4124857687   -1.1309917485
 H    3.5508014577   -1.5280694504   -2.1752369505
 H    3.1401049262   -1.7294784518   -3.8939042945
 H    2.5038690738   -0.3464106650   -2.9739217746
 H    2.1219776482   -4.0187222794   -3.6884050103
 H    0.7598182063   -4.3005081255   -2.4881323258