17

 C    0.0936599309    1.5115313921    0.0689336815
 C    0.0269977952    0.0087278278    0.0001762347
 C    0.0040937841   -0.6612954789   -1.2199784044
 N    0.0618810458   -0.0323128280   -2.4777641974
 C   -0.0203657819   -2.0704047654   -1.1635971064
 N   -0.0387600743   -2.7990181569   -2.3407027710
 N   -0.0724358388   -2.7310980180   -0.0094288797
 C   -0.0742560837   -1.9830447714    1.0964244529
 N   -0.0087406805   -0.6606671597    1.1682792490
 H    1.0111400187    1.8986091023   -0.3912373111
 H   -0.7532495688    1.9778766799   -0.4513759261
 H    0.0703541651    1.8234914352    1.1133719062
 H   -0.0762422252    0.9682045409   -2.4313814053
 H   -0.5961975951   -0.4346350188   -3.1370191770
 H    0.5308307305   -2.4135372101   -3.0826489378
 H    0.1192001166   -3.7855823731   -2.1862676872
 H   -0.1242902086   -2.5220695581    2.0394504791