17

 N    0.1596229067    1.3974835794   -0.0810573343
 C   -0.0130255430   -0.0038072602   -0.0414458528
 C   -1.1317956861   -0.8195489831   -0.1256227275
 C   -0.6596618322   -2.1558563501   -0.0859809873
 C    0.7157800223   -2.1141821189    0.0279891873
 N    1.1120509895   -0.8036488500    0.0534657294
 C    1.2770324005   -3.4487644103    0.0979164790
 C    0.2524952188   -4.3269044714    0.0205248232
 C   -1.0803547671   -3.5993018225   -0.1043779558
 H   -0.5944759838    1.8360210943   -0.5958497341
 H    0.1733665591    1.8122224869    0.8472710098
 H   -2.1503124823   -0.4657589505   -0.1900737534
 H    2.0486330935   -0.4383484438    0.0399426227
 H    2.3268041955   -3.6965209524    0.1911286923
 H    0.3365160740   -5.4051606262    0.0392733439
 H   -1.7560291673   -3.8677912546    0.7191544666
 H   -1.6007166981   -3.8849951467   -1.0287942890