17

 O   -0.1304533689    1.3645190181   -0.0746911931
 N    0.0002797161   -0.0401172763   -0.1323860139
 C   -1.1368083032   -0.6088339457    0.0226926607
 C   -2.4740692674   -0.0717508394    0.2359987721
 C   -3.3300789195   -1.1070890154    0.3830817116
 N   -2.7151038389   -2.3593531322    0.4089626148
 C   -2.9057852432   -3.2666305965   -0.7748206133
 C   -1.4862150422   -2.9066151416   -1.2824547292
 C   -1.2789019044   -2.1143893678    0.0438941018
 H    0.7806388344    1.6542554238   -0.1861909856
 H   -2.7132888467    0.9783928962    0.2803736019
 H   -4.4085868895   -1.0581460370    0.4850585386
 H   -3.0305107371   -4.3066405214   -0.4621711816
 H   -3.7403788032   -2.9833983618   -1.4214013222
 H   -0.8047338762   -3.7442881422   -1.4358393896
 H   -1.4767093879   -2.2692433414   -2.1676331182
 H   -0.5789278620   -2.5882669594    0.7354937451