17

 C    0.0630586685    1.4383165265    0.0380789294
 N   -0.0087573655   -0.0097814908    0.0176412002
 C   -1.1667806359   -0.6937723727   -0.0667120077
 C   -1.1979397209   -2.0577425811   -0.0885020441
 C    0.0252876337   -2.8005574366   -0.0187363529
 N    0.2339082536   -4.0785211687   -0.0505563514
 C    1.2207587632   -1.9290220682    0.0967884987
 N    2.4008976112   -2.5845271472    0.2232787638
 N    1.2076038025   -0.6226725158    0.0975486692
 H    0.6630087574    1.7984960387   -0.8032768622
 H   -0.9444531413    1.8504636510   -0.0344241204
 H    0.5289129321    1.7814181344    0.9670151606
 H   -2.0640369993   -0.0883530848   -0.1191932819
 H   -2.1474232777   -2.5734482598   -0.1651779759
 H   -0.6465324369   -4.5866465652   -0.1410719988
 H    2.3510675157   -3.5740704539    0.0259055015
 H    3.2575844495   -2.0780552758    0.0824215521