20

 C   -0.2898625055    1.6203445326    0.2425735077
 C   -0.0491465462    0.1140761777    0.2982890325
 C    0.7689204110   -0.6741057696   -0.7293180556
 C    1.1153313426   -1.7259590891    0.2465163881
 N    2.2039247496   -0.8617872005   -0.2709060943
 C    2.3054493262   -0.1921993441    1.0728181667
 C    2.8640416046    1.2201445848    1.1449802498
 C    0.8489609758   -0.5963871518    1.3561314345
 O    0.4651400728   -0.7105221264    2.6782997064
 H    0.5825262585    2.1856374173   -0.0844924275
 H   -1.1046638980    1.8447278655   -0.4541023015
 H   -0.5874643882    1.9997857091    1.2266761958
 H   -1.0271905070   -0.3867413655    0.3546170614
 H    0.6015270650   -0.7623038224   -1.7948967541
 H    1.1172131964   -2.8080101905    0.2227275886
 H    2.9405735726   -0.8505955928    1.6771951486
 H    2.4621141582    1.8759981222    0.3725448380
 H    2.6531067814    1.6646018596    2.1232969164
 H    3.9506381267    1.1916657025    1.0169585193
 H   -0.4823012267   -0.8793006986    2.7168673991