18

 C   -0.1195544090    1.6027796323   -0.0898469470
 C    0.0683686735    0.0951185738    0.0200648193
 C    1.0761896797   -0.6225557832   -0.9042987071
 C    2.4927973960   -0.2621484593   -0.5579132460
 C    1.7692426434   -1.2655582937    0.3032955415
 C    0.8234806090   -0.5221548468    1.2215622347
 C    1.0071223604   -0.0588025124    2.5984078193
 O    0.1292395443   -1.1539264087    2.2800974186
 H    0.8349320647    2.1361503200   -0.0421023956
 H   -0.6021351725    1.8670813981   -1.0369423318
 H   -0.7542868588    1.9783486663    0.7201579732
 H   -0.9025387151   -0.4092293280   -0.0362567509
 H    0.8224639040   -1.0812487859   -1.8519447192
 H    3.2512116690   -0.6779624602   -1.2136239562
 H    2.7433592048    0.7192389930   -0.1628177294
 H    2.1113305320   -2.2826002493    0.4473093416
 H    1.9099461772   -0.3285405336    3.1453988328
 H    0.5090711372    0.8465711475    2.9436229022