17

 C    0.0068265210    1.3722733313   -0.0223973644
 O   -0.0022582582   -0.0371359174    0.0339329389
 C    0.7002633242   -0.5464561693    1.1382855194
 C    0.5987277841   -2.0695676333    1.0520495449
 N    1.3080071387   -2.7124520708    2.1444316457
 N    2.6331110252   -2.7646379524    2.2240306374
 C    2.7977768575   -3.3947370484    3.3804191750
 N    1.6264580750   -3.7090463367    3.9771718580
 N    0.6862661803   -3.2661093610    3.1796258587
 H    1.0307170465    1.7684397325   -0.1017991001
 H   -0.5571682985    1.6644154952   -0.9107501486
 H   -0.4683556460    1.8169451954    0.8653609904
 H    1.7585229238   -0.2416066932    1.1199054322
 H    0.2665018674   -0.1961793977    2.0894517039
 H   -0.4417178225   -2.3884335323    1.1201711407
 H    1.0230604139   -2.4195958038    0.1089342390
 H    3.7649870875   -3.6326161880    3.7922311289