20

 C    0.0602777643    1.2987679615    0.4016855991
 C    1.4617093727    1.5336913105   -0.1910804531
 C    1.2833084509    0.1375886692   -0.8274034942
 C    1.2862244176    0.0101380441   -2.3616115856
 C    1.4651854155   -1.4979754345   -2.6569857485
 C    2.2519469498   -2.0057079719   -1.4608935654
 N    3.4068528835   -1.1415136235   -1.1269664917
 C    2.1440904854   -1.0174808804   -0.3605952748
 O   -0.0513256495    0.0158476151   -0.2475768327
 H    0.0144718089    1.2091520250    1.4943959435
 H   -0.7229100939    1.9931823703    0.0740643235
 H    1.5324903020    2.3533850245   -0.9085826012
 H    2.2792379475    1.6163749098    0.5271375827
 H    0.3686573041    0.4259084383   -2.7836186559
 H    2.1353841752    0.5733312514   -2.7571995846
 H    0.4957607251   -2.0075522089   -2.6879486287
 H    1.9720568291   -1.6803494908   -3.6095073821
 H    2.3229566675   -3.0702445922   -1.2627108260
 H    4.0708110786   -1.6758148938   -0.5718610908
 H    2.1165564559   -1.3021311138    0.6861299865