19

 C    0.0998653965    1.0230423471   -1.1593579383
 C   -0.0062985171   -0.0088789515   -0.0530141190
 C    1.2035509146   -0.7818668065    0.3332750828
 N    0.6746085219    0.2697596212    1.2218420129
 C   -1.3668579564   -0.6603015683    0.0683776316
 C   -1.7658016890   -1.5822917510   -1.0649248345
 C   -1.9830605847   -0.8177060855    1.3926463574
 O   -2.4036176077    0.2312312494    0.5108001003
 H    1.1046627346    1.4567034367   -1.1924436042
 H   -0.1045549523    0.5879077388   -2.1428126715
 H   -0.6226035027    1.8282231535   -0.9919736564
 H    1.1067656174   -1.7921508625    0.7223342655
 H    2.1251081649   -0.5945608161   -0.2124155840
 H    1.2330478934    1.1151345631    1.1329472088
 H   -1.0583995856   -2.4128182021   -1.1597178456
 H   -2.7631166572   -1.9908245757   -0.8860832802
 H   -1.7884119747   -1.0491557313   -2.0207668465
 H   -2.7122759083   -1.6134959067    1.5445722588
 H   -1.4335587476   -0.4916975025    2.2705491920