18

 C    0.0687069292    1.5107528946    0.1035635090
 C    0.0137641823   -0.0073993951   -0.0934712421
 C    0.7468349181   -0.5336528118   -1.3493997231
 C    0.5873561816   -2.0648745830   -1.5317100401
 O    0.0403405649   -2.2051048625   -2.8680828759
 C   -0.1548712765   -0.9470658719   -3.3089331706
 N    0.1713796436    0.0436774617   -2.5851640349
 C    2.2213492691   -0.1215011333   -1.2988651133
 O    3.1153313043   -0.8521909847   -0.9570304800
 H    1.0824654358    1.8611770441    0.3215796450
 H   -0.2849828488    2.0289365408   -0.7911357126
 H   -0.5648831037    1.8046554794    0.9453136008
 H    0.4303810328   -0.5213416124    0.7819356555
 H   -1.0311754552   -0.3281018830   -0.1819752380
 H    1.5401350696   -2.5937863285   -1.4787348923
 H   -0.1227234854   -2.5072983398   -0.8275260825
 H   -0.5951205392   -0.8808119902   -4.2980723144
 H    2.4089016475    0.9245386457   -1.6150168704