21

 C   -0.1777120484    1.5575392096    0.0359890708
 C    0.0106464093    0.0549111531    0.0889441890
 C    1.3109757062   -0.6593742953   -0.2114970260
 C    2.6055162715    0.1261769511   -0.1136918030
 O    2.5582547473    0.8291005390    1.1248634312
 C    1.7152565333    0.1222622933    2.0331680405
 C    0.7385209305   -0.6855193103    1.1914462321
 C    0.1466254617   -1.9211061220    1.8044534755
 O   -0.6948852324   -1.5195054911    2.8806921802
 H    0.7074120672    2.0926907054    0.3831434801
 H   -0.3913700003    1.8806562525   -0.9890148600
 H   -1.0267020658    1.8577439308    0.6595517854
 H   -0.8583183629   -0.4940894084   -0.2698799212
 H    1.3008881374   -1.5422162111   -0.8423809540
 H    3.4641802459   -0.5641763735   -0.1473694779
 H    2.7408596293    0.8735265640   -0.9038395190
 H    2.3020314199   -0.5606205822    2.6697727207
 H    1.2401132888    0.8643278484    2.6819439170
 H   -0.4189286582   -2.4800104657    1.0418807441
 H    0.9533214306   -2.5809925101    2.1656675695
 H   -0.9973638209   -2.3108525576    3.3363789847