19

 N   -0.0483244605   -1.1104365868   -0.0247449028
 C    0.0004517365    0.0394971047   -0.1200260900
 C    0.0536616111    1.5015254944   -0.2102929477
 N    1.3950487772    1.9971041475    0.0707615761
 C    1.4729992976    3.4544735284    0.0370441703
 C    2.9009159251    3.9282051291    0.3164406724
 C    3.0140507219    5.4319984538    0.2637350459
 C    4.1787781232    6.1134291610   -0.3128101594
 O    2.9504995241    6.0258260483   -1.0371233081
 H   -0.2234858386    1.7949452464   -1.2306588063
 H   -0.7305224860    1.9105200460    0.4542376287
 H    1.6965425269    1.6540758294    0.9778427823
 H    1.1800933345    3.7886669635   -0.9656358084
 H    0.7728910186    3.9364042026    0.7465947219
 H    3.2202816217    3.5829168102    1.3097539073
 H    3.5767189815    3.4790296731   -0.4179943418
 H    2.4372546710    5.9727489324    1.0173453609
 H    4.4497887306    7.1107738162    0.0305208439
 H    5.0005265334    5.5216649099   -0.7142228151