21

 C   -0.0169731142    1.5170394596    0.0459654971
 C    0.0756255215   -0.0003225617    0.0648434608
 C   -1.1486492857   -0.6685444250   -0.5451033663
 C    1.3593092408   -0.7540114806   -0.1856073220
 C    0.6914180253   -0.7811020414    1.2004286008
 C    1.9001321102   -0.0574990662    1.8195287929
 O    2.6324288343   -0.8084523120    2.7521810193
 C    2.5802177494   -0.0401802384    0.3868723682
 O    3.6968254458   -0.9157551994    0.3370009080
 H    0.8596474784    2.0122435543    0.4690884781
 H   -0.1341704196    1.8795964438   -0.9819127562
 H   -0.8909239359    1.8545137079    0.6150134835
 H   -1.2852434725   -0.3588166702   -1.5875834090
 H   -1.0616268130   -1.7592472820   -0.5273443786
 H   -2.0561405147   -0.3949533226    0.0049166195
 H    1.4323711300   -1.5312823214   -0.9380191811
 H    0.1617430365   -1.5888058479    1.6939039940
 H    1.6974281234    0.9111280281    2.2867373365
 H    3.0821392680   -1.4948873703    2.2381626026
 H    2.8406496680    0.9369107955   -0.0410463427
 H    4.4468648239   -0.4531031700    0.7269558644