19

 C   -0.1427198201    1.5238520750    0.0924346505
 C    0.1446846076    0.0584702982    0.0275661092
 O   -0.7438252720   -0.8249968492    0.7199190386
 C    0.6527313742   -0.9277182977    1.0097603677
 C    1.2949635271   -1.8008616350   -0.0923985532
 C    0.3477751764   -2.7758955737   -0.8247416961
 O   -0.0702454012   -1.7441193586   -1.7555928463
 C    0.7995175016   -0.7714087824   -1.1424983218
 C    1.6693139679   -0.0254893019   -2.1190750223
 H    0.7221385761    2.1133187458   -0.2267376952
 H   -0.9852355380    1.7801611952   -0.5597355812
 H   -0.4052898492    1.8123655021    1.1139290774
 H    0.9534081197   -0.8126142901    2.0457500608
 H    2.3472527467   -2.0555291962    0.0232114452
 H    0.8570215485   -3.5932991394   -1.3482313824
 H   -0.4905460486   -3.1648287131   -0.2406940785
 H    1.0525123549    0.5893398205   -2.7842395878
 H    2.3700422565    0.6348982452   -1.5974785711
 H    2.2415173019   -0.7240314748   -2.7357609036