23

 C   -0.0149222944    1.5800661019   -0.0415740147
 C    0.0297652720    0.0383041700    0.0279047946
 C    0.5962576746   -0.4981021888   -1.3055381853
 C    0.5667180577   -1.9964611309   -1.4467100848
 C    1.3596776206   -2.7868417623   -0.7297528050
 C    2.3351696121   -2.2366088252    0.2861487566
 C    1.7063612341   -1.3745334324    1.3647396442
 C    0.7448038437   -0.4456531056    1.2865182932
 C    0.2568810285    0.1920483871    2.5712161170
 H    0.9975806346    1.9987967674   -0.0692367818
 H   -0.5349138433    1.9015677689   -0.9497192321
 H   -0.5378922446    2.0202142906    0.8101868392
 H   -1.0133561517   -0.3083518055    0.1074121308
 H    0.0303216570   -0.0360174525   -2.1211509271
 H    1.6290137081   -0.1346827127   -1.4083455761
 H   -0.1351910950   -2.4268414963   -2.1564152123
 H    1.3176338607   -3.8658106781   -0.8523736118
 H    2.8544247132   -3.0644720068    0.7780874017
 H    3.1268530363   -1.6720734839   -0.2327409554
 H    2.0966326541   -1.5742953845    2.3615929937
 H    0.6727652387   -0.3140180383    3.4458420437
 H    0.5283102272    1.2517372012    2.6393132881
 H   -0.8378440842    0.1452826969    2.6440217535