14

 O    0.0447463404   -0.0054690403   -0.3116324488
 C    0.0382316138    1.1865379423   -0.1685538952
 O   -1.0858955121    1.9845256942   -0.1593244856
 C   -0.7205208582    3.3232264476    0.0662779807
 C    0.6101043149    3.3500847909    0.1806399304
 O    1.6034629867    4.2197617201    0.4403029004
 C    2.8473071221    3.5118994396    0.1913453324
 C    2.5105141644    1.9961318624    0.2606455654
 N    1.0887517317    2.0631543264    0.0079807780
 H   -1.5050517068    4.0529291733    0.1112145891
 H    3.2106274156    3.7903384182   -0.8033766925
 H    3.5674118511    3.8318461901    0.9449037683
 H    3.0399069452    1.4201190097   -0.5011733031
 H    2.7257654612    1.5649501155    1.2446559605