18

 C    0.0031345289    1.5235458767   -0.0108433368
 C    0.0303675916    0.0194057204   -0.0400516070
 C    0.5144283004   -0.9449869840   -1.1193693676
 N    0.0296550170   -1.9435470192   -0.0747185192
 C    0.5290363429   -0.9911649527    1.0445961371
 C   -0.8123046159   -1.0624470860    1.7736476969
 C   -1.1565171624   -0.9786804743    0.2773726130
 C   -2.4267329498   -1.0560581549   -0.3748980679
 C   -3.4984381442   -1.0944999229   -0.9209417910
 H    1.0124253099    1.9342748619   -0.1246808670
 H   -0.6142799808    1.9166930009   -0.8256340371
 H   -0.4078713650    1.8976632370    0.9331126533
 H   -0.0433957343   -0.9918367113   -2.0599662907
 H    1.5923748311   -1.0059104614   -1.3040250597
 H    1.5425525264   -1.0973546527    1.4330054038
 H   -1.0491455592   -2.0130090879    2.2574996859
 H   -1.0973025876   -0.2075630261    2.3908110129
 H   -4.4444467990   -1.1387591735   -1.4015523191