21

 C   -0.0205059470    1.5343851411    0.2100429046
 C   -0.0440773654    0.0149291293   -0.0116910654
 C   -1.4892878687   -0.4972438973   -0.0778948582
 C    0.7295725084   -0.4130040210   -1.2699103133
 C    2.2284980147   -0.0995047893   -1.2380218035
 C    2.9879828839   -0.8068631391   -2.3612263434
 N    4.1023096097   -0.1499487398   -2.8025523393
 O    2.6429835669   -1.8763846038   -2.8251500275
 H    0.9958400758    1.9173950989    0.3455703231
 H   -0.4638608482    2.0592981479   -0.6451671402
 H   -0.5957818805    1.8092241599    1.1003622178
 H    0.4414137426   -0.4598592424    0.8542487510
 H   -2.0225530904   -0.0538790772   -0.9274715748
 H   -1.5212382113   -1.5849958108   -0.1978115974
 H   -2.0439578626   -0.2409760847    0.8309356471
 H    0.6238487842   -1.4916876737   -1.4209812226
 H    0.2786632918    0.0618114608   -2.1521561518
 H    2.4182831573    0.9786886926   -1.2774496876
 H    2.6599331281   -0.4553828988   -0.2912540856
 H    4.4316382319    0.6958913707   -2.3723625627
 H    4.6942483287   -0.6151910732   -3.4712256902