18

 C   -0.0011655219    1.5667555615    0.0561487586
 C    0.0422324931    0.0691322790    0.0187832369
 C    0.5977397755   -0.7747987888   -1.1377022007
 C    1.2334412371   -1.7795513550   -0.1243571999
 C    0.6738180503   -0.9431039419    1.0323894373
 C    1.2735994642   -0.7170045544    2.3007245764
 N    1.7456439057   -0.5449234874    3.3452236823
 C   -0.8384338584   -0.7919291637    0.8667924782
 O   -1.5161012451   -0.1162638071    1.8716953561
 H    0.9837569024    1.9958114457   -0.1535877360
 H   -0.6987808308    1.9416481959   -0.7024333212
 H   -0.3402480747    1.9212470479    1.0309228091
 H   -0.1515497141   -1.1794322940   -1.8251892963
 H    1.3524884096   -0.2402384360   -1.7177504643
 H    0.8786761246   -2.8140078219   -0.1642522617
 H    2.3235453122   -1.7787390763   -0.1582628812
 H   -1.3821712385   -1.6295977959    0.4195943854
 H   -1.4295135811   -0.6093511877    2.6956864710