23

 C   -0.1204117689    1.5182063953   -0.0773533220
 C    0.0309603250    0.0023970875   -0.0005371146
 C    1.2075732960   -0.5933992800   -0.8261859688
 C    2.1064357489   -0.4330256638    0.4314373923
 C    0.7851292340   -0.5763815104    1.2457170443
 C    0.6399451974    0.0803082257    2.6070375973
 C    0.4512754660   -2.0809728329    1.3032405627
 O    0.9507997796   -2.7985698403    0.1833511860
 C    0.9471053928   -2.0865487478   -1.0475846273
 H    0.8266918831    2.0423214845    0.0869477720
 H   -0.4900231503    1.8134181994   -1.0656511037
 H   -0.8361052058    1.8861817333    0.6657180586
 H   -0.9448035696   -0.4636837429   -0.1926562503
 H    1.4901386126   -0.0945359596   -1.7575044826
 H    2.8857260553   -1.1807773231    0.5971684975
 H    2.5357567476    0.5674856633    0.5154134140
 H    0.8209457223    1.1579343674    2.5544258553
 H   -0.3667843737   -0.0676935651    3.0171083007
 H    1.3535773442   -0.3421893860    3.3237619915
 H    0.9182180274   -2.5463588042    2.1796548387
 H   -0.6410586425   -2.2088316470    1.3974071478
 H   -0.0094774659   -2.2259452062   -1.5793729873
 H    1.7375471843   -2.5433217372   -1.6542999322