18

 C   -0.0572379026    1.5110250179   -0.0607399294
 C   -0.0757956631    0.0122481768   -0.0844324170
 C   -0.9166405421   -0.8242113736    0.7981061404
 N    0.5420077625   -0.8643138800    1.0112003244
 C    1.0508449050   -1.7896873627   -0.0613652857
 C    0.5445294698   -0.8495392069   -1.1759990682
 O   -0.3632667801   -1.4058633720   -2.1270203744
 C   -0.1141660929   -1.2318033898   -3.4402077780
 O   -0.8257539674   -1.6612737223   -4.2962583413
 H    0.9291630358    1.9041023077   -0.3298117707
 H   -0.7896285615    1.9176163549   -0.7678981333
 H   -0.3086275845    1.8830102546    0.9361728184
 H   -1.4466687102   -0.3071613425    1.5920408812
 H   -1.4223192698   -1.7052996443    0.4100021477
 H    2.1375899035   -1.8786344051   -0.0148257459
 H    0.5981015071   -2.7854218885   -0.0436695463
 H    1.3586364258   -0.3381371181   -1.7008553398
 H    0.8124394147   -0.6535971262   -3.6271793421