18

 O    0.0506648471    1.3713947158   -0.0684725161
 C    0.0350085742   -0.0246169388   -0.0605919575
 C   -0.4477149749   -0.7156847809    1.1978288516
 O   -0.9156637517    0.1267215274    2.2228814299
 C   -1.2941447623   -0.7401814217   -0.0382283632
 C   -2.6993499971   -0.1446514365   -0.1533043686
 N   -3.2098321591   -1.3883678569   -0.8459561000
 C   -2.4051136639   -1.5267755321   -2.0732646957
 C   -1.7941062681   -1.9452888144   -0.7949914466
 H   -0.3656026798    1.6465998446    0.7604460958
 H    0.8638823346   -0.4475348615   -0.6216144774
 H    0.0229837548   -1.6400826728    1.5305400736
 H   -0.1797962892    0.3038547139    2.8198393079
 H   -3.2007052574   -0.0154647595    0.8074628834
 H   -2.8004265156    0.7682698124   -0.7493093549
 H   -2.7771366881   -2.3044786117   -2.7335447861
 H   -2.0429128457   -0.6314226903   -2.5749392200
 H   -1.5976103278   -2.9824122470   -0.5396912559