16

 O    0.3666449576    1.3203442115    0.0059939566
 C    0.1549059478   -0.0757014993    0.1100790102
 C   -1.3381530348   -0.4626948066    0.0393693437
 C   -1.5699382141   -1.9714953591    0.0530480085
 C   -2.9154412834   -2.3725419111   -0.5166167052
 O   -3.6375137708   -1.6377765894   -1.1401288635
 C   -2.1109859701    0.2179008418    1.1582963721
 O   -2.8321840037   -0.3625615863    1.9308188358
 H    0.1201245775    1.5950198746   -0.8833715121
 H    0.7057128578   -0.6292594107   -0.6654323043
 H    0.5774271444   -0.3697938549    1.0771910810
 H   -1.7437210622   -0.0539508801   -0.8985643562
 H   -0.8075317812   -2.4978815099   -0.5406558711
 H   -1.4988921866   -2.3752211124    1.0692830532
 H   -3.1937011503   -3.4347202770   -0.3396223115
 H   -1.9487554479    1.3123026387    1.2285955729