19

 C    0.0593873548    1.5454074467    0.0885744562
 C   -0.0215573910    0.0542974145   -0.0460761293
 C   -0.9126853819   -0.8069329030    0.7621276853
 N    0.5441550851   -0.9083715179    0.9946812238
 C    1.0677962328   -1.7636404953   -0.1311810294
 C    0.5629594638   -0.7673954344   -1.1792026904
 C    0.0194589876   -0.9989324425   -2.5588670463
 C    1.3232920126   -0.2550135637   -2.3626462637
 H    1.0643510920    1.9103664815   -0.1475385848
 H   -0.6486683422    2.0404273905   -0.5871362229
 H   -0.1824006889    1.8512140246    1.1104397374
 H   -1.4404176901   -0.3493290786    1.5941001224
 H   -1.4327994852   -1.6436499510    0.2988756712
 H    2.1571596618   -1.8334936994   -0.0719524549
 H    0.6412618888   -2.7735175546   -0.1475435872
 H    0.0611274564   -2.0069137941   -2.9593008276
 H   -0.8506444999   -0.4305150413   -2.8723917364
 H    1.3293501829    0.8146408410   -2.5475777726
 H    2.2483518407   -0.7560721530   -2.6310418408