18

 C    0.0768358805    1.5640294342    0.0817382049
 C    0.0006924662    0.0372699765   -0.0160774461
 C   -1.4482458590   -0.5137676459   -0.0388825304
 C   -2.2285238494   -0.1150192505   -1.3197072789
 O   -3.5663692527   -0.5546162005   -1.3041126571
 C   -1.4533759350   -1.9640670482    0.0964179062
 C   -1.4599153800   -3.1716397880    0.1726813844
 C   -1.4602689049   -4.5335320584    0.2688059872
 N   -1.4622783254   -5.6927136095    0.3477321943
 H    1.1181204779    1.8845191622    0.1777909384
 H   -0.3366167557    2.0593217580   -0.8013908653
 H   -0.4665720520    1.9321964396    0.9586104901
 H    0.5254569595   -0.3138264276   -0.9124535600
 H    0.5211919207   -0.4084326326    0.8375538798
 H   -2.0007614885   -0.0979572609    0.8153310378
 H   -2.2693642502    0.9750017928   -1.3819359020
 H   -1.6799088780   -0.4839946756   -2.1999750897
 H   -3.5651032939   -1.5183278957   -1.3147129436