18

 C    0.6485399293   -0.6820571562   -0.9764263433
 C    0.4557411156    0.2806630159   -0.2817268853
 C    0.2358287242    1.4674302257    0.5520297203
 N    0.9539385993    2.6884060872    0.2099103820
 C    1.7382086439    2.6902336311   -0.7749320368
 O    2.4051472853    3.8221499338   -1.0913844522
 C    3.2259132550    3.7395501721   -2.2330967215
 C    4.4140114539    4.6418393169   -2.2377950933
 C    4.6013050388    3.1446306539   -2.0992913444
 H    0.8048880593   -1.5435610020   -1.5775896519
 H   -0.8364835395    1.7044895448    0.5570486108
 H    0.4799980208    1.2200166116    1.5938197808
 H    1.9465102954    1.8355401002   -1.4281215815
 H    2.6739212630    3.5905246269   -3.1579127448
 H    4.6894392496    5.1238834983   -3.1684406622
 H    4.5623022337    5.2431530627   -1.3485799905
 H    4.8801849262    2.7702555662   -1.1209729397
 H    5.0039753961    2.5840727809   -2.9354874368