22

 C    0.0789464719    1.5484877190    0.1838775007
 C   -0.0142104166    0.0365131621   -0.0431035459
 C   -1.4541769155   -0.5167538989   -0.0735245781
 C   -2.2032602803   -0.0773955093   -1.3412561230
 C   -1.4280282879   -2.0525027553    0.0911625233
 O   -0.7512796810   -2.4500996152    1.2719533491
 C   -2.8426605017   -2.6804805037    0.0494624461
 C   -2.8199311367   -4.1254855115    0.2630916902
 N   -2.8165036082   -5.2702476597    0.4178872497
 H    1.1245222529    1.8677519216    0.2305728456
 H   -0.4001719246    2.1219966401   -0.6158451226
 H   -0.3964467969    1.8364017142    1.1285531665
 H    0.4829775898   -0.2269156609   -0.9868461138
 H    0.5352267815   -0.4824596459    0.7473049623
 H   -1.9911943368   -0.1130667879    0.8014735721
 H   -3.2712637617   -0.3089916773   -1.3006693848
 H   -2.1185185491    1.0021592005   -1.4889854805
 H   -1.7845685683   -0.5640951660   -2.2302999644
 H   -0.8380678564   -2.4875345074   -0.7247762437
 H   -1.2074738710   -2.0636394385    2.0286563185
 H   -3.4739669495   -2.2201219594    0.8211976987
 H   -3.3249025241   -2.4829972308   -0.9123687559