16

 O   -0.0233546338    1.2807875451    0.1643484707
 C    0.0205413420   -0.0577517201    0.0255198902
 N    0.0720706062   -0.7296944137   -1.0942611725
 C    0.1066235918   -2.0526047698   -0.6706764660
 C    0.0796033269   -2.1363933391    0.6759473786
 N    0.0340508114   -3.4200016962    1.2521113200
 C   -0.1376847793   -4.2812644379    0.0237229078
 C    0.1778218703   -3.4294925857   -1.2624697042
 N    0.0164973746   -0.8391446564    1.1558596523
 H   -0.0024649442    1.6399700864   -0.7315939433
 H    0.9071400086   -3.6535660811    1.7214753264
 H    0.4855932412   -5.1740940722    0.1101269938
 H   -1.1832158959   -4.6021326626   -0.0043384417
 H   -0.5653147508   -3.6294824825   -2.0403905039
 H    1.1630721635   -3.6587919062   -1.6927778880
 H   -0.0605324126   -0.5111189881    2.1028429598