23

 C    0.0166608830    1.5237711038    0.0917716353
 C   -0.0091744667   -0.0054492203    0.0391354766
 C    0.7543946703   -0.5525337141   -1.1667120564
 C    0.6332651680   -2.0694302439   -1.3287395976
 O    1.3101963598   -2.5505622624   -2.4805248040
 O    0.5905623256   -0.5818890184    1.2010904814
 C   -0.2145649247   -0.6030566500    2.3672286137
 C    0.6528265384   -1.1788951832    3.4762862635
 O    1.8041481403   -0.3867990159    3.6903487540
 H    1.0489512532    1.8846039918    0.1426173546
 H   -0.4526963841    1.9438333200   -0.8032124162
 H   -0.5232190303    1.9087717288    0.9612388470
 H   -1.0569844477   -0.3462703293   -0.0171364184
 H    0.3897806032   -0.0670168554   -2.0785078103
 H    1.8131016504   -0.2785415451   -1.0577082802
 H    0.9813492334   -2.5685875157   -0.4145436414
 H   -0.4182678742   -2.3450971866   -1.4703127833
 H    2.2531143871   -2.4150940032   -2.3437393135
 H   -0.5379872821    0.4106135676    2.6445380344
 H   -1.1126266025   -1.2224613652    2.2106661498
 H    0.0901767599   -1.1977515606    4.4154331588
 H    0.9194837384   -2.2168309861    3.2196580183
 H    2.1801516915   -0.2387560267    2.8145210839