17

 N   -0.5385286810    1.3990005621    0.0814966063
 C   -0.3168989885    0.0504315888    0.0160739401
 C   -1.1804428690   -1.0196799807   -0.0480476602
 C   -2.6799558274   -1.0210025203   -0.0879907979
 C   -3.2933053971   -0.4505893886   -1.3673421035
 O   -3.0453973912    0.9578802066   -1.3982840276
 C   -0.2869889138   -2.1202826993   -0.0186012805
 N    0.9766627174   -1.7826519604    0.0554214728
 O    0.9529200337   -0.3669621175    0.0739688041
 H    0.2700753970    1.9658208847   -0.1280642889
 H   -1.3846048668    1.6748890379   -0.4041722672
 H   -3.0393299419   -2.0497722980    0.0244612358
 H   -3.0940907839   -0.4547719694    0.7570862672
 H   -2.8514032707   -0.9416089478   -2.2455774562
 H   -4.3769362794   -0.6409258921   -1.3746868157
 H   -3.3176525667    1.2981766089   -2.2552292525
 H   -0.5374189708   -3.1735667150   -0.0436071160