19

 C   -0.3578745606    1.5481635399   -0.0131786554
 C   -0.0237604184    0.0498777049   -0.0361598368
 C    0.7773697422   -0.4379721284   -1.2181347526
 C    1.8645686905   -1.1261677559   -0.8656084979
 C    2.0148018451   -1.2491467507    0.6285973789
 C    3.3692610833   -0.8313540953    1.2014438654
 O    4.3318670426   -1.7667267114    0.7391192371
 C    0.8655103143   -0.3684499483    1.1502399096
 O    0.7137658527   -0.0232330079    2.2944294947
 H    0.5456527089    2.1522264006   -0.1424593826
 H   -1.0560933766    1.8060393922   -0.8148979506
 H   -0.8116389300    1.8131349990    0.9452819522
 H   -0.9680658504   -0.5105242862    0.0519277099
 H    0.4728150286   -0.2380892147   -2.2398558224
 H    2.5798214867   -1.5700082423   -1.5471205475
 H    1.8395560225   -2.2836679132    0.9615669612
 H    3.6117843322    0.1903486237    0.8694640295
 H    3.2976184211   -0.8204981715    2.2979826678
 H    5.1930053856   -1.5036963746    1.0770551496