22

 C   -0.2256510022    1.5504947975    0.2416757292
 C   -0.1566708814    0.0434108569    0.2751393261
 N    1.0584616403   -0.5836713452   -0.2798459380
 C    0.7767818829   -0.7104618266    1.1581143312
 C    1.7189327494   -0.0410011944    2.1660556489
 C    1.9017000222   -1.0800683868    3.2987081790
 C    0.6170359767   -1.9215588058    3.2469376360
 C    0.3709312880   -2.0785851197    1.7400166359
 O   -0.9102978439   -2.5493982856    1.3667187321
 H    0.7555785319    1.9925808380    0.4306412785
 H   -0.5649101631    1.8974907392   -0.7401858191
 H   -0.9283623559    1.9306232945    0.9921841056
 H   -1.0934850753   -0.4634676061    0.0496524827
 H    0.8044352885   -1.4513101459   -0.7504554793
 H    2.6622212507    0.2459697060    1.6957188708
 H    1.2655695674    0.8736131501    2.5648405785
 H    2.7665803262   -1.7203256337    3.0895318841
 H    2.0736362360   -0.6186081589    4.2743267250
 H    0.6896749360   -2.8805771929    3.7659020577
 H   -0.2206234056   -1.3643826857    3.6912907722
 H    1.0611701726   -2.8374183186    1.3459008512
 H   -1.5634091213   -1.9613981562    1.7624693017