15

 O    0.0773563132    1.3716218951   -0.2563304750
 C    0.0327470451   -0.0082833988   -0.0629936502
 C    0.3948958502   -0.5187022020    1.3527306238
 N   -1.0510290605   -0.6059558070    1.6632011472
 C   -1.4244689900   -0.6139253621    0.2320982695
 C   -2.5837754700    0.3200795951   -0.1168639123
 O   -3.3141027032    0.1762512834   -1.0553436131
 C   -1.5855074425   -1.9407183817   -0.3583332231
 N   -1.6702373753   -3.0161627924   -0.7742326647
 H   -0.1728361006    1.8125397818    0.5639116206
 H    0.5377149755   -0.4694208061   -0.9102684133
 H    0.9210371166   -1.4804832506    1.3271737753
 H    0.9533843071    0.1803092421    1.9843839252
 H   -1.3596084724   -1.4059911400    2.2047557507
 H   -2.6709419831    1.1659808232    0.5969260593