22

 C    0.4348478765    0.9158205304    0.6876239733
 O   -0.3603798386    0.2572013650   -0.2717007937
 C    0.3923016247   -0.3526641649   -1.3078170214
 C    1.1518970477   -1.6130921924   -0.8736014569
 C    0.5156925499   -2.4791548591    0.1501630540
 N    0.3812653517   -2.8203950919   -1.2679725099
 C   -0.8741485319   -2.3330986288   -1.8896384487
 C   -0.5804144947   -0.8992818932   -2.3781903630
 C   -1.8083107824   -0.0379362000   -2.6608666291
 H    1.0978499610    0.2196154844    1.2213817456
 H    1.0563107795    1.6990224080    0.2253064105
 H   -0.2427559202    1.3815302021    1.4074666470
 H    1.0845493631    0.3910470276   -1.7311064702
 H    2.2243973781   -1.6574178499   -1.0422428209
 H    1.1242065258   -3.1649766538    0.7340254352
 H   -0.3529160817   -2.0778475580    0.6666178951
 H   -1.1421552161   -2.9978137274   -2.7160210275
 H   -1.7059375153   -2.3429415927   -1.1734298738
 H    0.0138143561   -0.9928979976   -3.2962236550
 H   -2.4011152224    0.1040940005   -1.7546493198
 H   -1.5216770513    0.9517169438   -3.0311148970
 H   -2.4419433696   -0.5068713021   -3.4208938039