16

 C   -0.1053922681    1.5136247477   -0.0051974383
 N    0.1096777488    0.0739201534    0.1317441951
 C    1.3540505538   -0.5736086259   -0.1090700695
 C    2.5782902467    0.2567690316    0.3139821341
 C    1.9613771014    0.3201330179    1.7355452701
 O    2.3526282099    0.7470497276    2.7788333650
 C    0.7454841894   -0.5052794282    1.3190898736
 C    0.0122231009   -1.5584256688    2.0607536819
 O    0.2773786453   -1.9138144124    3.1802491730
 H    0.7393346454    2.1459260665    0.2946882518
 H   -0.3415408696    1.7210722981   -1.0527091410
 H   -0.9714271195    1.7868721651    0.6024549212
 H    1.3728686858   -1.4543847871   -0.7414818869
 H    3.5060944268   -0.3221359546    0.3410455776
 H    2.7577074650    1.1936808576   -0.2186400121
 H   -0.8155844320   -2.0072947684    1.4683942743