20

 C   -0.2390985130    1.4977147585    0.1059425406
 C   -0.3393536631    0.0273803985    0.4703514750
 O   -1.0942201400   -0.6337697427   -0.5387016448
 C   -1.2528386660   -1.9959958398   -0.3130908305
 C   -2.3604277476   -2.4681939036    0.5989746975
 C   -2.4749339183   -2.6355383540   -0.9031489610
 C   -3.4507767370   -1.7745682122   -1.6900334525
 C   -4.8275164106   -2.2620748357   -1.5991318394
 N   -5.9112008259   -2.6561811656   -1.5237043579
 H    0.3422720124    2.0361564341    0.8600748419
 H    0.2504370318    1.6216851134   -0.8640322651
 H   -1.2337114378    1.9492437827    0.0485811667
 H    0.6621792983   -0.4259770367    0.5404397071
 H   -0.8256739347   -0.1047005039    1.4486266251
 H   -0.3224673907   -2.5657203448   -0.3288288666
 H   -2.2081655033   -3.3488287043    1.2124387077
 H   -2.9758620476   -1.6984339942    1.0531546780
 H   -2.3539059394   -3.6418316042   -1.2909697343
 H   -3.4086206792   -0.7441223613   -1.3262529800
 H   -3.1635036781   -1.7411950742   -2.7475220677