16

 C   -0.0386718585    1.5091572710   -0.0454866803
 C   -0.0141581719    0.0162034067   -0.0572811933
 N   -0.0366666128   -0.6868458672   -1.1205115730
 C   -0.0018141781   -2.1053409382   -0.7494917161
 C    0.0522036858   -2.1608323310    0.8020229346
 N    0.0370743511   -0.7299862339    1.1463075346
 C    0.0672169255   -0.2665252605    2.4354921671
 O    0.0550340005    0.8941615224    2.7806137949
 H    0.8447314936    1.9092749877    0.4579703099
 H   -0.0762082928    1.8569514077   -1.0781030549
 H   -0.9024418833    1.8801257184    0.5115341479
 H   -0.8878539590   -2.6106209313   -1.1479584238
 H    0.8700146625   -2.5834783764   -1.2081119360
 H   -0.8103731727   -2.6740764502    1.2375074724
 H    0.9615389886   -2.6404299398    1.1765983348
 H    0.1029421416   -1.1046537753    3.1591027711