25

 C   -0.3669126287    1.4688965401    0.8944909334
 C   -0.0762168959    0.0272911226    0.4918626526
 C    1.2211831492   -0.3784237656   -0.2812935225
 C    1.9882529123   -0.1693891416    1.0560774704
 C    0.6975033285   -0.9642222679    1.4368856617
 C    0.2791643859   -1.4298964103    2.8082368097
 C    0.9616085589   -1.8692895015    0.1593366322
 C   -0.2080907854   -2.6478285463   -0.4630140647
 C    2.1481775518   -2.8446645893    0.1874834357
 H    0.4827381265    2.0026941979    1.3255124906
 H   -0.7036516881    2.0408428593    0.0222277359
 H   -1.1797175616    1.4979575157    1.6295998310
 H   -0.9953822466   -0.3827458469    0.0737562031
 H    1.5268612076   -0.0354065438   -1.2728728427
 H    2.9500235328   -0.6622232024    1.1824522084
 H    2.0564160261    0.8530300607    1.4257666926
 H    0.1574644884   -0.5837630685    3.4940816791
 H   -0.6754469823   -1.9672058572    2.7705551732
 H    1.0251823123   -2.1043369778    3.2436079636
 H   -1.1411992235   -2.0937759749   -0.5608778288
 H    0.0683307585   -2.9960545201   -1.4650069399
 H   -0.4221344731   -3.5422397983    0.1339038434
 H    1.8917059505   -3.7315011167    0.7790560345
 H    2.3677604431   -3.1950229586   -0.8276923333
 H    3.0728926429   -2.4385615187    0.5958784906