20

 C   -0.2959481023    1.3674124572   -0.2540669910
 O   -0.2213405725   -0.0299443993   -0.4122851257
 C   -1.0078159658   -0.7139734940    0.5449927440
 C   -0.9070688023   -2.1529678927    0.3447654644
 C   -0.8365227913   -3.3455497527    0.2003161117
 C   -0.7681781808   -4.7908447345    0.0030187896
 C   -2.0993509341   -5.4072874312   -0.4007725279
 C   -2.4179784925   -6.7986651419   -0.0009172812
 N   -3.1378424089   -5.6621273897    0.6041606967
 H    0.3337575475    1.8142343335   -1.0265534883
 H   -1.3260578406    1.7398365816   -0.3742878196
 H    0.0703113408    1.6889023344    0.7343686671
 H   -0.6790703435   -0.4533762421    1.5667852374
 H   -2.0638856468   -0.4000982311    0.4681984186
 H   -0.0186351189   -5.0133475657   -0.7687409921
 H   -0.4099520006   -5.2774112645    0.9212008690
 H   -2.4942879582   -5.0308537437   -1.3417318832
 H   -3.0198937174   -7.4323616851   -0.6458440272
 H   -1.6852709617   -7.3336485042    0.5991823155
 H   -2.7716143302   -5.4740158943    1.5349556524