20

 C   -0.2671284184    1.5533091533   -0.1005277356
 C    0.0638610096    0.0653789648   -0.0400511009
 O   -1.1409948144   -0.7055622089    0.0613912742
 C    0.9084347885   -0.4432592849   -1.2256825094
 C    1.4743965098   -1.7768607908   -0.7267709467
 C    1.9248347913   -1.4448680266    0.7063769414
 C    0.8845491476   -0.3977052783    1.2229511950
 C    1.5224829472    0.6884409828    1.9576465827
 N    2.0444041168    1.5420592558    2.5375126332
 H    0.6356003336    2.1690650090   -0.1147038381
 H   -0.8377869651    1.7703167239   -1.0112371507
 H   -0.8725594041    1.8494852804    0.7603903466
 H   -1.6909437531   -0.4902818917   -0.6999265114
 H    0.3076883294   -0.5267435628   -2.1372809475
 H    1.7216631479    0.2645217601   -1.4293150425
 H    0.6782164640   -2.5268398560   -0.7111314947
 H    2.2916203429   -2.1611570451   -1.3419287645
 H    1.9753199914   -2.3170766780    1.3612577700
 H    2.9200981250   -0.9912811744    0.6910391225
 H    0.1610340502   -0.8702074426    1.8925408264