16

 N    0.0159942059    1.3706978515   -0.0968579674
 C   -0.1179584753   -0.0087810919   -0.0211363466
 C   -1.2119661953   -0.8231405584   -0.0143938541
 C   -0.7260367575   -2.1710659391    0.0603598700
 C    0.6145480282   -2.0468586725    0.1013301607
 O    1.3800228123   -3.1442851069    0.2129691869
 C    0.4039394050   -4.2390657787    0.1337975712
 C   -1.0479631272   -3.6335796229    0.1853011518
 O    1.0645569475   -0.7970220623    0.0546004276
 H    0.4827001063    1.7700539118    0.7114785210
 H    0.5073298507    1.6790885648   -0.9301993853
 H   -2.2290411300   -0.4669788082   -0.0645582152
 H    0.5877743955   -4.7607702153   -0.8094342391
 H    0.6175282865   -4.9156535966    0.9629311280
 H   -1.5536305222   -3.8885474993    1.1250806769
 H   -1.6599771005   -4.0390957060   -0.6275936962