16

 N   -0.0604406524    1.1141560824   -0.8392898931
 C   -0.0748149174    0.0743213329   -0.0938317907
 N   -1.2899900724   -0.3909664038    0.3478145562
 C   -1.5324644659   -1.2432768088    1.4904671437
 C   -0.6494597537   -2.4764492368    1.4714809241
 O    0.6681450580   -2.2111544943    1.9558442456
 C    1.5501986713   -1.4850291430    1.2478793444
 O    2.7270444526   -1.5540695667    1.4884399002
 N    1.0941907600   -0.6608169878    0.2124232643
 H    0.8712073287    1.3370280493   -1.1785131097
 H   -2.0143707610    0.2733779784    0.1196307185
 H   -1.3950677123   -0.7318292472    2.4564336620
 H   -2.5776156707   -1.5646769354    1.4367688560
 H   -1.0402539020   -3.2273692893    2.1606101593
 H   -0.6064089562   -2.9041860231    0.4635966440
 H    1.9082554236   -0.2405865669   -0.2132681549