23

 C    0.3526111261    1.4978372726    0.1144240326
 C    0.1445296192   -0.0196049123    0.0648737043
 C    0.4726611850   -0.5885648839   -1.3053431011
 O    1.8743099779   -0.4082538446   -1.6507743164
 C    2.0406523663   -1.8101310661   -1.8553427263
 C    2.9199442674   -2.3407585305   -2.9375553800
 C    3.3046945766   -2.5083034967   -1.4716272920
 C    0.5852119909   -2.1292425916   -1.5120521955
 C    0.3168277549   -3.0696041300   -0.3445230252
 H    1.3845381611    1.7476705949   -0.1475462554
 H   -0.3073633843    2.0119988968   -0.5932684835
 H    0.1465485467    1.8940430413    1.1131093733
 H    0.7725564604   -0.5021488288    0.8217699064
 H   -0.8974812866   -0.2678541904    0.3065496254
 H   -0.1605901535   -0.1040138379   -2.0621804235
 H    2.5956585509   -3.2158767373   -3.4925003281
 H    3.4775744985   -1.6144906673   -3.5193346071
 H    4.1113170462   -1.8887801892   -1.0940913632
 H    3.2462543492   -3.4974741334   -1.0284378564
 H    0.0159912114   -2.4588925550   -2.3864699554
 H    0.9069128274   -2.8063514751    0.5372924028
 H   -0.7413474721   -3.0602634032   -0.0630308187
 H    0.5731219003   -4.0991904824   -0.6171663368