16

 O    0.1210045697   -0.1442890700    0.0127904901
 C    0.0990270544    1.0515012259    0.1487129606
 C    1.2977642722    1.9538812191    0.0138163960
 C    1.0301501012    3.2821208251   -0.7409549403
 O    1.1876143814    4.0647002670    0.4605333227
 C    1.5177141536    2.8947342439    1.2075165138
 C    1.1481446129    2.7417121653    2.6465262746
 C    2.6058014158    2.8866052264    2.2275334178
 H   -0.8447036405    1.5882062636    0.4023700653
 H    2.1662253044    1.3784644294   -0.3080762836
 H    1.7800987950    3.5310493613   -1.4991442569
 H    0.0270266497    3.3916943340   -1.1698425136
 H    0.6773142803    3.5955876311    3.1216129679
 H    0.8034833735    1.7757645716    3.0015083445
 H    3.2544562312    2.0190817782    2.2917324298
 H    3.0896178253    3.8368615582    2.4263549414