22

 C   -0.1186896045    1.5539026691   -0.0870414678
 C    0.0161832914    0.0439702364    0.0474756080
 C    0.9983152836   -0.6743149511   -0.8873216419
 N    2.3540517988   -0.1697342711   -0.5508712984
 C    1.7475001345   -1.2540460717    0.2569129297
 C    0.8104162345   -0.5853051009    1.2813862114
 C    1.4611920889    0.3667921235    2.2788408053
 C   -0.0450721115   -1.6325239434    1.9841781189
 O   -1.1286876570   -0.9691654306    2.6218096217
 H    0.8616002648    2.0348542895   -0.1217955297
 H   -0.6534242158    1.8096756944   -1.0091370221
 H   -0.6847531359    1.9729067164    0.7508704360
 H   -0.9727981417   -0.4204013192   -0.0008490646
 H    0.7983473402   -1.0910594839   -1.8677647006
 H    3.0066072182   -0.6101660342   -1.1986733149
 H    2.2432561713   -2.2142155761    0.3534488434
 H    2.1138546977    1.0765028294    1.7677197242
 H    0.7031425928    0.9172969426    2.8423661409
 H    2.0692560894   -0.1936761184    2.9995560175
 H   -0.4090538023   -2.3673243844    1.2471914986
 H    0.5707198166   -2.1793179625    2.7180923174
 H   -1.6663565139   -1.6294593839    3.0679048668