19

 C    0.0886761209    1.4843640692   -0.0898447700
 C    0.0315368183   -0.0324098083    0.0904286383
 O    0.6439417173   -0.4312873625    1.3189230669
 C   -1.3871254758   -0.5856503485    0.0059014057
 C   -2.1725309302   -0.5276465285   -1.3605461666
 C   -2.3040518037   -2.0531774097   -1.2991232093
 N   -0.9155702491   -2.5746315617   -1.2891592969
 C   -1.5401232963   -2.1144298463   -0.0242493721
 H    1.1201019735    1.8370977305   -0.0033201837
 H   -0.3004995012    1.7870322966   -1.0671933546
 H   -0.5108961116    1.9917920517    0.6777269913
 H    0.6303595037   -0.5196385564   -0.6855236875
 H    0.1854893157    0.0261778018    2.0328923146
 H   -1.9993232577   -0.1524514082    0.8068729228
 H   -3.1225620627    0.0036506332   -1.2755735101
 H   -1.6186672090   -0.1521973122   -2.2252797272
 H   -3.1229167865   -2.6654205954   -1.6561821017
 H   -0.9739105078   -3.5925253633   -1.2926932113
 H   -1.6318521676   -2.7859390521    0.8199214014