20

 C   -0.2885955772    1.0515494337    1.1196600275
 C   -0.1236644095   -0.0610312654    0.1024459104
 O   -1.3126457746   -0.8714192256    0.1493066138
 C   -1.3704559122   -1.9090331957   -0.7020136142
 N   -0.4240571558   -2.1980261287   -1.4947443930
 C   -2.7022125893   -2.6387375495   -0.5645024456
 O   -2.6995027466   -3.8610257638   -1.2956857674
 C   -3.1063215029   -2.9051814466    0.8911030039
 O   -4.3441794666   -3.5777252901    0.9453612096
 H    0.5980606329    1.6923434126    1.1143218392
 H   -1.1609660611    1.6687661218    0.8867951426
 H   -0.4136127270    0.6455180290    2.1275492255
 H    0.0014439888    0.3228082388   -0.9151059492
 H    0.7438354742   -0.6930111265    0.3180799743
 H   -0.6999031196   -2.9898819307   -2.0744700792
 H   -3.4864228976   -2.0305664332   -1.0301615671
 H   -2.0031662402   -4.4186657197   -0.9248977010
 H   -2.3038453024   -3.4852120952    1.3835322026
 H   -3.2104888578   -1.9632881878    1.4329586548
 H   -4.3115628053   -4.2535438575    0.2565902626