26

 C   -0.0531033661    1.6108693420   -0.0457882155
 C   -0.0113702435    0.0806025875   -0.0185484306
 C    0.7200787713   -0.4819683927    1.2052535706
 C    0.7671983902   -2.0132362495    1.2408404808
 C    1.4984406351   -2.5750772933    2.4649431580
 C    1.5455588055   -4.1063448372    2.5005305830
 C    2.2770113370   -4.6689168984    3.7243299344
 C    2.3187385727   -6.1991830660    3.7515719997
 H    0.9576094355    2.0340651069   -0.0602404155
 H   -0.5816664782    1.9826896394   -0.9293263251
 H   -0.5631922529    2.0085575413    0.8388084224
 H   -1.0356592118   -0.3147914923   -0.0405526989
 H    0.4742408644   -0.2894523804   -0.9313662601
 H    1.7451768132   -0.0859082626    1.2281993076
 H    0.2344735520   -0.1117000957    2.1192030543
 H   -0.2581083820   -2.4084273101    1.2175014969
 H    1.2528860579   -2.3826409668    0.3267202067
 H    2.5237476141   -2.1798866289    2.4882819925
 H    1.0127533604   -2.2056715382    3.3790632871
 H    0.5204601972   -4.5024039947    2.4775881312
 H    2.0311603008   -4.4766141556    1.5865794752
 H    3.3013018686   -4.2735262707    3.7463288672
 H    1.7914062642   -4.2988579863    4.6371494749
 H    1.3080244520   -6.6223755163    3.7660365301
 H    2.8288155200   -6.5968753220    2.8669701592
 H    2.8473103124   -6.5710046994    4.6351044640