17

 O    0.1742605056    0.1157493337   -0.6964570551
 C    0.0827911466    1.1925010842   -0.1859864401
 C   -1.0612002860    1.9414020803    0.5296245508
 C   -0.1159530002    3.1645452449    0.6858979241
 C    0.7315786161    3.1582793600    1.9825106468
 C    1.9033540208    2.4269208006    1.2347705882
 C    2.3886211816    1.1738328853    1.7734718500
 C    2.7670787635    0.1286550822    2.2321319925
 C    1.0303857479    2.3952624873   -0.0773377880
 H   -1.9036292779    2.1129446250   -0.1493111918
 H   -1.4450949088    1.4808927890    1.4447374615
 H   -0.5008861559    4.1232650460    0.3430054528
 H    1.0160472012    4.1476312743    2.3455044155
 H    0.3005709403    2.5940674691    2.8123272583
 H    2.7433437842    3.1114166802    1.0856960498
 H    3.1053791541   -0.7978159527    2.6254806957
 H    1.5241491769    2.7202090105   -0.9937098811