14

 N   -0.0213483392    1.3598042733   -0.0794572451
 C   -0.0278862550    0.0049409046   -0.0528069347
 N   -1.1656466005   -0.6611751599   -0.0670038447
 C   -1.0540692713   -2.0081366625   -0.0698156732
 N   -2.2277245897   -2.7157960178   -0.1581896788
 H   -3.0543775265   -2.2273301932    0.1450252968
 H   -2.1595199945   -3.6852363460    0.1083192192
 N    0.0729325065   -2.7184752318   -0.0263541050
 N    1.2228414951   -2.0212588265   -0.0065789132
 C    1.1972771964   -0.7219826208   -0.0276992785
 O    2.3580032220   -0.0148758383   -0.0046858438
 H    0.8377987180    1.8446070516    0.1127195399
 H   -0.8951674170    1.8398454525    0.0575532025
 H    3.0715341557   -0.6678769351    0.0289828585