21

 C   -0.1845548659    1.5447616248   -0.0506374420
 C    0.0741259094    0.0360113820   -0.0364109528
 O    0.9206732378   -0.3579189642   -1.1171830889
 C    0.7462110757   -0.4895290933    1.2373453600
 C    2.1185075998    0.1462847660    1.4878840959
 O    2.7330513526   -0.3008822719    2.6872998324
 C   -0.1946441462   -0.5556875064    2.4653400100
 O   -0.2689182350   -1.9947588753    2.3913216421
 C    0.6891775605   -2.0360009608    1.3190150591
 H    0.7511768745    2.1098244617   -0.0597269310
 H   -0.7524916825    1.8216405339   -0.9460846633
 H   -0.7739617730    1.8561805675    0.8177396395
 H   -0.8971898459   -0.4793865142   -0.1208172750
 H    0.5153948967   -0.0656024309   -1.9394984714
 H    2.7620437357   -0.0203740039    0.6143198139
 H    2.0077970750    1.2282513561    1.6122686176
 H    3.0153892499   -1.2115540758    2.5606819189
 H    0.2682097181   -0.2192958915    3.3992742913
 H   -1.1809904894   -0.0883201018    2.3513727925
 H    0.3053613555   -2.5419260451    0.4262324426
 H    1.6211806666   -2.5351109067    1.6229377387