19

 C   -0.2270680141    1.4809556734    0.0746176681
 C    0.1303888206   -0.0109392759    0.0748510954
 C    0.7750323860   -0.5002821873   -1.2269246913
 C    2.1365778650    0.1388677306   -1.5225208512
 C    0.7821798648   -2.0353742764   -1.4357451269
 O   -0.5686266105   -2.4723536493   -1.4063095413
 C   -0.0501584233   -1.9775643405   -2.6635103016
 C   -0.1027676136   -0.4590782751   -2.5312485732
 O   -0.5021956449    0.4302676489   -3.2233832460
 H    0.6633725838    2.1147907072    0.0203565913
 H   -0.8667796080    1.7329444886   -0.7760650127
 H   -0.7614942714    1.7443290613    0.9921841474
 H    0.8157317102   -0.2277343067    0.9059867454
 H   -0.7726827650   -0.6035599342    0.2495535213
 H    2.8163390061   -0.0009683218   -0.6747862684
 H    2.6053434893   -0.3035289166   -2.4082812545
 H    2.0313126198    1.2107299602   -1.7058805232
 H    1.5585307992   -2.7512247937   -1.1905622145
 H   -0.1162479940   -2.6315501526   -3.5249078941