19

 C   -0.0475778125   -1.2039950488   -0.1452652261
 C   -0.0379161974   -0.0080382754   -0.0255741762
 C    0.0035844135    1.4449920854    0.1138142880
 C    1.4117791075    2.0139599021    0.0255224779
 C    2.2978095704    1.9412880963   -1.2624825871
 C    3.0721109588    3.0362999639   -0.4893747531
 C    1.7007396141    3.5521089489    0.0100650303
 O    3.5985469622    2.3333896188    0.6475372019
 C    2.4480936130    1.5703853711    1.0720119474
 H   -0.0677149651   -2.2604368873   -0.2499652181
 H   -0.6225534872    1.9035209973   -0.6622830928
 H   -0.4446793850    1.7334759949    1.0748707058
 H    2.8243778737    1.0089080042   -1.4761932695
 H    1.7799671746    2.3141753164   -2.1484524407
 H    3.8442820425    3.6680342719   -0.9242131501
 H    1.1272519147    4.0795301702   -0.7549375875
 H    1.6844416762    4.0939402487    0.9591899462
 H    2.1683233732    1.8443903385    2.0971144241
 H    2.6642095830    0.4974353430    1.0339479698