16

 N    0.0112087990    1.3993942366    0.0584351343
 C   -0.0625683717    0.0438645251   -0.0316252103
 C   -1.1966227857   -0.6944975006   -0.0645786916
 C   -1.1892661911   -2.1519217121   -0.0132453070
 O   -2.1607812618   -2.8393278025    0.1747361392
 O    0.0330006480   -2.7787118832   -0.1621898587
 C    1.1009610574   -2.0179481723   -0.7086274925
 C    1.2682699141   -0.6756628131    0.0006892644
 O    2.2375058445    0.1362698715   -0.6537625234
 H    0.8829930475    1.8111939341   -0.2378217609
 H   -0.8219394763    1.9380564175   -0.1160618769
 H   -2.1774538680   -0.2350140655   -0.0340915418
 H    2.0000479942   -2.6318408534   -0.6013596243
 H    0.9359653402   -1.8249110272   -1.7770615474
 H    1.5471209501   -0.8378990550    1.0532226162
 H    3.1126946695   -0.1580421500   -0.3853265194