18

 C   -0.0425917223    1.5900669484   -0.0220152871
 C    0.0347516925    0.0634718411    0.0449714826
 C    0.7952999141   -0.5989111475   -1.1529342028
 C    1.5550659746   -1.8297472936   -0.5812250541
 N    1.6218731205   -1.4743654381    0.8237011409
 N    2.2820675401   -1.9984614245    1.8768914055
 C    1.8199114957   -1.2371176235    2.8662554714
 N    0.9087226329   -0.2815904552    2.5115019550
 C    0.8128128248   -0.4751946448    1.2077464637
 H    0.9585790834    2.0293011704   -0.0767682009
 H   -0.6077858345    1.9121417386   -0.9021161395
 H   -0.5358960376    1.9884770280    0.8685026771
 H   -0.9874058623   -0.3360599505    0.0948753446
 H    0.1263641067   -0.8766168241   -1.9695435070
 H    1.5205902467    0.1185745982   -1.5490227235
 H    1.0029364623   -2.7672874850   -0.7120836538
 H    2.5533158114   -1.9569445199   -1.0059804548
 H    2.1582645512   -1.3742051578    3.8828641226