15

 C   -0.0483524386    1.4455708756    0.0091271186
 N   -0.0050342576   -0.0034066175   -0.0003146008
 C   -1.1231663766   -0.8043671865    0.0028940854
 N   -2.3120637881   -0.3548751323    0.0132489771
 C   -0.5755974301   -2.2217698999   -0.0081094816
 O    0.8461135276   -2.0709395691   -0.0154171035
 C    1.1690281573   -0.7417446638   -0.0103924232
 N    2.3324118822   -0.2526433651   -0.0142387044
 H    0.9794827180    1.8060141211    0.0008352621
 H   -0.5878778738    1.8101502114   -0.8692636977
 H   -0.5695673639    1.7996751440    0.9027946545
 H   -2.9895730280   -1.1158129382    0.0137286650
 H   -0.8813815962   -2.7822778147    0.8817374662
 H   -0.8915860253   -2.7723239718   -0.9006161841
 H    3.0324367931   -0.9902748533   -0.0219120836