19

 O   -0.3742344927    0.3548934970   -0.4505544969
 C    0.4988921215    0.7354558365    0.2869845493
 C    1.3006557793    2.0118008811    0.1251291643
 C    0.9349813969    2.7744271795   -1.1670916176
 O    1.1329490860    4.1847106246   -1.0730541288
 C    0.9352667341    4.7132774720    0.2281382889
 C    2.0212499644    4.1668466681    1.1937305732
 C    1.0864155920    2.9357008263    1.3504522271
 C   -0.1023963905    3.8983328247    1.0518928435
 H    0.7772719001    0.1459432194    1.1918837912
 H    2.3575635690    1.7060664452    0.1272468468
 H    1.5395079718    2.4333435022   -2.0113119281
 H   -0.1113523381    2.5565696279   -1.4099805177
 H    0.8100515100    5.7909502339    0.1103420075
 H    3.0192325023    4.0116975847    0.7757763043
 H    2.0850636597    4.7504923497    2.1159340572
 H    1.0982216521    2.3776613433    2.2908582009
 H   -0.4062212781    4.4472179443    1.9459507629
 H   -0.9888806296    3.5124741198    0.5440157919