21

 C    0.0134286618    1.6008550966   -0.0834890568
 C    0.1197231959    0.0816999957    0.0202924774
 C    0.8444863345   -0.6040114381   -1.1664734132
 C    1.5835777281   -1.7703852750   -0.5398596054
 C    2.2347361399   -2.8236515664   -1.3771305542
 C    1.5815496709   -1.6756218754    0.7929170308
 C    0.8524212015   -0.4681616814    1.2557565929
 C    1.2750133828    0.3262734470    2.4228136663
 O    0.1271450030   -0.5216720271    2.4955631367
 H    1.0034042988    2.0680058294   -0.1311314822
 H   -0.5357355858    1.8902886419   -0.9854945151
 H   -0.5211066018    2.0199832380    0.7750458442
 H   -0.8936894700   -0.3343246052    0.0814076999
 H    0.1527115274   -0.9216637299   -1.9562551590
 H    1.5574425237    0.0836195771   -1.6452381178
 H    2.9808566856   -2.3865893357   -2.0532910688
 H    2.7318210392   -3.5803394019   -0.7644190812
 H    1.4981690494   -3.3285964507   -2.0152440598
 H    2.0611173832   -2.3607587767    1.4830464966
 H    2.1349918468    0.0033622528    3.0103913698
 H    1.0729696951    1.3958146651    2.4585609787