18

 N   -0.1205921229    1.1593041811    0.2018288801
 C   -0.0589288739   -0.0915397429    0.0726597995
 O    1.0783356552   -0.8718696944    0.0772825293
 C    0.5073315959   -2.1840355124   -0.1098928154
 C   -0.6827693321   -2.1717549330    0.9439242042
 C   -1.1943382636   -1.0866707950   -0.1011438381
 C   -2.2603434304   -0.5861189171   -1.1141388235
 C   -1.1972376605   -0.9813446940   -2.2383557947
 C   -0.6226585195   -1.9878192286   -1.1816818160
 H    0.8108658864    1.5592196242    0.3288347939
 H    1.3003478678   -2.9298587956   -0.1323279831
 H   -1.2805686935   -3.0829852313    0.9512401150
 H   -0.4199051518   -1.8569949332    1.9569969682
 H   -3.1447808442   -1.2247814356   -1.1635990594
 H   -2.5499414660    0.4626653556   -1.0378433950
 H   -1.5792470664   -1.4106045856   -3.1664866004
 H   -0.5395113195   -0.1414625543   -2.4653616319
 H   -1.2032769112   -2.9125770280   -1.2366759629