18

 C   -0.0057909317    1.4545798228   -0.0061883232
 N   -0.0025430404    0.0145764947   -0.0208147575
 C   -1.0847862908   -0.9747235346   -0.0657239727
 C   -1.7482344599   -1.1877953866   -1.4306899814
 C   -0.6908922173   -2.0108346064   -2.1936657052
 O   -0.0705238132   -2.8374026082   -1.2078447781
 C    0.0220475130   -2.0827670022   -0.0280570647
 C    1.0363279626   -0.8873987858   -0.0164910920
 O    2.2299090561   -0.7384297370   -0.0111134334
 H    1.0352748922    1.7856033722    0.0232859469
 H   -0.4815743355    1.8710869529   -0.9023240527
 H   -0.5274222255    1.8460826537    0.8757029637
 H   -1.7823530154   -0.9079439806    0.7734730321
 H   -2.6648308782   -1.7714714373   -1.2995660126
 H   -2.0071684934   -0.2552155763   -1.9389797781
 H   -1.1085350996   -2.6664627182   -2.9604427429
 H    0.0517517217   -1.3523118780   -2.6664192811
 H    0.0794676851   -2.7539092153    0.8296277130