20

 C    0.0059213404    1.5615588840   -0.0285509028
 C    0.0609008825    0.0391200634   -0.0034589785
 O   -1.2659653953   -0.5230594455    0.0529011044
 C    0.7052251684   -0.5435270262   -1.2675356698
 C    0.9240959153   -2.0530579249   -1.1612657879
 N    1.7765623843   -2.3217918991   -0.0035288888
 C    1.1212700972   -1.9715096264    1.2559483455
 C    0.7591995941   -0.4899199283    1.2724398129
 O    0.9094056682    0.1991497109    2.2540816656
 H    1.0090149415    1.9890955435   -0.1147555851
 H   -0.5945708803    1.8939129245   -0.8799499271
 H   -0.4322189443    1.9470452411    0.8961858621
 H   -1.7240276604   -0.1091210967    0.7936171156
 H    0.0586099464   -0.3068342585   -2.1194689730
 H    1.6728266738   -0.0555992070   -1.4258941892
 H   -0.0541701881   -2.5608460195   -1.1039351201
 H    1.4352932099   -2.4162832637   -2.0584160217
 H    2.0460571070   -3.2988552358    0.0172544934
 H    0.1799320653   -2.5283460835    1.4311764018
 H    1.7904533942   -2.1633998126    2.0979335428