16

 C   -0.0269565390    1.4020960304    0.0239712239
 C    1.4061553771    1.9663910640    0.0242979002
 C    2.1748953746    1.2659966089   -1.0539857787
 C    3.3411599774    1.4812703498   -1.7138990931
 O    3.5673048855    0.5012846625   -2.6053931742
 N    2.5170682692   -0.4172082671   -2.5490687765
 C    1.7099409287    0.0491114264   -1.6321016903
 C    0.4062375499   -0.5708153652   -1.2155546419
 O   -0.0258617022   -0.0182935654    0.0178137631
 H   -0.5632381203    1.7015248503    0.9277136830
 H   -0.5819738279    1.7862560675   -0.8474295808
 H    1.3815517596    3.0517564736   -0.1227723300
 H    1.8621786595    1.7832968378    1.0046717635
 H    4.0955006030    2.2517050196   -1.6670535366
 H   -0.3528315607   -0.4092301436   -1.9986963058
 H    0.5060992256   -1.6482715694   -1.0629502258