19

 C    0.5890555506    1.1135685887    0.2443926286
 O    0.6121863466   -0.2824856975    0.0020237869
 C    0.4441878274   -0.6156154406   -1.3442702656
 O    1.4979324775   -0.1493377045   -2.1673548523
 C    2.7629601203   -0.8171622482   -2.0862600488
 C    2.7827814057   -2.0625475274   -1.1825945821
 C    1.5408133122   -2.8988826805   -1.4232430091
 O    0.5957082136   -2.9508108062   -0.3505450793
 C    0.2894456261   -2.1324148116   -1.4715528243
 H    1.3918022924    1.6319804494   -0.2926087814
 H   -0.3734523442    1.5536117633   -0.0571695361
 H    0.7210183798    1.2499384770    1.3195822658
 H   -0.4378434383   -0.1032121497   -1.7555795437
 H    3.0328185301   -1.0968229921   -3.1126078530
 H    3.5095243793   -0.0943793936   -1.7358090940
 H    3.6991934380   -2.6264517842   -1.3787844348
 H    2.7836113964   -1.7628799794   -0.1322831312
 H    1.6322890644   -3.8212537435   -1.9936887400
 H   -0.5497004380   -2.4692112994   -2.0766149955