11

 O    0.0644593547   -0.0652362059    0.0043362045
 C   -0.0445055205    1.1412562480    0.0076404955
 C    1.1504133194    2.0093498727    0.0011811332
 N    2.1053964489    2.6602062258   -0.0040996002
 C   -1.3246795936    1.8279838897    0.0186407075
 C   -2.6165115778    1.3793375641    0.0272583262
 N   -3.4711846980    2.4570577894    0.0359901972
 C   -2.6797891032    3.4893801308    0.0325271480
 O   -1.3695310106    3.1997076345    0.0221922845
 H   -2.9660038869    0.3594618177    0.0274895256
 H   -2.9486007424    4.5344262732    0.0368881082