20

 C   -0.0692603917    1.5520297974    0.0034630353
 C   -0.0306381455    0.0184625281   -0.0389752537
 C    0.7428108614   -0.5079056336   -1.2310383675
 C    0.1519745023   -0.3333693832   -2.6742736180
 C    0.4132973508   -1.8425876863   -2.9716381511
 C    1.0400589126   -2.0006840921   -1.5748588746
 O    2.4745383562   -1.7113208141   -1.5834576516
 C    2.2533630784   -0.3906317468   -1.2373354204
 N    3.0694697150    0.5346767633   -1.0059250449
 H    0.9438805310    1.9598541310    0.0449196922
 H   -0.5608558148    1.9600705805   -0.8862310985
 H   -0.6231726257    1.9015285519    0.8797441996
 H    0.4245201752   -0.3638671398    0.8828810108
 H   -1.0522200541   -0.3822117277   -0.0738333387
 H   -0.9101078414   -0.0780920936   -2.6530105568
 H    0.6700106017    0.3885720937   -3.3075835232
 H   -0.5035100237   -2.4233827463   -3.0992683690
 H    1.0948000903   -2.0738016989   -3.7923498619
 H    0.8155437228   -2.8618828373   -0.9452567577
 H    4.0345903292    0.2151354238   -1.1074732604