20

 O   -0.0605110910    1.4458594244    0.2365515367
 C    0.0410222186    0.0526194536   -0.0110529882
 C   -1.3586860392   -0.5406368156    0.0834569818
 C   -1.3859599835   -2.0524766341   -0.1595516137
 C   -2.7880504454   -2.6447664782   -0.0813534597
 C   -2.9088666632   -4.1982095222   -0.0509635568
 C   -3.5862042462   -4.0110089510    1.3292306965
 O   -4.0937186770   -4.7236625541    2.1519590417
 N   -3.4015567274   -2.6499065920    1.2582048503
 H    0.8210206453    1.8266812117    0.1873591799
 H    0.4617239881   -0.1467629316   -1.0106405078
 H    0.7019724336   -0.4375279241    0.7226462137
 H   -1.7605595611   -0.3112964992    1.0780736309
 H   -2.0023311816   -0.0278355563   -0.6422379223
 H   -0.9746128454   -2.2776465128   -1.1528230237
 H   -0.7470775999   -2.5625419756    0.5731223728
 H   -3.4371304833   -2.1805596428   -0.8349112455
 H   -3.5578553136   -4.6402366159   -0.8086250451
 H   -1.9592034058   -4.7362551781   -0.0192077019
 H   -3.7562844920   -1.9057137061    1.8407256704