16

 C    0.0381402019   -1.2312337888   -0.2993385991
 C   -0.0167501296   -0.0444010147   -0.1152545184
 C   -0.0555295817    1.3763144635    0.1065855768
 N   -1.1666248991    1.9780807448    0.0703866328
 C   -1.3637899786    3.4076725121    0.1430726733
 C   -0.4055611141    4.3318921405    0.8434677236
 C    0.7798414845    4.0627914584    1.3784289535
 C    1.4757528829    2.7355833233    1.3862935319
 O    1.2074178873    1.8775102827    0.2740023681
 H    0.0738117613   -2.2800172525   -0.4634909189
 H   -1.4915283353    3.7559040530   -0.8957242659
 H   -2.3541021582    3.5659131334    0.5938136918
 H   -0.7818915373    5.3513860413    0.9157569566
 H    1.3228918230    4.8586384933    1.8831454298
 H    2.5593198420    2.8840908752    1.3571109996
 H    1.2532911711    2.1886507244    2.3147413945