20

 C   -0.0533654811    1.4225088949   -0.0292151003
 N    0.0124100450   -0.0240177593    0.0041003007
 C   -1.2464766457   -0.7596659723    0.0499199958
 C   -0.9974942019   -2.2665319343    0.0834523214
 C    0.0931960885   -2.5850186941    1.1418807678
 C    1.1151285193   -2.1828262296    0.0387325539
 C    0.0501121266   -2.6398717724   -1.0002911516
 C    1.2299992170   -0.6648704035   -0.0018190715
 O    2.2967013014   -0.0784054904   -0.0362195060
 H    0.9664430831    1.8048680425   -0.0653556053
 H   -0.6052751577    1.7701399648   -0.9122340612
 H   -0.5581297826    1.8141310428    0.8636776266
 H   -1.8180857789   -0.4507118718    0.9385949547
 H   -1.8556243315   -0.4960573896   -0.8283140405
 H   -1.9453860717   -2.8078958257    0.1164240878
 H    0.0922564862   -2.0165732676    2.0758629021
 H    0.1444403101   -3.6541171370    1.3622609764
 H    2.1131422793   -2.6172311960    0.0298391336
 H    0.0935394805   -3.7189246439   -1.1674229691
 H    0.0110219540   -2.1200109973   -1.9613520753