15

 N    0.0890896493   -1.1610819954   -0.0459978543
 C    0.0589671762   -0.0044832105   -0.0211056449
 C    0.0016319120    1.4190298422    0.0339687492
 C    0.2767018542    2.2861103649   -1.1661091604
 C    1.1794752499    2.4492781436    0.0280561090
 C    0.4715321646    3.2621419992    1.1268792656
 C   -0.7033638114    2.2342685051    1.1329425937
 C    2.5823797304    2.2027383223   -0.0336979688
 N    3.7245634604    2.0190495698   -0.0642195644
 H    0.7183455537    1.7763219848   -2.0144547851
 H   -0.4205311277    3.0817214697   -1.4149575834
 H    1.0256719842    3.2641761008    2.0653650391
 H    0.2320295491    4.2912455382    0.8488687098
 H   -1.6931201304    2.6070564790    0.8588937359
 H   -0.7734974345    1.6900639163    2.0746211892