23

 C   -0.2656218763    1.4650950776    0.0323483433
 C   -0.1202411370   -0.0549125673   -0.0716914415
 C    0.7950079932   -0.4747823149   -1.2133960328
 O    0.8690787325   -1.8847095255   -1.2424942302
 C    1.7107721210   -2.3784553979   -2.2603508629
 C    1.6908928830   -3.8826721117   -2.1908457838
 O    0.7131123178   -4.5762795111   -2.9727773576
 C    2.0939613500   -4.7653148585   -3.2969000079
 C    2.5680097725   -4.2977027694   -4.6510127961
 H    0.7014950770    1.9487745545    0.2095696482
 H   -0.6845980241    1.8902409606   -0.8864617643
 H   -0.9292306649    1.7405051396    0.8569438761
 H    0.2794642186   -0.4644895582    0.8630381445
 H   -1.0998646002   -0.5220282311   -0.2235697933
 H    0.4094303557   -0.0920864278   -2.1747577592
 H    1.8022743278   -0.0412277460   -1.0783925425
 H    1.3698282503   -2.0373837346   -3.2488838634
 H    2.7438248203   -2.0126258743   -2.1163942836
 H    1.7956600753   -4.2612720466   -1.1725898333
 H    2.4742459498   -5.7486360018   -3.0101969985
 H    2.1714816852   -3.3132297765   -4.9062103723
 H    3.6622936408   -4.2523055942   -4.6766184423
 H    2.2460818619   -5.0026332750   -5.4246388765