18

 C   -0.1502363088    1.5719178512   -0.0144809396
 C   -0.0445356976    0.0457575681   -0.0098668363
 C   -1.3164218008   -0.5816469699   -0.3360550231
 C   -2.3937788549   -1.0394937289   -0.6109262520
 C    1.2143558128   -0.5891778872   -0.6524751612
 C    2.1549673367   -0.2219380025    0.5348029487
 C    2.5794052286   -1.6830131274    0.6198063164
 N    1.1087185302   -1.8460864305    0.2507548509
 C    0.7695651575   -0.6146040171    1.1312218200
 H    0.8074588774    2.0393425370    0.2311335218
 H   -0.4666289121    1.9301312244   -0.9984639741
 H   -0.8941097596    1.9057222124    0.7148111099
 H   -3.3342910410   -1.4700262839   -0.8505753345
 H    1.4672663465   -0.6864376650   -1.7100625194
 H    2.7311060177    0.6951366490    0.6915407011
 H    3.2649176003   -2.0682257575   -0.1420745872
 H    2.8296042888   -2.0931147413    1.6036733366
 H    0.4970339883   -0.7418981408    2.1807149821