16

 O   -0.0189586507    1.4834726420    0.0467547094
 C    1.1469792199    2.1670268850   -0.0681222487
 N    2.3246336291    1.7188543304   -0.1931494683
 C    2.4563725988    0.2716670138   -0.2501462880
 C    2.2512216558   -0.5380001875    1.0339845434
 C    0.7352243500   -0.6402033382    1.2274163347
 C    1.4680277837   -1.6031393648    0.3048344561
 C    1.2517363397   -0.5341617244   -0.8211636391
 C    0.1058129041    0.0535695756    0.0323408996
 H    0.9514585535    3.2375956635   -0.0488707970
 H    3.3949008716    0.0039487753   -0.7405013711
 H    2.9280514874   -0.6523658659    1.8703631390
 H    0.2941375034   -0.8417004576    2.1941964990
 H    1.5242261816   -2.6802151384    0.3032899263
 H    1.1347534759   -0.7014761443   -1.8878901890
 H   -0.8817576240   -0.3346743446   -0.2188678564