16

 N   -0.1392443538   -1.2104095698   -0.1659749996
 C   -0.0741316312   -0.0623140744   -0.0459094890
 C    0.0081800160    1.3905274103    0.0741705389
 C   -0.2476341483    2.0569103453    1.4306005667
 C    1.0036157929    1.9716240584    2.2847766244
 O    1.9448022052    0.9576676665    2.0290749231
 C    2.4709354014    1.1973730597    0.7159215731
 C    1.4246828231    2.0851000997    0.0489011305
 C    0.9464302239    2.9985408531    1.2120670617
 H   -0.6318929213    1.8382944950   -0.6906592344
 H   -1.2256650863    2.2694447052    1.8451922775
 H    0.9190862851    2.2330208613    3.3323358883
 H    3.4417542104    1.7106721294    0.7786706030
 H    2.6043403335    0.2319498443    0.2197468837
 H    1.7210159599    2.5287929373   -0.8993942440
 H    1.0420001896    4.0712738087    1.3036083460