17

 C    0.0125489638    1.4851890130   -0.0104764196
 N   -0.0000623850    0.0332614933   -0.0646906700
 C    0.7861018818   -0.5112849330   -1.1567789007
 C    0.5054608782   -1.9990378598   -1.2458551196
 O    0.7577787908   -2.6910112706   -0.0117753924
 C    0.6039990484   -2.0697476427    1.1778138142
 O    0.6787565491   -2.7029518656    2.1945485110
 C    0.4305566034   -0.5544812877    1.1935444113
 H    1.0225055059    1.9031192832    0.1629659597
 H   -0.3707117551    1.8937177106   -0.9502996081
 H   -0.6371832527    1.8283841541    0.8006324330
 H    0.4816501499   -0.0399239508   -2.0972495388
 H    1.8725506210   -0.3305382178   -1.0304052928
 H   -0.5432506329   -2.1619115512   -1.5180557523
 H    1.1438580678   -2.4822917895   -1.9897295005
 H    1.4093964814   -0.1525202043    1.5292480962
 H   -0.2875124459   -0.3256890511    1.9855609692