12

 C   -0.0022014398    1.5334432873   -0.0596036936
 C   -0.0323583669    0.0120616696    0.0684026475
 C    0.6966608638   -0.4819646235    1.3182832162
 N    0.9810400725   -1.8203416172    1.3198469803
 O    1.0039212431    0.2460623174    2.2413674887
 H    1.0211118962    1.8952516911   -0.1918267184
 H   -0.5970720384    1.8620642709   -0.9164560411
 H   -0.3972883887    1.9992071233    0.8454520117
 H   -1.0693608305   -0.3455293485    0.1304080595
 H    0.3994716489   -0.4690681808   -0.8177701986
 H    0.6328195115   -2.4391764682    0.6087478456
 H    1.3570801382   -2.2221779315    2.1630352224