20

 C   -0.0064467766    1.5617992308   -0.0141193197
 C    0.0108126756    0.0264886030    0.0085653831
 C   -1.4532633950   -0.5162004893    0.0165168445
 C   -2.2016482765   -0.1463515561    1.2162115924
 N   -2.7763860780    0.1586179073    2.1717456707
 C    0.7830302376   -0.5800736418   -1.2032718228
 C    1.6012089818   -1.7735666615   -0.6492082876
 C    1.6286399073   -1.5026288990    0.8357599237
 C    0.7819469173   -0.5387280435    1.1888696641
 H    1.0141017416    1.9542986993    0.0143980832
 H   -0.4883413249    1.9368117995   -0.9243787752
 H   -0.5499209658    1.9677317756    0.8449210747
 H   -1.9945802441   -0.1360320451   -0.8582420242
 H   -1.4428114394   -1.6089709610   -0.0581316689
 H    0.1161981768   -0.8630156462   -2.0233511263
 H    1.4661989835    0.1785646442   -1.5967490191
 H    1.1248320353   -2.7413486144   -0.8598888217
 H    2.6022757776   -1.8293314537   -1.0910147045
 H    2.2534910429   -2.0650603843    1.5210521620
 H    0.6022467129   -0.1931036239    2.2010698016