18

 C   -0.1763196477    1.5428388852   -0.0183437786
 C    0.0252581027    0.0383631011    0.0334385184
 O    0.8322274061   -0.3960287687   -1.0859194412
 C    1.8931338470   -1.2220977380   -0.5464209476
 C    1.2253070942   -1.8996183308    0.6522649864
 C    0.8194364176   -0.5268941875    1.2390937706
 N    2.1363383386    0.1147903196    1.2908230317
 C    2.8460771611   -0.2216174752    0.1471271917
 O    3.9050249100    0.2261667949   -0.2184709348
 H    0.7750163480    2.0741120546    0.0690426272
 H   -0.6308792441    1.8236987720   -0.9720809130
 H   -0.8438679316    1.8698680882    0.7864507732
 H   -0.9514546539   -0.4645045499   -0.0208810291
 H    2.3321544063   -1.8143958010   -1.3446944451
 H    0.3772991994   -2.5256349134    0.3685312909
 H    1.9135534500   -2.4462762025    1.2985838394
 H    0.3016577672   -0.5151929874    2.1973351641
 H    2.3088703690    0.9913325990    1.7587261859