21

 C   -0.5130841937    1.3599407976    0.1171613659
 C    0.1815069855    0.0216710286   -0.0184804788
 O    1.4083818662    0.0969822634   -0.7829165835
 C    2.1046262443   -0.7245501827    0.1696158571
 C    0.9336893099   -0.6486621571    1.1837914151
 C    1.2130433583    0.2580773293    2.3778928808
 C    0.3536493283   -1.9907568373    1.5699955191
 C    0.5458099650   -2.6572805725    2.8656684994
 O   -0.6881321309   -2.0078546623    2.5515207903
 H    0.1363105200    2.1143901330    0.5672585771
 H   -0.8097039476    1.7180728363   -0.8739108223
 H   -1.4172500238    1.2604433870    0.7268481761
 H   -0.5102224847   -0.6942062891   -0.4893374789
 H    2.3070923211   -1.7314366166   -0.2234429920
 H    3.0504865659   -0.2735817746    0.4925387977
 H    1.5593149459    1.2406299375    2.0492217616
 H    0.3173604747    0.3877578843    2.9911410243
 H    2.0008273929   -0.1660011994    3.0091674555
 H    0.1493704055   -2.6401847090    0.7151647771
 H    0.5012261704   -3.7445804167    2.9155606177
 H    1.1343665166   -2.1841061396    3.6481876406