18

 C   -0.0821592565    1.4664558607   -0.1603068428
 C    0.2738146895   -0.0093037322   -0.0660843980
 O    1.0980810358   -0.4261524572    0.7272866140
 N   -0.3990334676   -0.8260892646   -0.9334889683
 C   -0.1471549787   -2.2547593064   -1.0164945375
 C    0.1383624455   -2.6980661829   -2.4311926111
 C   -0.1915077567   -4.0746388004   -2.8652028696
 N   -0.9704584653   -2.9321181211   -3.3793223838
 H    0.8223852942    2.0294912571   -0.4053009125
 H   -0.8524871627    1.6900062371   -0.9029522653
 H   -0.4225589491    1.8082055228    0.8205159485
 H   -1.0445942105   -0.4176031843   -1.5891690252
 H    0.7063800846   -2.4469607401   -0.3605246272
 H   -1.0022982335   -2.8238263874   -0.6208285137
 H    0.9918585325   -2.2038281106   -2.8908217387
 H    0.4293985715   -4.5762956124   -3.6012172168
 H   -0.6587010857   -4.7380123818   -2.1413355837
 H   -1.8595691373   -2.8900153964   -2.8837540685