20

 C   -0.0249348091    1.4224895418    0.0328280323
 N   -0.0100955622   -0.0314034944    0.0264549817
 C    0.5481031885   -0.6125095438   -0.9514891162
 N    1.1781565407   -0.0680119763   -2.0713729964
 C    1.6359085184   -1.1121673745   -2.8666573529
 N    1.4014901988   -2.2881425664   -2.4370089525
 C    0.6738630996   -2.1303016742   -1.1530440424
 C    1.4904559417   -2.7592184046   -0.0162360700
 C   -0.7137064730   -2.7762043595   -1.2631519682
 H    0.9901027423    1.8508507935    0.0416621039
 H   -0.5527711869    1.8395075965   -0.8397912639
 H   -0.5391230885    1.7799011169    0.9282408694
 H    1.2822505749    0.9118535498   -2.2692652654
 H    2.1578236720   -0.8865822907   -3.7918881394
 H    2.4926630603   -2.3237354176    0.0306613014
 H    0.9896423551   -2.5782869096    0.9385073814
 H    1.5914229777   -3.8355735886   -0.1789684613
 H   -0.6137290160   -3.8526635281   -1.4258096970
 H   -1.2763330829   -2.5951905129   -0.3434977199
 H   -1.2749339614   -2.3531690374   -2.1012003346