20

 C   -0.0126206339    1.5305405786   -0.0137562686
 C   -0.0591170368   -0.0081969419   -0.0009771642
 C   -1.5337625241   -0.4791562611    0.1098745708
 N    0.6127916938   -0.4745533963   -1.2214458610
 C    0.9452477086   -1.8937177834   -1.2659760826
 C    1.8288570331   -2.2823457452   -0.0852021947
 O    2.6108576045   -3.2087092667   -0.1458368851
 C    1.5967517981   -1.5128546240    1.1515441200
 C    0.7066925972   -0.5157540142    1.1961314460
 H    1.0212894383    1.8788553098   -0.0692853096
 H   -0.5506890553    1.9153359430   -0.8871665123
 H   -0.4851094409    1.9490755621    0.8804683597
 H   -2.1224640103   -0.0597424970   -0.7137422675
 H   -1.6082398348   -1.5694680265    0.0701078222
 H   -1.9899318998   -0.1486593530    1.0486951783
 H    0.0643753746   -0.2147616488   -2.0342729433
 H    0.0725577635   -2.5758013481   -1.2437401278
 H    1.4923454598   -2.1110143001   -2.1869148568
 H    2.1475468596   -1.8364565490    2.0292598934
 H    0.4934515346   -0.0138871081    2.1376664229