14

 N    0.0420354628    1.3393096320    0.1741968714
 C    0.0297410580   -0.0287876318    0.0416655125
 N   -1.0911223723   -0.7127562507    0.0168920864
 O   -0.6729693626   -2.0815304305   -0.0504518553
 C    0.6541346627   -2.1291317454   -0.0759907100
 N    1.2370855681   -3.3530196323   -0.2001103009
 C    1.1976289166   -0.8636799933   -0.0199510741
 C    2.5513337377   -0.4898650398   -0.0174636852
 C    3.7124548727   -0.1602720544   -0.0187778082
 H    0.8498218140    1.7914984397   -0.2278340352
 H   -0.8307545352    1.7886949014   -0.0623427110
 H    0.6794630484   -4.1376985282    0.1018276017
 H    2.2086929484   -3.3956627544    0.0674495664
 H    4.7336259608    0.1292760978   -0.0154428485