12

 O    0.1226416084    0.0335578698   -0.1194521669
 C    0.1513038573    1.2209827786   -0.2040696678
 O    0.8909242862    1.9916421075    0.6269834181
 C    0.8820619864    3.4012170005    0.4264008688
 C    2.2836479158    3.8468218933   -0.0220699447
 C    2.3591375538    5.2963924877   -0.1768378807
 N    2.3888593701    6.4452082111   -0.2936226830
 H   -0.4127012611    1.8165488878   -0.9485308104
 H    0.1307096445    3.6858398653   -0.3195357465
 H    0.6175358731    3.8707726063    1.3770461371
 H    3.0221161539    3.5183219771    0.7162986122
 H    2.5405334316    3.3669019650   -0.9725126261