22

 C    0.1019049790    1.5412818223    0.1429768630
 C    0.0135671145    0.0139567855    0.1681613579
 O    0.4572673767   -0.5042718993    1.4190876112
 C   -1.3908903165   -0.4896416547   -0.2033129460
 C   -1.4864881215   -1.9990491346   -0.2828987626
 C   -1.8337290467   -2.8356035638    0.9234645777
 C   -2.8000077809   -2.7525403941   -0.2336248244
 C   -4.1409775031   -2.0652562072   -0.0882808556
 H    1.1060270730    1.8666261760    0.4279269497
 H   -0.1247781635    1.9391660848   -0.8516856239
 H   -0.6128957106    1.9834881501    0.8488973749
 H    0.7307607843   -0.3931169373   -0.5566553349
 H   -0.1492087531   -0.1861148826    2.0969452804
 H   -2.1068515604   -0.0947360934    0.5306772317
 H   -1.6699881607   -0.0435846413   -1.1680842963
 H   -0.7409852768   -2.4340579002   -0.9457578183
 H   -1.2890271425   -3.7563636776    1.1005332144
 H   -2.1039319973   -2.3052392797    1.8320507672
 H   -2.8350076392   -3.6324685684   -0.8717683939
 H   -4.0940623540   -1.2167691025    0.6004339578
 H   -4.5090979863   -1.6911449439   -1.0506674242
 H   -4.8912017743   -2.7604943782    0.3048479243