17

 C   -0.1927462552    1.4603458769   -0.1487803001
 C   -0.0239427432   -0.0467422568   -0.0286680546
 C    1.1320442639   -0.6242775680   -0.9363743483
 O    1.5358358783    0.0317539454   -2.0958746358
 C    2.0192934557   -0.4972515918    0.2999007723
 O    3.1551660760   -0.1423834702    0.4202559193
 C    0.7890735086   -0.5185951776    1.2464792090
 C    0.8074236912    0.2765985970    2.4485437768
 C    0.8324053792    0.9546568812    3.4408630174
 H    0.7542688961    1.9879595361    0.0069649632
 H   -0.5591850866    1.7193561190   -1.1455067947
 H   -0.9007440279    1.8320430462    0.5963512437
 H   -0.9774235844   -0.5634111685   -0.1481100661
 H    0.9199711632   -1.6766308005   -1.1657952942
 H    2.3180050116    0.5532737352   -1.8764597659
 H    0.5341489603   -1.5614592999    1.4699254949
 H    0.8598694231    1.5489865963    4.3204844831