20

 C   -0.2524456985    1.3934033263    0.1027938431
 C    0.0567753791   -0.0968313371    0.0212853710
 C    0.8827164441   -0.5620596149   -1.2225391064
 C    2.1729452381   -0.2859727612   -0.3963414384
 C    1.2885885104   -0.5759510944    0.8366572779
 O    1.2067377714   -1.9927894793    1.0638032117
 C    0.9286006794   -2.7818953490   -0.0205022938
 N    0.8456891292   -4.0402630407    0.0779288206
 C    0.7224338828   -2.0774112313   -1.3585872852
 H    0.6290830362    2.0153343038   -0.0818268019
 H   -1.0094209708    1.6688524812   -0.6390446963
 H   -0.6439154786    1.6578424602    1.0909789854
 H   -0.8522053890   -0.6753272505    0.2198306194
 H    0.7381492279   -0.0410736259   -2.1717997650
 H    3.0362947940   -0.9387143206   -0.5485095526
 H    2.4923916345    0.7563820958   -0.4378847933
 H    1.5164055030   -0.1327648668    1.8071329345
 H    1.0129010776   -4.3286464176    1.0441453253
 H   -0.2740904973   -2.3404517438   -1.7287281909
 H    1.4408687564   -2.4928761041   -2.0728429752