18

 C   -0.0115245256    1.4992688084    0.1201839498
 C   -0.0033509191    0.0100132117    0.0034397461
 C   -0.0128834477   -0.7726229781   -1.0981931452
 C   -0.0681589326   -2.2385834985   -0.7092115518
 N   -0.0103875202   -2.2717072907    0.7711001199
 C    1.2302565837   -1.7405557020    1.3263016923
 C    0.0283889732   -0.8573592326    1.2128961037
 C    0.0184397434   -0.3465372901   -2.4911872525
 O    0.0609619669   -1.1192902731   -3.4278650607
 H    0.8924659685    1.8502357211    0.6327706004
 H   -0.0760935779    2.0019975443   -0.8458452720
 H   -0.8611865659    1.8252627114    0.7326666754
 H   -1.0013845048   -2.7044529068   -1.0459355104
 H    0.7508990348   -2.8229280469   -1.1417630203
 H    1.5051619852   -2.1497295355    2.2946898739
 H    2.0624728767   -1.5368073961    0.6549727163
 H   -0.5368201883   -0.5755173740    2.0978432027
 H   -0.0084840103    0.7508605376   -2.6651713776