16

 N   -0.0946101703    1.4544538267    0.0886215054
 C   -0.0121701816    0.0236284555    0.0132121188
 C    0.8994610597   -0.6930568215   -1.0356783599
 O    1.6501749664   -1.3316034120    0.0430060653
 C    0.9583870159   -0.6566155845    1.0175714940
 O    1.1394549103   -0.6763753143    2.1897312740
 C   -1.4038820001   -0.5822955745    0.1007735776
 C   -2.4694863470    0.0363977925    0.8920776360
 O   -2.4432579894    0.1548786129   -0.5419796600
 H    0.7961505697    1.9044332131   -0.0826830266
 H   -0.7823747084    1.7948573517   -0.5757528220
 H    0.4352760582   -1.4397873919   -1.6834513008
 H    1.5418817169   -0.0242191401   -1.6135347352
 H   -1.4392152123   -1.6584896178   -0.0694046784
 H   -3.2690996943   -0.5874142973    1.2857572739
 H   -2.2567020738    0.9533939814    1.4330188382