18

 C   -0.2184041002    1.5184438433    0.1510170263
 C    0.0818003880    0.0283056516    0.0416114653
 C    0.6980773034   -0.5221044112   -1.2535556412
 C    2.1297422710   -0.0964357740   -1.4162008658
 C    1.8091654216   -1.2222913049   -0.4729147336
 C    1.2455546181   -0.6567076807    0.8590117515
 C    2.2659586384    0.1256876068    1.6372828176
 O    2.4822023805    1.3094432549    1.5374767801
 H    0.6520608344    2.1325916523   -0.0805235355
 H   -1.0272983891    1.7820606834   -0.5402983953
 H   -0.5448221454    1.7819520537    1.1623571659
 H   -0.8307904046   -0.5334126795    0.2669294769
 H    0.1264017004   -0.9089552502   -2.0888786109
 H    2.5961569548   -0.4034356962   -2.3467598243
 H    2.4813377946    0.8574986326   -1.0342047136
 H    2.2115557908   -2.2201359069   -0.5931006060
 H    0.8674542412   -1.4616738698    1.4968888572
 H    2.8907939523   -0.5036942254    2.3156409054