19

 C   -0.3030152424    1.3838402003   -0.3688543035
 O   -0.3566181287   -0.0115860485   -0.5609930928
 C   -0.9566011895   -0.6746900279    0.5335682831
 C   -0.9888619732   -2.1111235665    0.2949768442
 C   -1.0331123483   -3.3042026719    0.1363085319
 C   -1.0642412777   -4.7367805049   -0.1327356723
 O   -2.2368210320   -5.1367487634   -0.8571958680
 C    0.1833768154   -5.2064296281   -0.9061094690
 O    0.0828534369   -6.5798319840   -1.1956810244
 H    0.1700490930    1.8128044154   -1.2546289826
 H   -1.3079483923    1.8203610221   -0.2537238297
 H    0.2914160351    1.6524527604    0.5188674667
 H   -0.3996229579   -0.4688042323    1.4646445740
 H   -1.9834754232   -0.3022610120    0.6959083721
 H   -1.1126000257   -5.2995686307    0.8068144618
 H   -2.3906057981   -4.4735725214   -1.5403018193
 H    0.2832534727   -4.5943205300   -1.8183761488
 H    1.0814507274   -5.0531059759   -0.3001063492
 H   -0.8202877815   -6.7086323707   -1.5148471041