18

 C    0.0795877585    1.5372069788    0.1105336084
 C    0.3256643454    0.0318777457    0.0685670433
 C    0.5673127246   -0.4974191298   -1.3295402245
 O    0.5648044313    0.2081941251   -2.3132941451
 C    0.8228887242   -1.9848736886   -1.4852666544
 C    0.3153104096   -2.6106354261   -2.7954371056
 C    1.7685883242   -2.3780286817   -2.6327609670
 C    0.8232649953   -2.8098008628   -0.3092816967
 N    0.8220137976   -3.4679256409    0.6428244243
 H    0.9342464906    2.0846328291   -0.2947313520
 H   -0.7937058523    1.8075661565   -0.4883205413
 H   -0.0886040131    1.8676719923    1.1387515130
 H    1.1862134901   -0.2553963992    0.6882862541
 H   -0.5164747988   -0.5284500720    0.4974494121
 H   -0.0673091777   -3.6215784711   -2.7280971712
 H   -0.2382793264   -1.9244610192   -3.4250155093
 H    2.2056556265   -1.5332793083   -3.1514494974
 H    2.4202871603   -3.2234318579   -2.4496768904