16

 O    0.2225149928    1.1238388107   -0.5762668805
 C   -0.0126054189    0.0285076171    0.2811388242
 C   -1.4387402170   -0.5171009258    0.1686430970
 C   -2.4537049546    0.1857997236    0.9026950911
 N   -3.2848995975    0.7260472137    1.5003611198
 C   -1.8833010639   -1.1000425546   -1.1691715693
 O   -0.8760569007   -1.0995014309   -2.1531290333
 C   -1.6657619205   -2.0439900689   -0.0269833368
 O   -0.5783022907   -2.8942681898   -0.0780508747
 H    0.1415890837    0.7930697268   -1.4780195542
 H    0.6917857894   -0.7942063198    0.1096652420
 H    0.1473594071    0.3886455404    1.3003968948
 H   -2.8841098730   -0.8685524753   -1.5215381323
 H   -1.2134909111   -1.5468029115   -2.9365726674
 H   -2.5183865103   -2.4765296002    0.4854647080
 H   -0.1289089949   -2.7252953955   -0.9182097983