17

 C   -0.0868058679    1.5016217467    0.0737605648
 C    0.0164771284    0.0526680663    0.0170570024
 C    0.0988552484   -1.1495685367   -0.0300848257
 C    0.0313599907   -2.6021292068   -0.0916656529
 O   -1.0488894408   -3.1706911408   -0.1449514882
 N    1.2311967711   -3.2679549382   -0.0857790938
 C    1.2286071922   -4.7177089879   -0.1455097842
 C    2.5263840801   -2.6244691759   -0.0235215979
 H    0.4267959196    1.9662560539   -0.7749740296
 H   -1.1330444816    1.8241161375    0.0517518897
 H    0.3669344385    1.8927545631    0.9909131224
 H    1.7680620908   -5.0682124833   -1.0346582295
 H    1.7189955460   -5.1412366215    0.7402606740
 H    0.1953710457   -5.0582501034   -0.1880910084
 H    2.4024142278   -1.5430800932    0.0176143351
 H    3.0797608359   -2.9505832491    0.8670917254
 H    3.1287258151   -2.8775221907   -0.9060865737