20

 C   -0.0854113454    1.5163735282    0.0537101813
 C    0.1126489064    0.0336099888    0.0020993313
 N   -0.8255657002   -0.8888598040    0.6945850743
 C    0.6347680410   -0.9479631756    1.0004500154
 C    1.3057496386   -1.7866428038   -0.1037913297
 C    0.4546037640   -2.9240483384   -0.7794870602
 O   -0.4772683004   -3.6117485676    0.0020993890
 C   -0.0743337261   -1.8862240467   -1.8352690568
 C    0.7642121269   -0.7690078769   -1.1591274084
 H    0.8237593042    2.0430785139   -0.2548072924
 H   -0.8961677005    1.8311663658   -0.6142557037
 H   -0.3370795464    1.8478613298    1.0676174065
 H   -1.2669758810   -0.3586857884    1.4447794232
 H    0.9697464772   -0.8077314023    2.0219154905
 H    2.3730042224   -1.9577953335    0.0377268668
 H    1.0963838181   -3.6821471254   -1.2380107824
 H   -1.0384266945   -2.9177521401    0.3812451317
 H    0.2358999092   -2.1069377165   -2.8599533605
 H   -1.1564207275   -1.7429869605   -1.8123262822
 H    1.4458984141   -0.1825131067   -1.7753163836