20

 C   -0.1275352037    1.5967424352    0.0813120226
 C    0.0714886166    0.0805251525    0.0235873264
 C    0.8958300011   -0.4325810388   -1.1398280414
 C    1.6665885174   -1.4722662046   -0.8046576303
 C    2.5662184424   -2.2693248402   -1.6950321308
 C    1.4756433368   -1.8125173345    0.6627926638
 C    0.8321060955   -0.5303098847    1.2395647218
 O    1.8208645023    0.3497396453    1.7582492739
 H    0.8274234690    2.1247006470    0.1432112245
 H   -0.6548736058    1.9496818967   -0.8111209382
 H   -0.7184362457    1.8825402844    0.9571396242
 H   -0.9247695266   -0.3888909328   -0.0173014147
 H    0.8223882646   -0.0134563543   -2.1389477176
 H    2.5750977145   -1.8787973023   -2.7164459394
 H    3.5976484547   -2.2722279192   -1.3197538492
 H    2.2514750228   -3.3202576084   -1.7364171571
 H    0.8115488610   -2.6822861736    0.7731195944
 H    2.4054287887   -2.0544762214    1.1903837034
 H    0.1660516570   -0.7307192423    2.0830189109
 H    2.4484628273    0.5219582362    1.0463869029