16

 N    0.1754186325    1.2696353338    0.5203555021
 C    0.0590923779    0.1634265501   -0.2450222198
 O    0.8920883607   -0.1913507897   -1.0612657897
 C   -1.2089217344   -0.6804520266   -0.0555819315
 C   -1.8932041682   -1.1185004772   -1.3927160523
 O   -1.8240302259   -2.5099797817   -1.0447449504
 C   -0.9450569217   -2.2188255487    0.0528487591
 C   -2.2586254258   -0.2696928744    0.9455973133
 O   -2.2450501726    0.6968453751    1.6721233337
 H    1.0017066711    1.8344065025    0.4079837676
 H   -0.5486071376    1.5148131029    1.1816651567
 H   -2.9235324609   -0.7812496033   -1.5521932521
 H   -1.2693543310   -0.8706229744   -2.2571121153
 H    0.0990873496   -2.4588563204   -0.1706540579
 H   -1.2626348942   -2.7087234658    0.9801604381
 H   -3.1183303397   -0.9739286524    0.9736731984