18

 O   -0.0522112028    1.4814206216    0.0491612884
 C   -0.0042115794    0.0820398982   -0.0345036186
 C   -1.3667247677   -0.6432472649   -0.0732900986
 C   -2.3970800499    0.1567269281   -0.8764824081
 C   -1.9217445454    0.3322851595   -2.3425324272
 C   -0.4067053413    0.2529373140   -2.4697290271
 O    0.2456032796    0.8477141620   -3.2933632033
 C    0.2280641549   -0.6308504632   -1.4046085912
 N   -0.7678151886   -1.6830749055   -0.9912872214
 H    0.8240004969    1.8375795559   -0.1328440758
 H    0.6522760916   -0.3568601693    0.7310583598
 H   -1.7754302846   -1.0199251807    0.8669268321
 H   -3.3602157448   -0.3608207756   -0.8557207469
 H   -2.5314933950    1.1317358962   -0.3999084824
 H   -2.3091194073   -0.4981009898   -2.9448265608
 H   -2.2739064922    1.2598233953   -2.7978436640
 H    1.2265284385   -0.9622294441   -1.6934535383
 H   -0.2737115326   -2.3678000577   -0.4216025166