15

 C    0.1174466106    1.4375335698    0.0356234135
 C   -0.0790084777   -0.0330086152    0.0038668527
 C   -1.1694071331   -0.8299963921   -0.1899663879
 C   -0.7004424240   -2.1913376919   -0.1027733360
 C    0.6324830662   -2.0555260509    0.1360539165
 O    1.3120982345   -3.1962913417    0.2608248131
 C    0.3284462031   -4.1677844970    0.0866245489
 C   -0.8984451779   -3.6178634301   -0.1349068607
 O    1.0763793201   -0.7995757596    0.2128444733
 H    0.8208935463    1.7701809362   -0.7365517679
 H   -0.8392252512    1.9357935889   -0.1371804100
 H    0.5089290600    1.7743634799    1.0025859066
 H   -2.1700936633   -0.4689487880   -0.3702481490
 H    0.6861022082   -5.1806102430    0.1529108193
 H   -1.8087838920   -4.1736153552   -0.2968206225