18

 C   -0.0844551704    1.4842250834    0.0044611396
 C   -0.0586941574   -0.0098879511   -0.0283387010
 C    0.7190804964   -1.0095877878   -0.8135704670
 C   -0.5100613986   -1.9554136300   -0.8898830424
 C   -0.8199006636   -2.2258891371    0.5804054395
 C    0.4128288510   -1.8951971498    1.3983537731
 N    1.0073181519   -0.7947299193    0.6229145420
 C   -1.3081224003   -0.9623097525   -0.0887312466
 O   -2.6147234841   -0.5695810006   -0.2780327848
 H    0.9246174396    1.8846384889   -0.1236544074
 H   -0.7226980143    1.8776210550   -0.7932157312
 H   -0.4747208300    1.8553788459    0.9598190666
 H    1.5127690666   -0.8981010138   -1.5417692562
 H   -0.8062673450   -2.5940852451   -1.7087825067
 H   -1.5289123646   -3.0042499689    0.8358361944
 H    0.1779745233   -1.5488223406    2.4108806326
 H    1.1246596301   -2.7242007480    1.4662744731
 H   -3.0030889505   -0.3744844686    0.5824039826