21

 C    0.2642276269    1.6586230407   -0.2678412465
 C   -0.0282996709    0.2138866080    0.1785600124
 C   -0.0780697755   -0.7235825184   -1.0092242379
 C    0.9668789512   -1.5454277328   -1.0630555790
 C    1.9073949045   -1.3479559402    0.0988490432
 C    1.0917461820   -0.4593075976    1.0672680566
 C    1.9234915198    0.5527734587    1.8447940854
 C    1.3434105882    1.0206852912    3.1681721465
 O    2.9820515040    0.9721059514    1.4326899990
 H    1.2456432873    1.7324399916   -0.7442235691
 H   -0.4896592270    1.9897319446   -0.9894180300
 H    0.2441119221    2.3583494564    0.5742451284
 H   -0.9789143179    0.2151403237    0.7262082306
 H   -0.8619496200   -0.6498325422   -1.7560551071
 H    1.1616373058   -2.2595510297   -1.8557788025
 H    2.2101587111   -2.2895537181    0.5708138711
 H    2.8293715121   -0.8387413733   -0.2068757753
 H    0.5725291873   -1.0992725782    1.7891540206
 H    1.3773243642    0.1958811644    3.8904371400
 H    1.9190204651    1.8619612081    3.5560773492
 H    0.2897821898    1.3001001417    3.0598016547