20

 O   -0.0383662140    1.3531989582    0.3755690560
 C   -0.0110728816   -0.0003881511   -0.0617745989
 C   -1.4153444601   -0.5346153960   -0.0303981955
 C   -1.9750838227   -1.1024477307    1.2516994461
 C   -1.7162946144   -2.0180552939    0.0821114407
 C   -2.8379575835   -2.3260160937   -0.9133881365
 N   -3.1789859664   -1.0886055053   -1.6572167673
 C   -3.8450665320   -0.0413399801   -0.8692377058
 C   -2.3759597314    0.0098262708   -1.0699751096
 H    0.8355425191    1.7303459339    0.2360148479
 H    0.3888374724   -0.0725278623   -1.0864275499
 H    0.6310598924   -0.6178605706    0.5865534176
 H   -1.2873713445   -1.1718234547    2.0891785838
 H   -2.9918288422   -0.8747730946    1.5477670180
 H   -0.9120070360   -2.7418716113    0.1731187433
 H   -2.4843011093   -3.0631891248   -1.6419082842
 H   -3.7339908479   -2.7432562516   -0.4393463123
 H   -4.4920501210    0.6129130896   -1.4489317996
 H   -4.2394544378   -0.2866794088    0.1122582663
 H   -1.9568647890    0.7340473271   -1.7634367001