14

 N   -0.1786062570    1.4359224676    0.0283849991
 C   -0.0822681066    0.0102189190    0.0299053760
 C    1.0274738584   -0.5991597701   -0.6835874365
 N    1.9344677056   -1.0389591387   -1.2520511564
 C   -0.5350343615   -0.7984315522    1.2325169624
 O   -1.5553010559   -0.0893291079    1.9475241428
 C   -2.3911819639   -0.1586274134    0.8262285152
 N   -3.5814291434    0.1805525690    0.6697772527
 C   -1.3644553938   -0.8493103174   -0.0222865948
 H    0.6576506626    1.8641351601    0.4112783456
 H   -0.3206552855    1.7921325595   -0.9107641495
 H    0.0579792393   -1.5293288233    1.7639033294
 H   -3.9688642333    0.6016079977    1.5154002992
 H   -1.5249414751   -1.6126019498   -0.7684540752