16

 O   -0.2473275647    1.3651328303   -0.1440251225
 C   -0.0512886679   -0.0162292935   -0.0554362502
 C   -0.3924659312   -0.7191567250    1.2565018595
 C   -1.3000718569   -0.8108616369    0.0691341000
 N   -2.6374230632   -0.2470390390   -0.0430451070
 C   -3.0562992948   -1.1683997177   -0.9762617939
 O   -4.0061718684   -1.2452770511   -1.7089733830
 C   -1.7591708956   -2.0060576193   -0.7868316225
 O   -1.0284088879   -2.2532526057   -1.9575664483
 H    0.4874802492    1.8029862869    0.2982791991
 H    0.7510927862   -0.4238479478   -0.6686887226
 H    0.1801239260   -1.5948628945    1.5456299057
 H   -0.7107597115   -0.0826534249    2.0763362677
 H   -2.9165749842    0.7173923688    0.0749262173
 H   -1.9068477051   -2.9218296570   -0.1993888724
 H   -1.6591331201   -2.2950480036   -2.6860704669