20

 C    0.0706380247    0.5798091240    0.8442223878
 N   -0.4439786704   -0.5447107906    0.0715028534
 C   -1.5408224447   -1.2301399102    0.5398571108
 O   -2.0610734872   -1.0611112610    1.6217605461
 C   -0.0463775690   -0.7006379528   -1.3066201266
 C   -0.8217500803    0.1271431629   -2.3142959490
 C    1.4411260291   -0.9403354282   -1.5480848597
 C    0.4673795564   -2.0745446880   -1.7017060066
 O    0.4519382092   -3.1542288574   -0.8244598929
 H    1.1583341331    0.5172119481    0.9419771116
 H   -0.1785455508    1.5367106430    0.3704588698
 H   -0.3914769983    0.5422462073    1.8304113398
 H   -1.8874626786   -1.9864934050   -0.1866347345
 H   -0.7030169345    1.1995969174   -2.1224853044
 H   -0.4685509181   -0.0669476767   -3.3314721847
 H   -1.8906224111   -0.1080557515   -2.2759438861
 H    1.8953670145   -0.4985773530   -2.4284929287
 H    2.0873175937   -0.9693122856   -0.6765993974
 H    0.2273262954   -2.4142470100   -2.7037276844
 H    0.5694825468   -2.8180324027    0.0712778959