20

 C   -0.0099508455    1.4059165896    0.0013780962
 N    0.0050980687   -0.0361278033    0.0116035072
 C   -0.0187321966   -0.7798087343   -1.1519744502
 O   -0.0527190520   -0.3367880544   -2.2840319015
 C    0.0062568635   -2.2049739390   -0.7123452565
 C    0.0418044168   -2.2547493829    0.6173848885
 C    0.0438355423   -0.8642608703    1.2168118150
 C    1.3299456693   -0.6188771264    2.0308357024
 C   -1.2036014136   -0.6434791775    2.0957178663
 H    0.8870719743    1.8295207833    0.4694252007
 H   -0.0397053375    1.7141293111   -1.0456675168
 H   -0.8905924956    1.8113618326    0.5144734585
 H   -0.0045322518   -3.0222398293   -1.4193610027
 H    0.0668114540   -3.1360778955    1.2468548667
 H    2.2148832813   -0.7691783333    1.4072199335
 H    1.3507408706    0.4015187055    2.4265830325
 H    1.3822170329   -1.3062513920    2.8807044759
 H   -1.1997149371   -1.3324924206    2.9458496576
 H   -1.2232552212    0.3759949738    2.4938932127
 H   -2.1160752328   -0.8098574471    1.5175442740