16

 O    0.0006234781   -0.0162456659   -0.1976440252
 C   -0.0147430357    1.1782409101    0.0273476188
 N   -1.1746446386    1.9237867103    0.1851762917
 C   -1.0903628431    3.3825555891    0.1442431755
 C   -0.0471892895    3.8246520312   -0.9297112603
 C    1.0044826906    3.4090737489    0.1465374958
 C   -0.0495513077    3.8260378946    1.2105446140
 N    1.1255635355    1.9529058224    0.1876711285
 H   -2.0046137097    1.4652821157   -0.1544763525
 H   -2.0926668496    3.8110433455    0.1476506380
 H   -0.0394595545    3.2968633858   -1.8859754681
 H   -0.0606964281    4.9053757522   -1.0857815970
 H    1.9956117840    3.8627907066    0.1521273893
 H   -0.0633948412    4.9063911106    1.3650333448
 H   -0.0438526754    3.2933835833    2.1624988697
 H    1.9676366249    1.5155470197   -0.1500714630