22

 C    1.3542599830    0.7043888964   -0.6939616682
 C    0.0842689140    0.4402818159    0.1399139186
 C   -0.9816536512   -0.3094222194   -0.6841301784
 C    0.4038858624   -0.2770911025    1.3747600719
 C    0.6638810833   -0.8869748235    2.3829780451
 C    0.9855803780   -1.5558506506    3.6149326715
 C    0.8455563404   -3.0466547050    3.7300440500
 N    2.1629776705   -2.4379190857    3.7472950346
 C    3.0011772978   -2.6435570256    2.5736608310
 H    1.8097117974   -0.2390581917   -1.0107963050
 H    1.1061080585    1.2829055817   -1.5895984397
 H    2.0961346647    1.2611466122   -0.1157595911
 H   -0.3368818223    1.4153667222    0.4231863972
 H   -0.6062521364   -1.2878031311   -1.0001061218
 H   -1.8909041897   -0.4689078552   -0.0987901662
 H   -1.2418508444    0.2637295951   -1.5799164285
 H    0.8053860162   -0.9632393302    4.5095525121
 H    0.5061762680   -3.4877628408    4.6638328555
 H    0.5331681266   -3.5719062845    2.8287837492
 H    2.4420938065   -2.6773703111    1.6269500218
 H    3.7342345867   -1.8337884877    2.5090449087
 H    3.5412729299   -3.5874326789    2.6969530018