21

 C    0.7501198764   -2.1949857559   -1.4629319391
 C    0.2373307303   -1.3668260158   -0.2748151795
 C    0.9222356218    0.0065527917   -0.2118666242
 C   -1.2888391423   -1.2331550138   -0.3338764114
 C   -2.1619348479   -2.3374697385    0.1958283895
 N   -2.1457399085   -1.0455386111    0.8491823837
 C   -1.5656221864   -0.9367554529    2.1801552152
 C   -1.7696393228   -0.4972053969   -1.4929387444
 N   -2.1229586137    0.0761358724   -2.4329420206
 H    1.8365266849   -2.3124589923   -1.4049860214
 H    0.3005061213   -3.1925398574   -1.4789855272
 H    0.5160383220   -1.7042051627   -2.4131802894
 H    0.4724525717   -1.9156296332    0.6431493968
 H    0.7037790864    0.5928474047   -1.1102916224
 H    0.5902335897    0.5857337837    0.6546989067
 H    2.0077903082   -0.1117331666   -0.1433238917
 H   -3.0810197403   -2.6105875285   -0.3147524102
 H   -1.6327770619   -3.1648539380    0.6701696901
 H   -0.7241473347   -1.6173834671    2.3759590090
 H   -1.2330619787    0.0911632671    2.3489653601
 H   -2.3534451954   -1.1599948789    2.9058863904