18

 C   -0.0223885663    1.5155024404    0.1935061670
 C   -0.0555092834    0.0343609067    0.0266436368
 N   -1.0697381807   -0.7172260368    0.1845129734
 C   -0.6317542066   -2.0952915175   -0.0787193537
 C   -1.3756777536   -2.7465641258   -1.2733146086
 C   -0.3567750450   -2.7251078913   -2.3846952128
 C    0.8427044470   -2.2999585250   -1.9909490134
 C    0.8543561582   -1.9398647506   -0.5309064128
 O    1.1362622933   -0.5295522615   -0.3169416520
 H    0.7144352458    1.7942398538    0.9533612991
 H    0.2793194405    1.9952829996   -0.7428782193
 H   -1.0077881577    1.8739447569    0.4889195081
 H   -0.7523377058   -2.6881646703    0.8328223254
 H   -1.6918459776   -3.7723938041   -1.0445838315
 H   -2.2825546405   -2.1848176275   -1.5198157078
 H   -0.5979243268   -3.0446439478   -3.3932742718
 H    1.7233242164   -2.2076973301   -2.6156705260
 H    1.5909173129   -2.4970558291    0.0546231697