21

 O   -0.0676887145    1.3384789086    0.0589793783
 C    0.0239314865   -0.0699710981   -0.0068610972
 C    0.2112939075   -0.6435102461   -1.4598973119
 C   -1.1179523718   -1.3895926633   -1.3114131663
 C   -1.2583952331   -2.1716875494   -0.0201024631
 C   -0.1875456293   -2.9036236317    0.7755301053
 C    1.1530945583   -2.1547893945    0.8959896769
 C    0.9704743169   -0.6369421410    1.0538473446
 C   -1.3906144348   -0.6792634790    0.0169990210
 H    0.8249395730    1.6963513966   -0.0031003609
 H    0.1088865522    0.1847007731   -2.1654188014
 H    1.1119998788   -1.2145306730   -1.7057411006
 H   -1.8112873865   -1.5657077702   -2.1260289816
 H   -2.2225331752   -2.6759740010    0.0174568876
 H   -0.5965880535   -3.0652467919    1.7824175960
 H   -0.0150877265   -3.9019911533    0.3553503983
 H    1.7196218688   -2.5542951484    1.7437500193
 H    1.7629650813   -2.3498696286    0.0083051617
 H    1.9486903012   -0.1409324992    0.9774632236
 H    0.5658912444   -0.3901295121    2.0437325788
 H   -2.2657847736   -0.1419266575    0.3604361017