21

 O   -0.7793172975    0.3943857493    0.1969326510
 C   -0.1769997080    1.4368208614    0.1793230712
 C    1.2420997726    1.6116298259   -0.3209761729
 C    1.3424418059    2.7158142698   -1.3578014690
 C    1.4225879675    4.1714683543   -0.9378329764
 C    2.6166397147    3.4890734346   -1.5414218211
 C    3.9752447899    3.2858662269   -0.8516489108
 C    4.6423499652    4.0047804854   -2.0627278883
 C    3.3067576434    3.8848200772   -2.8547616464
 H   -0.6512508721    2.3802068065    0.5370177166
 H    1.8665515328    1.8712010257    0.5460270235
 H    1.5922055784    0.6498660070   -0.7092227433
 H    0.7802534074    2.5207997338   -2.2688834085
 H    0.8890089648    4.9072973998   -1.5313700748
 H    1.4500683216    4.3940513168    0.1254802212
 H    4.1089310803    3.7492475761    0.1295994338
 H    4.2619873535    2.2314936558   -0.7782040119
 H    4.8995417321    5.0423880506   -1.8377095016
 H    5.5164998259    3.5174479297   -2.4989004589
 H    3.3209392507    3.0711428654   -3.5872009525
 H    2.9436629008    4.7897958580   -3.3496798208