13

 O    0.2451218039   -0.0874058594    0.0795989572
 C    0.0638029297    1.0995816492    0.0725781808
 C    1.1978876311    2.0519502750    0.1628330611
 N    2.0607252921    2.8195219108    0.2230016412
 C   -1.2815373170    1.7902699966   -0.0572510425
 C   -1.6007219093    2.3105018349   -1.4890015885
 C   -2.7315660574    1.2603768093   -1.4329015759
 O   -2.3738701694    0.8817676944   -0.0814062748
 H   -1.3643534549    2.5425569841    0.7404669431
 H   -1.9218261468    3.3506598875   -1.5282993050
 H   -0.8270155934    2.1402671577   -2.2386617113
 H   -3.7511419006    1.6555330600   -1.4830800653
 H   -2.6307379981    0.4192022098   -2.1264469999