15

 C    0.0856252603    1.5857496122   -0.0709072860
 C   -0.0023596749    0.0726545879    0.0690675514
 O    0.6362011587   -0.5527907265   -1.0718730985
 C    1.4625667120   -1.6748066585   -0.7208042250
 C    1.6059309705   -1.5437310331    0.7607091291
 N    2.2530074534   -2.0608640090    1.7576320510
 O    1.7939346048   -1.3576414771    2.8589068734
 N    0.8545770191   -0.4034531696    2.5074818922
 C    0.7459086165   -0.5233916866    1.2213947301
 H    1.1291007016    1.9103307978   -0.0783761682
 H   -0.3866582503    1.8981334366   -1.0054035157
 H   -0.4298666235    2.0700424613    0.7634609065
 H   -1.0574351663   -0.2381773180    0.1013369551
 H    0.9773451884   -2.6200539131   -1.0018675251
 H    2.4089194995   -1.5982367143   -1.2656141303