21

 C   -0.0748669167    1.5660299768   -0.1332850360
 C   -0.0120928087    0.0442661895   -0.0268318628
 O   -1.2995595619   -0.5265278468   -0.1760784767
 C    1.1274005788   -0.5822600397   -0.8824093530
 O    1.5313327079    0.1903831749   -1.9902916622
 C    2.0139935195   -0.6394046880    0.3890745307
 C    0.7140974338   -0.5172253804    1.2294381911
 C    0.7340110261    0.2711759764    2.5217390102
 O    1.5163016883   -0.4639650959    3.4552458097
 H    0.9028286189    2.0318096574    0.0111826195
 H   -0.4170289028    1.8549667938   -1.1329569248
 H   -0.7739604397    1.9674062142    0.6060300868
 H   -1.7161760699   -0.1262418678   -0.9473253655
 H    0.8153336594   -1.5913432780   -1.1857199431
 H    2.2567384121   -0.2645253960   -2.4291974510
 H    2.6377994164   -1.5211131893    0.5431376757
 H    2.6346065983    0.2584609835    0.4697481245
 H    0.3041755079   -1.5106755703    1.4344917388
 H    1.1624791198    1.2715884020    2.3530477344
 H   -0.2965749945    0.4097960489    2.8869936126
 H    1.5468868573    0.0337298547    4.2774839211