17

 O   -0.2913130774   -0.0710225357    0.4240708173
 C   -0.1316330851    1.0861869769    0.1838406502
 C   -1.0534978477    2.2594150105   -0.0894740934
 N   -0.6300993506    3.2993893105    0.9107526122
 C    0.1300689725    3.1499331630   -0.3386685681
 C    1.1217571800    1.9672847400   -0.1519951232
 N    2.2760182883    1.9381540266    0.7025839109
 C    3.1538674203    3.1044883446    0.7227311895
 C    2.3233610502    2.7574304937    1.9110708238
 H   -2.0482713518    2.2782776689   -0.5145651441
 H   -1.2769890394    4.0797784271    0.7942680220
 H    0.1956323247    3.9508019939   -1.0641689267
 H    1.4391543497    1.6406518381   -1.1533385728
 H    4.2195498017    2.8930128840    0.7066744490
 H    2.8555854337    3.9813548582    0.1502656232
 H    1.4714587358    3.3884171311    2.1361897775
 H    2.7835132453    2.2710615185    2.7667696326