20

 C   -0.2224336634    1.5006090371   -0.0266750400
 C    0.0604965333   -0.0029781626   -0.0046059707
 C    0.7862148970   -0.4596092159   -1.2611695726
 O    1.1472788156   -1.8438961397   -1.2109555974
 C    1.4307402791   -2.4768989930   -0.0384553503
 N    1.9488689030   -3.6281442444   -0.0010782281
 O    1.0665757717   -1.8913505267    1.1207403696
 C    0.8802509168   -0.4664522430    1.2041882187
 C    2.2294918922    0.2205175725    1.4145392133
 H    0.6955152227    2.0855021008   -0.1405883295
 H   -0.8856508755    1.7570435908   -0.8587031501
 H   -0.7124834202    1.8207423814    0.8982806587
 H   -0.8933920666   -0.5425994746    0.0461829054
 H    0.1561908451   -0.3512629760   -2.1485614599
 H    1.6950655331    0.1353159371   -1.4246282979
 H    2.1055524571   -3.9564690006   -0.9518491132
 H    0.2804788945   -0.3414978606    2.1113279835
 H    2.8783561075    0.1336374279    0.5377542925
 H    2.0964502356    1.2820138691    1.6418323215
 H    2.7426654613   -0.2493612097    2.2569610865