18

 C    0.1639700411    1.3699538455    0.1659186945
 O   -0.1355166381    0.0105796369   -0.1082018834
 C    0.5750154733   -0.5335370639   -1.1920893950
 C    2.0184683650   -0.6388675103   -0.8743335203
 N    3.1362876279   -0.6837478993   -0.5858345237
 C   -0.0395811942   -1.9222112049   -1.5094178586
 C   -1.5410643989   -1.7905296167   -1.8271638837
 C    0.6870203788   -2.5571207662   -2.6047679239
 C    1.2678940572   -3.0613067109   -3.5276589193
 H    1.2132991370    1.5008045535    0.4599894170
 H   -0.0444922542    2.0069355726   -0.7058843728
 H   -0.4816367482    1.6703380235    0.9928822120
 H    0.4794151471    0.1058271742   -2.0849573535
 H    0.0778774024   -2.5274237787   -0.6018709175
 H   -1.6928066307   -1.1867336926   -2.7271772043
 H   -1.9702257120   -2.7786504662   -2.0072047859
 H   -2.0619682376   -1.3194440184   -0.9925420206
 H    1.7955565842   -3.5167419181   -4.3291075509