20

 O    0.4186963904    0.9401304502    1.4230238245
 C    0.1521176174    1.4479052101    0.3538495738
 N    0.9858241517    1.4891454423   -0.7185797480
 C    2.3318860608    0.9355058856   -0.6864651604
 C    3.4059635763    1.9383692126   -0.2281401256
 C    4.8237035497    1.3041428662   -0.1784448863
 C    5.8000962327    2.3939149736   -0.6923799594
 C    4.8867451167    3.3618587616   -1.4059651780
 C    3.6023393163    3.1218153663   -1.1501688673
 H   -0.8226009310    1.9304187681    0.1383631767
 H    0.6722990444    1.9699931280   -1.5458419474
 H    2.3104638825    0.0864746853    0.0020137637
 H    2.5756721888    0.5601153287   -1.6865188933
 H    3.1003939763    2.2891892873    0.7675737870
 H    5.0807521414    0.9373457811    0.8178941496
 H    4.8543046591    0.4410903226   -0.8542698597
 H    6.3226326806    2.8967101247    0.1334935222
 H    6.5823993726    1.9849090597   -1.3418894740
 H    5.2614174945    4.1771848053   -2.0156757060
 H    2.7726882485    3.7191060707   -1.5144288321