14

 O   -0.0394995122    1.4463334312    0.0588381882
 C    0.0194837229    0.0301377282   -0.0077675998
 C   -1.3766467889   -0.4985658072   -0.0044593590
 C   -2.5398178709    0.2020730853    0.0503677321
 O   -3.6132781420   -0.6269001179    0.0336600787
 C   -3.1318481121   -1.9050262799   -0.0341603050
 C   -1.7708059400   -1.8766885291   -0.0596174946
 O   -0.8620175340   -2.8893357247   -0.1237048283
 H    0.8610567189    1.7819018395    0.0560705722
 H    0.5423711461   -0.3086765776   -0.9174958357
 H    0.5773875059   -0.3901655895    0.8454003571
 H   -2.7469586675    1.2565433623    0.1026029701
 H   -3.8624994059   -2.6957347403   -0.0558839393
 H   -1.3266097404   -3.7316249902   -0.1528983367