15

 N   -0.1079824405    0.7818220241    1.1212661372
 C   -0.0398494925   -0.0903801548    0.1950421082
 N   -1.1972044338   -0.3750660475   -0.5178351021
 C   -1.4546506673   -1.3422384481   -1.4730255620
 C   -0.7746181781   -2.4863098046   -1.5964172454
 C    0.2942993618   -2.8237965671   -0.6123274878
 O    1.4332418585   -1.9265294571   -0.6821322543
 C    1.3228330050   -0.6742991003   -0.2218319433
 O    2.3011870314    0.0132486308   -0.1020380257
 H    0.8301512416    0.9732049173    1.4713320537
 H   -1.9407222724    0.2691228761   -0.2861341561
 H   -2.2776080229   -1.0908080113   -2.1342520847
 H   -0.9914235155   -3.1592340547   -2.4149805777
 H   -0.0937317428   -2.8017958141    0.4148760676
 H    0.7231616676   -3.8089242085   -0.7930255276