23

 C   -0.0815409453    1.5531735681   -0.0167044663
 C    0.0217646837    0.0229764975    0.0437935845
 C    0.8942573229   -0.4103586014    1.2313061041
 C   -1.3840431987   -0.6029669517    0.0784286413
 C   -1.4151013043   -2.1250952768   -0.0604673938
 N   -2.7941562755   -2.5996448104   -0.1768438461
 C   -2.8821532700   -4.0520026013   -0.2461143078
 C   -4.2772050805   -4.4961956518   -0.3164754019
 N   -5.3764161142   -4.8492387956   -0.3482470565
 H    0.9092406591    2.0140663978   -0.0842562216
 H   -0.6651898652    1.8805900311   -0.8832518364
 H   -0.5698733175    1.9483404710    0.8821933147
 H    0.5135642234   -0.3165173058   -0.8795949531
 H    1.8770058351    0.0704347880    1.1877000220
 H    0.4282746087   -0.1233652069    2.1819882308
 H    1.0595218419   -1.4916010867    1.2542272327
 H   -1.8808998548   -0.3144827452    1.0169576850
 H   -1.9896489489   -0.1822128424   -0.7327589126
 H   -0.8829002009   -2.4215769670   -0.9750176449
 H   -0.8809682238   -2.6027695075    0.7806823010
 H   -3.3393725238   -2.2674284147    0.6128997608
 H   -2.3663937253   -4.3935313012   -1.1527071768
 H   -2.4010351562   -4.5782182069    0.5999588712