18

 C    0.0084123404    1.5209717062    0.0420675542
 C   -0.0471521405   -0.0024504378    0.0541675726
 N    0.6746054004   -0.5317208347    1.2032754357
 C    0.8631554912   -1.8718449557    1.3457355656
 N    0.6671720552   -2.7469542318    0.3816125277
 O    1.0542566352   -3.9647505399    0.9971673457
 C    1.4127612233   -3.6671291871    2.2472205267
 C    1.8608182887   -4.7773082367    3.1290646083
 N    1.3209113527   -2.4045859669    2.5364806571
 H    1.0426211283    1.8748817605    0.0007906367
 H   -0.5277730911    1.9137728506   -0.8258714650
 H   -0.4607033336    1.9415689508    0.9392090362
 H   -1.0920218269   -0.3487871085    0.0460810812
 H    0.4207497768   -0.4112688214   -0.8468965797
 H    0.5673697924   -0.0415498645    2.0784834367
 H    1.0736071768   -5.5303995135    3.2300439355
 H    2.7395392799   -5.2730188926    2.7056316138
 H    2.1098021511   -4.3793553570    4.1124378610