16

 C   -0.0559538854    1.5381839431    0.0224322400
 C   -0.0099685841    0.0364195313   -0.0261802670
 C   -0.0058885867   -0.6599414363   -1.1888446371
 C    0.0145168533   -2.1162838354   -1.2197313144
 O    0.0161674604   -2.8228484185   -2.2165289195
 N    0.0290523559   -2.6622561994    0.0571271075
 N    0.0516541248   -2.0209978903    1.2450521118
 C    0.0180193099   -0.7198323445    1.2107638009
 N   -0.0697624940   -0.0460497203    2.4305069778
 H    0.8584026040    1.9524887771    0.4670321828
 H   -0.1574075398    1.9601077604   -0.9793245529
 H   -0.8950870351    1.8810346722    0.6371017426
 H   -0.0284797790   -0.1628454705   -2.1522178367
 H    0.0431973396   -3.6706674104    0.1192857463
 H    0.0906744916   -0.6687051091    3.2120659721
 H    0.5024802845    0.7845887608    2.4965528958