19

 N   -0.1992105278   -1.1335046969    0.1340424618
 C   -0.1121849990    0.0196815127    0.1289300527
 C    0.0091703240    1.4557987513    0.0701344351
 N    0.6786666460    2.1181542178    1.2104498544
 C    1.3415173903    2.1270413091   -0.0944558416
 C    2.6638689081    1.3587545547   -0.2091765735
 C    3.4420684179    2.0859798853   -1.3230487975
 C    2.9639449367    3.5447767993   -1.2102654761
 C    1.4538940989    3.4005191491   -0.9455939885
 H   -0.8493498046    1.9472600042   -0.3816643882
 H    0.2145724365    3.0056828439    1.3931338413
 H    3.1890611705    1.4390604411    0.7480641680
 H    2.5149658380    0.2945833403   -0.4075939915
 H    4.5246806707    1.9784047261   -1.2203759829
 H    3.1658296433    1.6816722933   -2.3042302286
 H    3.4497152420    4.0311102167   -0.3559275014
 H    3.1824688549    4.1445331149   -2.0974907342
 H    0.9221080593    3.2629935748   -1.8944030740
 H    1.0111321044    4.2705310122   -0.4495310852