16

 C    0.0100902194   -1.2218583270   -0.0039182798
 C   -0.0328095415   -0.0212089871    0.0030836235
 C   -0.0324189578    1.4346851461    0.0111570508
 C    1.4046575907    2.0019124970   -0.0015955987
 N    1.4261408838    3.4546398680    0.0062728142
 C    1.3903859429    4.3059459095   -1.0639344004
 N    1.3691349266    5.5533505527   -0.6722558699
 N    1.3859349617    5.5456017088    0.7094823703
 C    1.4165478313    4.2938893845    1.0865098433
 H    0.0273858355   -2.2838297610   -0.0101359886
 H   -0.5775473234    1.8200947722   -0.8587743133
 H   -0.5580868012    1.8104034730    0.8971527398
 H    1.9546754935    1.6405641504    0.8706569031
 H    1.9352564009    1.6502564486   -0.8896983185
 H    1.3921020876    3.9617131260   -2.0870524546
 H    1.4430661101    3.9381830984    2.1053529088