25

 C   -0.1168699155    1.6272383210    0.0881887681
 C    0.0051871915    0.1041462778   -0.0152469653
 C   -1.3561514826   -0.5889933429   -0.1365167341
 C   -1.3276312599   -2.1331471423   -0.0402628920
 C   -0.4223586950   -2.7457442085   -1.1116794991
 O   -0.7307313097   -2.5282242031    1.2078505454
 C   -2.7675059045   -2.6446074700   -0.0903056806
 C   -3.4366563100   -3.1811253322   -1.3323822488
 C   -3.1117291717   -4.1077204922   -0.1884369868
 H    0.8665567007    2.1012376100    0.1682460186
 H   -0.6179718580    2.0486296200   -0.7908651936
 H   -0.6995051584    1.9201193865    0.9691292280
 H    0.6316028412   -0.1475716197   -0.8791965677
 H    0.5197930816   -0.2927634553    0.8664088016
 H   -2.0110958132   -0.2202068003    0.6670482364
 H   -1.8453773821   -0.3028988377   -1.0771131874
 H    0.6166937860   -2.4815050536   -0.9052316637
 H   -0.4865750130   -3.8368175705   -1.1087716714
 H   -0.6803253138   -2.3795284121   -2.1087777994
 H   -1.3643806544   -2.3370708607    1.9076054552
 H   -3.4240066850   -2.0666636038    0.5594371738
 H   -4.4729441638   -2.9150765433   -1.5099136859
 H   -2.8446393825   -3.2743626116   -2.2355695966
 H   -2.3020944713   -4.8158613676   -0.3219411164
 H   -3.9255542665   -4.4811625377    0.4234776014