15

 O   -0.1009239654    1.4154701328   -0.0664062640
 C    0.0317863937    0.0123480498    0.0579444759
 C    0.5936343279   -0.5926996476   -1.1649442158
 N    1.0698828124   -1.0216828835   -2.1262184162
 C    0.8714622228   -0.3653894324    1.2888513046
 C    0.2301062705   -0.0442610897    2.6526038573
 C    0.2555884643   -1.5742210559    2.8555575465
 O    0.8408414292   -1.7781453702    1.5453863316
 H    0.7534107810    1.7819033249   -0.3231380124
 H   -0.9818393016   -0.3780195548    0.1981824469
 H    1.8982897994    0.0020254618    1.1502519735
 H    0.8522352918    0.5332430974    3.3362695445
 H   -0.7583987155    0.4139188455    2.5950084776
 H    0.9163876048   -1.9355621355    3.6510011453
 H   -0.7175178454   -2.0691634426    2.9465796946