22

 C    0.0177498898    1.4542953452   -0.1821089992
 N    0.0016770073    0.0058169678   -0.0220178057
 C   -1.2288014034   -0.5272464198    0.6723376718
 C   -0.9508058484   -2.0320925264    0.5277564441
 C    0.3228892144   -1.9994278153    1.4121575855
 C    1.3486239504   -3.0967656697    1.2646121723
 C   -0.3017852912   -1.6132691536    2.7842729801
 C   -0.5876955165   -0.2656380461    2.1082533867
 C    0.6734649402   -0.4483468570    1.2182887130
 H    1.0173328617    1.7694394765   -0.5008487169
 H   -0.6872939499    1.7365905936   -0.9711697940
 H   -0.2411956172    2.0259138038    0.7265027513
 H   -2.1925271168   -0.1214575853    0.3635516290
 H   -1.7238809847   -2.6851588829    0.9436693716
 H   -0.7652633659   -2.2936009753   -0.5156878070
 H    1.7429031298   -3.1299846575    0.2429779134
 H    2.1932705250   -2.9515750779    1.9471403501
 H    0.9112000273   -4.0782392248    1.4832949764
 H   -1.1282694633   -2.2254799745    3.1596736404
 H    0.4546175500   -1.4969982528    3.5678718238
 H   -0.8475888558    0.6410049324    2.6505272327
 H    1.6806450673   -0.0984221502    1.4492175807