16

 N   -0.1061291240    1.3139165313    0.0102409164
 C    0.0528867621   -0.0396311876    0.0010578793
 O    1.1475391359   -0.5713748093   -0.0125218285
 C   -1.2481073715   -0.8358002771    0.0087984773
 C   -0.9767096833   -2.3312026515   -0.0020817635
 O   -2.2480601609   -2.9863564249    0.0063000610
 C   -2.2188595071   -4.3318004791    0.0003631175
 N   -3.2978100746   -4.9874153477    0.0066483225
 H    0.7173055492    1.8927621628    0.0056303243
 H   -1.0097830752    1.7526748695    0.0213753608
 H   -1.8401991350   -0.5731508794    0.8933457874
 H   -1.8565930131   -0.5633162606   -0.8615358172
 H   -0.4047580627   -2.6098739003   -0.8940415543
 H   -0.3879890890   -2.6196636790    0.8757413123
 H   -1.2022751458   -4.7498590637   -0.0102087043
 H   -3.0949737148   -5.9849677534    0.0005533091