19

 C    0.2742842439    0.8834233765   -0.4062061198
 O   -0.4091218565   -0.0609219078    0.3938947021
 C    0.4074194278   -0.6646121818    1.3333427456
 C    0.1049736113   -2.0303942618    1.8401291033
 O   -0.4791683006   -2.8651928916    0.8424999408
 C    0.7079340248   -2.7445242668    0.0423315423
 C    1.2886040350   -3.9344715976   -0.6439813743
 C    0.6659031391   -2.7958731726   -1.4451595636
 C    1.3719482782   -1.7941310560    1.0085370371
 H    1.1050443693    0.4204459653   -0.9569281987
 H   -0.4503182340    1.2842376512   -1.1183890193
 H    0.6762143570    1.7116609351    0.1974383588
 H    0.8000998805    0.0078170449    2.1020131083
 H   -0.0631386666   -2.2985030871    2.8771016265
 H    2.3678789126   -4.0492649594   -0.6548089469
 H    0.7310703927   -4.8621187912   -0.5747275003
 H   -0.3026311214   -2.9780408889   -1.8974753783
 H    1.3166925798   -2.1384109954   -2.0119841485
 H    2.4198294471   -1.7984928451    1.2796440948