17

 O   -0.5652286142    1.1984049096    0.8033751844
 C   -0.0369986471    0.0917993166    0.1010335704
 C    0.5489057227   -1.0255342779    1.0248516202
 C   -0.7842732252   -1.7568415180    0.8747445734
 C   -1.2029863391   -0.8561315068   -0.2893376113
 O   -0.9611429493   -3.1533420433    0.9310826904
 C   -1.6284875674   -2.3476285751    1.9308356205
 C   -1.1678432555   -2.4634709144    3.2863834752
 C   -0.7957008475   -2.5383809363    4.4272549617
 H    0.1673978989    1.6684793324    1.2146181016
 H    0.6130079737    0.4121735487   -0.7221558475
 H    1.3698810545   -1.5782331985    0.5587992555
 H    0.8371701997   -0.7227531082    2.0346387391
 H   -2.1971557100   -0.4064772018   -0.2600236720
 H   -1.0457676204   -1.3462911675   -1.2539188191
 H   -2.7094750014   -2.2979949904    1.8046416916
 H   -0.4682182226   -2.6151024990    5.4346704159