17

 C   -0.0158857207    1.5563493976   -0.2073116550
 C    1.4805787923    1.8175810977   -0.0118953133
 C    2.0851915972    0.8003059468    0.6169214459
 C    1.0111747722   -0.1814445455    0.9091328050
 C    0.5156646851   -1.6373491181    1.1467797728
 N    0.5749530078   -1.5145938180    2.6349571621
 C    0.0552093818   -0.1808332155    2.1987795236
 C   -0.7614037793   -0.7061623952    0.9750070705
 N   -0.0548116094    0.0879467875   -0.0794766394
 H   -0.5873873630    2.0998083553    0.5671037368
 H   -0.3920318690    1.8839902096   -1.1819776133
 H    1.9540946970    2.7445166348   -0.3140577878
 H    3.1167880785    0.7454899642    0.9342448334
 H    0.7712627866   -2.5390281094    0.5902480904
 H   -0.1797040115   -2.0622072881    3.0574729798
 H   -0.1675538507    0.6209668454    2.9040308114
 H   -1.8094293051   -1.0082089391    0.9166519772