18

 C   -0.0712268563    1.5749739336    0.0468012897
 C    0.0353500495    0.0424643947    0.0386522576
 N    0.8088254700   -0.4610998120   -1.0760367714
 C    1.8640419681   -1.2699258675   -0.7003548719
 O    2.6298900940   -1.8417170254   -1.4472064017
 C    1.8292420650   -1.2685646983    0.7901875154
 C    0.7988946534   -0.5351002547    1.2190030518
 C    0.3806939781   -0.2775839500    2.6287256387
 O    1.2225105620   -1.0002090227    3.5032917953
 H    0.9235777824    2.0263363898    0.0968896356
 H   -0.5656046677    1.9286577206   -0.8631852784
 H   -0.6616902620    1.9224241045    0.9005697327
 H   -0.9840441676   -0.3775633186    0.0278533759
 H    0.5494018668   -0.3447607757   -2.0408415354
 H    2.5448324010   -1.8049068785    1.3940474430
 H    0.4253686342    0.8071339853    2.8298633841
 H   -0.6782553048   -0.5682060450    2.7502192162
 H    0.9721640640   -0.7885372801    4.4069323529