23

 C    0.0233259962    1.4307073488    0.1382255048
 O    0.3576456533    0.0637135196    0.1015332442
 C    0.7648513665   -0.4995770795   -1.1225020745
 C    0.4769089500    0.1566000900   -2.4513936019
 C    1.8970685429    0.1133296675   -1.9101152040
 C    0.7053848368   -2.0020596124   -1.0611606316
 C    0.6906604036   -2.7517761805    0.2488918835
 C   -0.5190772431   -2.7986450869   -0.6554164989
 C   -1.8333038732   -2.1632799769   -0.2560436344
 H    0.8435246991    2.0779115914   -0.2035088736
 H   -0.8738773814    1.6564860315   -0.4540063368
 H   -0.1826560646    1.6668175009    1.1850883575
 H    0.2102289145   -0.4903404339   -3.2803130020
 H   -0.0100173455    1.1242378578   -2.4769188012
 H    2.3180625050    1.0504994170   -1.5624536616
 H    2.6207618006   -0.5510199285   -2.3697254698
 H    1.2933048946   -2.4537305658   -1.8554917206
 H    1.3133576146   -3.6342890873    0.3506345111
 H    0.6086624619   -2.1487943337    1.1454981760
 H   -0.6376368160   -3.7259079493   -1.2123084092
 H   -1.6705479464   -1.2482522365    0.3153083221
 H   -2.4350758928   -1.9098148874   -1.1366610216
 H   -2.4241468064   -2.8518946658    0.3589150524