15

 O    0.4185203012    0.7896052584    0.7419520347
 C   -0.1500651487   -0.2358509056   -0.0196563143
 C   -1.6068637976    0.0233587006   -0.4207836056
 C   -1.7181950132   -0.8035221227   -1.7202840667
 O   -0.4005259822   -0.7793392137   -2.3098251399
 C    0.5164220867   -0.3911772905   -1.3736243797
 N    1.7325998716   -0.1441365760   -1.5757137354
 C   -2.1295384155   -2.1963658070   -1.4806657750
 N   -2.4698608450   -3.2824373034   -1.2838002643
 H    1.3305213156    0.8788576548    0.4276004948
 H   -0.0819055687   -1.2047694082    0.5040725568
 H   -2.3394604947   -0.2716693240    0.3298685946
 H   -1.7300635894    1.0850507667   -0.6496665515
 H   -2.4048598695   -0.3608220851   -2.4456099072
 H    2.0094149093   -0.2686295044   -2.5489474412