19

 O    0.1927412404    1.4503598291   -0.0486032776
 C    0.0738083838    0.0435502783   -0.0689255675
 C    0.6841556701   -0.6453385934    1.2179791110
 C   -0.4802350577   -1.0872149138    2.1794637377
 C   -1.6948524278   -0.6427141594    1.4134527157
 C   -3.1965127700   -0.8385079657    1.0993061214
 C   -2.6379823565    0.3487423297    0.2513689510
 O   -1.9656883061    0.8438862447    1.4743121460
 C   -1.3750849790   -0.4912909380   -0.0804762345
 H   -0.4250307595    1.7397293979    0.6388241052
 H    0.6229070931   -0.2831331817   -0.9564054498
 H    1.2745990433   -1.5206417596    0.9302599494
 H    1.3683494280    0.0618528313    1.6921643777
 H   -0.4898844232   -2.1715844787    2.3245776762
 H   -0.4247745495   -0.6186761967    3.1652709553
 H   -3.4882904171   -1.7536432571    0.5786400776
 H   -3.8948963679   -0.5472898073    1.8842778254
 H   -3.1862643989    1.0764254656   -0.3469531145
 H   -1.5237926155   -1.3753865351   -0.7067535557