13

 O   -0.9068337086    0.8147046367    0.3317752461
 C    0.1140155080    0.8737772681   -0.2944713508
 C    1.2541440366    1.8520164626    0.0334183237
 C    1.1834178508    2.4939023190    1.4334409861
 C    2.3723100964    1.5879548922    1.7378321423
 O    3.0910737777    1.3417261454    2.6460321678
 O    2.4139747816    1.0355417457    0.4682540696
 C    1.5530272618    2.6873820961   -1.1075442014
 C    1.7425168643    3.3600094237   -2.0853048795
 H    0.3330952579    0.2128825851   -1.1565589148
 H    1.4018172861    3.5601006874    1.4808495305
 H    0.2707595172    2.2588900751    1.9823139453
 H    1.9265565401    3.9639518028   -2.9405676650