17

 N   -0.5650777034    0.9138095147   -0.8293465725
 C   -0.3921198802   -0.2260875340   -0.3372515578
 O    0.7277640369   -1.0246334150   -0.2801162054
 C    0.0142690553   -2.0422816881    0.4918578737
 C   -1.2822061188   -1.2100320081    0.4082021796
 N   -1.7807023916   -0.7154400212    1.6817525696
 C   -2.8871532694    0.2451054218    1.5348484538
 C   -4.1209688920   -0.3284820424    0.9841555970
 C   -5.1112278570   -0.8509318215    0.5442772167
 H    0.2961455610    1.2838412943   -1.2355661470
 H    0.0188308468   -3.0024632461   -0.0282287807
 H    0.4328295109   -2.1333757641    1.4966475810
 H   -2.0545331598   -1.6536195325   -0.2376379320
 H   -2.1082516946   -1.5051497295    2.2317880172
 H   -3.0909758277    0.6767392109    2.5211400306
 H   -2.5356862203    1.0610295439    0.8947109749
 H   -5.9941859562   -1.2900029833    0.1502025012