17

 O    0.0085729083    0.0021622490    0.3530701276
 C    0.0204818721    1.1761460993    0.0864643997
 O   -1.1730324823    1.8113657519    0.0088101033
 C   -1.3689490214    3.2178687847   -0.2288871400
 C   -0.8225941635    3.7306374995   -1.5332914979
 C    0.4460732266    3.6187333234   -1.9294205480
 C    1.5583124697    2.9909856611   -1.1812994431
 C    1.7603559461    3.2279100228    0.2965133288
 C    1.3293327760    1.8593055000   -0.1752735660
 H   -2.4557473273    3.3213780232   -0.2185239151
 H   -0.9929828226    3.7851893533    0.6302424335
 H   -1.5363289410    4.2176211751   -2.1903526069
 H    0.7158020904    4.0127245928   -2.9059437386
 H    2.4676945163    2.8727846545   -1.7603138572
 H    2.7772619340    3.3108687662    0.6625221261
 H    1.0557494634    3.8643423036    0.8131989634
 H    2.1058209851    1.1044538596   -0.1598536497