21

 C   -0.0250106680    1.5312214494   -0.1920352465
 C    1.4017995676    2.0816310285   -0.0198830066
 C    2.1097652288    1.4861524720    1.2081269822
 C    1.5179414487    1.8935579991    2.5616650872
 O    0.2091567899    1.3721256844    2.7443141593
 C    0.1823025880   -0.0366986649    2.5635958347
 C    0.7708872890   -0.4487843737    1.2100621499
 C   -0.0370518468    0.0022109977   -0.0178034193
 O    2.1088939563    0.0559842993    1.1229734886
 H   -0.6881969781    1.9908491922    0.5445309491
 H   -0.4095669892    1.7963234423   -1.1831860437
 H    2.0041980775    1.8196352672   -0.8981479053
 H    1.3929728986    3.1757913520    0.0475016583
 H    3.1661691259    1.7779888773    1.1970665738
 H    2.1836827742    1.5262683725    3.3600663332
 H    1.4358083195    2.9814622113    2.6494345124
 H    0.7614147223   -0.5291869921    3.3621210822
 H   -0.8646549070   -0.3431535492    2.6527608323
 H    0.8701040344   -1.5402704326    1.2003844894
 H   -1.0640463657   -0.3750783381    0.0510518522
 H    0.4196270449   -0.4703774636   -0.8958578135