12

 O   -0.0383495454    1.3439159155    0.0094445846
 N    0.0854956275   -0.0257992178    0.0009224502
 C   -1.0715232529   -0.6165301115    0.0088397238
 C   -1.0771634313   -2.0433962060    0.0012513452
 C   -1.1331585439   -3.2446282641   -0.0046459828
 C   -2.3212360857    0.0595484729    0.0244281229
 C   -3.3939813459    0.6245053029    0.0377266123
 C   -4.5963563169    1.2530131454    0.0526068505
 C   -5.6665315211    1.8133195811    0.0658593556
 H    0.8801167849    1.6389786147    0.0022274288
 H   -1.1715600142   -4.3061091023   -0.0099657224
 H   -6.6079961651    2.3046411793    0.0775058515