12

 N   -0.7216565411   -0.3018749290   -1.3367962945
 C   -0.2954186029    0.3057713231   -0.4521792312
 C    0.2653643162    1.0832044504    0.6486509250
 C    1.5259098779    1.8409458443    0.2844695766
 C    2.1358624490    1.8326042251   -0.9666161881
 N    3.2407692745    2.5365935802   -1.1719938631
 N    3.7430111299    3.2411265201   -0.1630853948
 N    3.1689683134    3.2511102695    1.0206024190
 N    2.0626348716    2.5595119218    1.2642740667
 H   -0.4822117744    1.7975187875    1.0121808630
 H    0.4850275452    0.4193999951    1.4926797544
 H    1.7474199905    1.2664472719   -1.8078127731