16

 C    0.0509905667   -1.1902632661   -0.0089334670
 C    0.0531250377    0.0118569203    0.0266498205
 C    0.0564621709    1.4455960359    0.0724113803
 C    0.4873032877    2.2458861529    1.2784246884
 C    1.6024025645    1.5324115574    2.0484827218
 C    2.4853372878    1.5335202085    0.7583358669
 C    1.3534859021    2.2579031002    0.0065889336
 C    1.5256520343    3.2855599694   -0.9661354335
 N    1.6760426993    4.1230576114   -1.7515111412
 H    0.0414532359   -2.2516115516   -0.0485219165
 H   -0.7491965328    1.9198677498   -0.4818945653
 H   -0.1431695692    3.0427334021    1.6530281925
 H    2.0273733782    2.1517788348    2.8394273979
 H    1.3360758686    0.5553841320    2.4577472303
 H    3.3739146804    2.1571371817    0.8594848797
 H    2.7652928478    0.5620027213    0.3461113417