22

 C    0.0134364706    1.5298657602    0.1813172343
 C    0.0174168309    0.0491787638   -0.2185442895
 C   -1.3655643374   -0.5673064023   -0.1313428559
 C   -1.6021470540   -2.0645532287    0.0280826243
 C   -0.4594845557   -3.0551987907    0.1069274125
 C   -1.8947809614   -1.1045859291    1.1673443595
 O   -1.0311133790   -1.0493862891    2.2616299653
 C   -1.4015696849   -1.9336190021    3.3002507070
 H    1.0113306606    1.9694749809    0.0843296830
 H   -0.6689985104    2.1108913693   -0.4494241036
 H   -0.3095873066    1.6448997645    1.2203434553
 H    0.3936795221   -0.0569125874   -1.2442876701
 H    0.7117913124   -0.4925070495    0.4281607049
 H   -2.1037979739   -0.0494099066   -0.7409126771
 H   -2.4798762064   -2.4440785182   -0.4900474195
 H    0.3118509314   -2.7250745716    0.8059300243
 H   -0.8182288027   -4.0327826211    0.4474031411
 H    0.0116650534   -3.2011835373   -0.8714430392
 H   -2.9381582925   -0.9161913116    1.4278387268
 H   -1.3915790470   -2.9814309425    2.9695106354
 H   -0.6767253801   -1.8052805301    4.1078448211
 H   -2.4066814294   -1.7021962308    3.6849254001