21

 C   -0.0019216338    1.4117078640    0.2265957677
 O   -0.0843871252    0.0157637711    0.4194884632
 C   -1.3060938604   -0.5881636373    0.0468257240
 C   -2.4891903194   -0.1069919418    0.8847126398
 C   -1.6045355196   -0.6760937388   -1.4916714721
 C   -1.8466672183   -2.2090553424   -1.3426838398
 C   -1.1867286121   -2.1186321097    0.0323746043
 C   -0.1134033237   -2.9209355996    0.6114099012
 O   -1.4515049329   -2.9546980447    1.1407132104
 H    1.0357324049    1.6956247230    0.4190288527
 H   -0.2581027196    1.6998815744   -0.8036900761
 H   -0.6485935570    1.9730540149    0.9148240042
 H   -2.7026875337    0.9516812668    0.7099555908
 H   -3.3911099621   -0.6730024848    0.6342767375
 H   -2.2798138780   -0.2589603385    1.9470224253
 H   -2.4375784572   -0.0802775946   -1.8694016884
 H   -0.7061841684   -0.4579112090   -2.0731198630
 H   -2.9070880373   -2.4659680352   -1.2704853050
 H   -1.3760791827   -2.8634237004   -2.0789952266
 H    0.2091515768   -3.8321855359    0.1088377228
 H    0.6267596596   -2.4395380714    1.2461412669