20

 C   -0.1800943636    1.5696091137    0.0118647829
 C    0.0063369461    0.0526937773   -0.0507730584
 C    0.7714573229   -0.4073340884   -1.3003523904
 O    2.1769745301   -0.3012685543   -1.1036375778
 C    2.5619730802   -0.7300359924    0.1704643846
 C    1.5891263169   -1.6328559078    1.0048148609
 C    2.3261368681   -1.1553771110    2.2711471182
 C    2.0920746099    0.0954614835    1.3998891009
 N    0.6664338588   -0.4240452442    1.1884977630
 H    0.7729387455    2.0910917933   -0.1227859300
 H   -0.8587924553    1.9055697611   -0.7779606553
 H   -0.6013019242    1.8631848725    0.9775412768
 H   -0.9848141707   -0.4194285486   -0.0690474983
 H    0.5171042926   -1.4535754511   -1.5278229424
 H    0.5281183065    0.1966524619   -2.1794125622
 H    3.6182669417   -1.0126089547    0.1199340090
 H    1.2009566696   -2.6294258707    0.7877618134
 H    1.7350161039   -1.1963207530    3.1854356046
 H    3.3579945398   -1.4854020047    2.4050242277
 H    2.2935045911    1.1386744775    1.6448494926