18

 C    0.0252416420    1.4422145828    0.0576128728
 C    0.0208386004   -0.0387164722   -0.0875034236
 N   -0.0287853830   -0.7064760756   -1.1741248030
 C   -0.0407688496   -2.0986259146   -0.8022405104
 C    0.0376209735   -2.1103882120    0.7237036499
 O    0.0786126480   -0.7417337475    1.0881151345
 C   -1.2042974684   -2.6138889462    0.0472850019
 C   -2.5474266004   -1.9348428111    0.1284490196
 O   -1.2417465059   -4.0162488577    0.1360204535
 H    0.8835958997    1.7609010879    0.6569629577
 H    0.0694614891    1.9043106290   -0.9280349006
 H   -0.8774033975    1.7810679991    0.5765634651
 H    0.4729215260   -2.7969542602   -1.4533268811
 H    0.6355126296   -2.7562179236    1.3537774993
 H   -2.4697969731   -0.8518839266    0.0225145063
 H   -3.1994971347   -2.2974958568   -0.6748789105
 H   -3.0275479243   -2.1602076307    1.0855073877
 H   -1.5962839214   -4.3548871241   -0.6944632990