19

 C    0.0389513800    1.4479228591   -0.2385603583
 C    0.0040327274   -0.0194216531    0.2166750395
 O    0.4741720953   -0.1245813867    1.5489850370
 C   -1.3747518203   -0.6148594199    0.0782133917
 N   -2.1110436565   -0.7826102755    1.1729232391
 N   -3.2695071877   -1.3060916014    0.7342392789
 C   -3.2848304550   -1.4780217888   -0.6097829724
 C   -2.0667643813   -1.0385306133   -1.0879606439
 C   -1.5908647424   -1.0279301186   -2.5084439357
 H    1.0471762957    1.8483432305   -0.1012590598
 H   -0.2354888146    1.5482604284   -1.2940327047
 H   -0.6574006202    2.0424774420    0.3604755726
 H    0.6933820769   -0.5925961880   -0.4219083293
 H   -0.2994932902   -0.2979568353    2.1007876881
 H   -3.9877980500   -1.5374807813    1.3984061386
 H   -4.1396290602   -1.8964226423   -1.1187294979
 H   -1.4958823005   -0.0101314444   -2.9043381030
 H   -0.6076909415   -1.5019060430   -2.6065385458
 H   -2.2840104950   -1.5684362284   -3.1590450449