16

 O    0.1488043610   -0.1891996555    0.0426559798
 C    0.1036392217    1.0024146249    0.2072384130
 C    1.3043949829    1.9318626418    0.1140055304
 C    1.2398865611    2.8353664391   -1.1101926257
 C    1.3956820427    4.1235601624   -0.7924177184
 C    1.5132060243    4.3282404619    0.6777476639
 C    0.2799840226    3.9403618989    1.4684455700
 C    1.3881936898    2.9324402055    1.2734995911
 H   -0.8562209225    1.5157659850    0.4389965379
 H    2.1892032390    1.2850311683    0.0747501597
 H    1.0797814847    2.4401257658   -2.1063836949
 H    1.4142617169    4.9417779343   -1.5035059156
 H    2.1882718347    5.0754170022    1.0791097993
 H    0.1747853693    4.3464492316    2.4691140553
 H   -0.6514640545    3.8401268446    0.9227239850
 H    1.9601316363    2.6477369393    2.1479357794