21

 C   -0.0079405926    1.5248547755    0.1500921039
 C    1.4039677678    2.1025934058   -0.0979111733
 C    2.4790921116    0.9994070131   -0.0343659988
 C    2.1418800621   -0.0007102709    1.0735239012
 O    0.8573002715   -0.6100230880    0.9372660861
 C   -0.0105878797    0.0014889151   -0.0206280752
 C    0.3498747902   -0.4527594295   -1.4587426524
 C    1.8479747509   -0.7068664649   -1.6361711529
 O    2.6779816127    0.3982512132   -1.3137390066
 H   -0.3327723187    1.7429112071    1.1730127448
 H   -0.7489416419    1.9744059070   -0.5184616775
 H    1.4813173138    2.5773899204   -1.0795926202
 H    1.6316884843    2.8713815743    0.6480608491
 H    3.4472611352    1.4512927891    0.2092686980
 H    2.8870668981   -0.8046137150    1.1035793137
 H    2.1927374165    0.5336806561    2.0348002737
 H   -1.0040005035   -0.3810046057    0.2332656087
 H   -0.1683666801   -1.3912213533   -1.6876508655
 H   -0.0011666926    0.2925114268   -2.1818953727
 H    2.1278250025   -1.5856411758   -1.0387075179
 H    2.0702952519   -0.9378024104   -2.6824681963