20

 C   -0.1076714845    1.5532627078    0.0512231022
 C    0.0390905161    0.0268117763   -0.0392982169
 C    0.8483907475   -0.4961849422   -1.2090804057
 C    0.5282986741   -0.2366118260   -2.6434574398
 C    1.8542359468   -1.2264612714   -0.7138821930
 N    1.8410742486   -1.2721765579    0.6939538688
 C    2.8063546696   -1.9458046396    1.5306908402
 C    0.7852997670   -0.5304008664    1.1865829896
 O    0.5267099917   -0.3524809861    2.3589095622
 H    0.8697756311    2.0430151762   -0.0004215269
 H   -0.7266698064    1.9390333100   -0.7637175110
 H   -0.5741655321    1.8193538610    1.0032714355
 H   -0.9659442997   -0.4193089968   -0.0358107856
 H    0.5361402362    0.8358502771   -2.8762925107
 H    1.2500503983   -0.7254952971   -3.3047005109
 H   -0.4712642548   -0.6060039934   -2.9086497240
 H    2.6290981988   -1.7624891320   -1.2459993801
 H    2.8135608055   -3.0258989570    1.3439614332
 H    3.8182142971   -1.5559761294    1.3689738852
 H    2.5149729591   -1.7639101430    2.5667230074