23

 C    0.1110078712    1.4956018638   -0.1194430545
 C   -0.0094796820   -0.0230727346    0.0444709684
 C    0.6599393397   -0.5030212835    1.3492737679
 C   -1.4787713670   -0.4585807101    0.0732891771
 O   -2.3255670278    0.2097063349    0.6218122385
 C   -1.8077302226   -1.7843205549   -0.6006187774
 C   -3.2364166750   -2.2648300307   -0.3596283564
 C   -3.5475736075   -3.5630882550   -1.0913469058
 O   -4.8895550046   -3.9171829371   -0.7972898896
 H    1.1588252777    1.8072709685   -0.0696369769
 H   -0.2972638848    1.8270105345   -1.0792353147
 H   -0.4457487511    2.0036798478    0.6717087610
 H    0.4830074915   -0.5273752022   -0.7966255237
 H    0.1852576758   -0.0303423742    2.2147327406
 H    0.5863142611   -1.5884476289    1.4730907223
 H    1.7213423398   -0.2369988124    1.3519754885
 H   -1.6124837537   -1.6502199297   -1.6760045336
 H   -1.0691365340   -2.5305349690   -0.2746152366
 H   -3.4058099708   -2.4100863457    0.7123437196
 H   -3.9442250781   -1.4932116280   -0.6766443241
 H   -3.3995804452   -3.4252317301   -2.1759474955
 H   -2.8475576330   -4.3527109988   -0.7691569170
 H   -5.0923629296   -4.7378719547   -1.2553250982