17

 C   -0.0985842313    1.4180200424   -0.0054775633
 C    0.0056319456   -0.0667062468    0.0140319906
 O   -1.1725061104   -0.8709163274   -0.1914112383
 C   -0.3725285082   -1.9960504777    0.2640632974
 C    0.6692178165   -1.0450543724    0.9415062894
 C    1.1916014069   -0.8789735776   -0.5028151246
 O    2.3318575484   -0.2775908475   -0.9688338740
 C    0.6159263315   -2.2229356390   -0.9204541557
 O    1.5947549503   -3.2164891232   -0.6840685644
 H    0.8906580249    1.8599405593    0.1405112584
 H   -0.4840223745    1.7603543565   -0.9716200599
 H   -0.7686386178    1.7753729859    0.7819365095
 H   -0.9386835627   -2.8076328981    0.7175611656
 H    1.1164477887   -0.9652407605    1.9218081508
 H    3.0561211755   -0.9053069670   -0.8527081685
 H    0.1626925768   -2.3173265923   -1.9169068225
 H    1.2074875000   -4.0745791646   -0.8829611105