21

 C    0.0407288175    1.4787625003    0.1097162817
 C   -0.0195877047   -0.0261596909   -0.0010762513
 C    0.6994518151   -0.6762523802   -1.2361273707
 C    0.9711758673   -2.1095193311   -0.7074851555
 C    0.3587504689   -2.0240861151    0.7356129294
 C    0.8883546693   -2.9984473588    1.7607231797
 O    0.6824711095   -0.6661494390    1.0773911161
 C   -1.1557568273   -1.9338068851    0.5372393792
 C   -1.3886444038   -0.7040610198    0.0843036519
 H    1.0797330127    1.8213009932    0.1123106159
 H   -0.4723425986    1.9458975319   -0.7368811919
 H   -0.4375002829    1.8180170094    1.0329351311
 H    0.0862515023   -0.6492488622   -2.1401644787
 H    1.6323346459   -0.1431730152   -1.4398876494
 H    0.5123390181   -2.8959943552   -1.3115919390
 H    2.0436093315   -2.3125745569   -0.6394756848
 H    1.9741455232   -2.9030848204    1.8547152875
 H    0.4387886712   -2.8117688965    2.7400953583
 H    0.6586374056   -4.0272101307    1.4656601713
 H   -1.8466207567   -2.7596554633    0.6485940319
 H   -2.3174441442   -0.2734062343   -0.2672400226