18

 C    0.1164486747    1.4221386620   -0.3043584718
 C    0.0129620600   -0.0562430111    0.1221518506
 C    0.6719438257   -0.2980794894    1.4949456437
 C   -1.3798935080   -0.5027441799    0.1218361344
 C   -2.5324657131   -0.8522023220    0.1335715838
 C   -3.9205921576   -1.3179976738    0.1335457965
 O   -4.1103314953   -2.5394168906   -0.5589596234
 C   -4.4303532728   -1.4115723740    1.5261496808
 N   -4.8331072931   -1.5055476937    2.6046208608
 H    1.1664589004    1.7273831617   -0.3440479577
 H   -0.3281338139    1.5811106613   -1.2900343560
 H   -0.4017294465    2.0668766642    0.4117922395
 H    0.5496474025   -0.6601735605   -0.6227276838
 H    0.1716168586    0.2881118895    2.2714242161
 H    0.6190862858   -1.3521923142    1.7787820673
 H    1.7243514343   -0.0001085860    1.4628825142
 H   -4.5544584954   -0.5935663597   -0.3928424218
 H   -3.4823898464   -3.1789530736   -0.2021481131