18

 C   -0.0445452049    1.5292067593    0.0178464570
 C    0.0306691099    0.0025629450    0.0112037691
 C    0.9742392762   -0.5807593699   -1.0773047280
 C    1.1917148637   -2.0517747335   -0.6601097834
 C    1.9476553227   -1.2988885894    0.4645236658
 O    2.2977444017   -0.2726961060   -0.5271516969
 C    0.8077680754   -0.5978274600    1.1831343669
 N    0.5114751835   -0.4684787800    2.4070863073
 O    1.4247687370   -1.1523271185    3.2371836294
 H    0.9622024565    1.9550719099    0.0062939292
 H   -0.5906757307    1.8970389771   -0.8573083255
 H   -0.5573876486    1.8829913953    0.9160797066
 H   -0.9748788822   -0.4282002315   -0.0569948714
 H    0.8335955963   -0.2573841234   -2.1084050823
 H    0.3285799452   -2.6703883626   -0.4015621388
 H    1.8814723101   -2.5718437237   -1.3256446964
 H    2.7804807855   -1.6982378050    1.0351368363
 H    1.0959356428   -0.9388715829    4.1168860651