22

 C    0.1117050454    1.5184175705    0.1144733130
 C   -0.0497135757    0.0170380110   -0.1178114596
 C   -1.4723203510   -0.4458554801   -0.0846961173
 N   -2.5048071617    0.2662728965    0.1100632030
 C   -3.6810388053   -0.6286974305    0.0540412499
 C   -4.4163239944   -0.5835176894    1.3992442528
 C   -4.6059104652   -0.1789508715   -1.0837547465
 C   -3.0503370918   -2.0300613476   -0.2224397318
 O   -1.6324514273   -1.7856524032   -0.2907175175
 H    1.1685951581    1.7974976506    0.0792705470
 H   -0.4253254468    2.0910245891   -0.6455493001
 H   -0.2930827983    1.8087646735    1.0869765135
 H    0.3755669972   -0.2808983992   -1.0846787736
 H    0.5064928740   -0.5605025222    0.6315505787
 H   -4.7600148146    0.4328470609    1.6102650574
 H   -5.2868605241   -1.2489756136    1.3907768771
 H   -3.7541489860   -0.8931190173    2.2135312677
 H   -4.0791255903   -0.1996248282   -2.0426407709
 H   -5.4813943941   -0.8338450520   -1.1571094920
 H   -4.9524507878    0.8434618722   -0.9098773165
 H   -3.2379868996   -2.7519509209    0.5786322249
 H   -3.3715825108   -2.4663799985   -1.1734834892