9

 O    0.0109092609   -0.0521824038    0.0029510269
 C   -0.0148609087    1.1580896029    0.0097972552
 N   -1.1241680074    2.0176831218    0.0287559817
 C   -0.6793720612    3.3148546522    0.0300294337
 N    0.6139537706    3.3885818023    0.0135056291
 N    1.0185705211    2.0737648928    0.0008974783
 H   -2.0733398331    1.6882792490    0.0396892362
 H   -1.3332605159    4.1724437102    0.0431731748
 H    1.9968202337    1.8460081325   -0.0127804758