18

 C    0.0586720746    1.5046699725    0.0088225433
 C   -0.0583152868   -0.0141188261   -0.0545548660
 N    0.7132642828   -0.5461927441   -1.1650098066
 C    0.8040442125   -1.9071649472   -1.3709020878
 C    1.5133377069   -2.2313427760   -2.6636139033
 O    1.7103162962   -3.3410092630   -3.0858984499
 N    0.3504646135   -2.7296711461   -0.5051941032
 C    0.5128715677   -4.1655560161   -0.6490153249
 H    1.1010996677    1.8152720491    0.1290141803
 H   -0.3348036830    1.9746674645   -0.9004382915
 H   -0.5146360874    1.8943041170    0.8541423596
 H    0.3201368158   -0.4767878186    0.8621654273
 H   -1.1118478356   -0.3225498312   -0.1315860768
 H    0.7716781376    0.0385420705   -1.9849916053
 H    1.8581864349   -1.3342661134   -3.2326336782
 H   -0.0418477583   -4.5619021616   -1.5084359001
 H    1.5574375318   -4.4697655740   -0.7854582125
 H    0.1273922990   -4.6442324662    0.2558908656