20

 C    0.0839174171    1.2729406374    0.3951210230
 C    0.3739038914   -0.1970198942    0.7126271804
 N    0.8543657203   -1.0629833669   -0.3524235274
 C    1.0283310739   -0.5996587202   -1.5180452450
 N    1.4861566379   -1.4262674184   -2.5297052658
 C    1.7083795520   -1.0255239101   -3.8291785117
 N    1.5082203701    0.1663890719   -4.2210995963
 O    2.1522652399   -2.1075277356   -4.5280924954
 C    2.4444237482   -1.9117332069   -5.9024740649
 H    0.9782908663    1.7990796904    0.0447970673
 H   -0.6927264459    1.3797157030   -0.3696557396
 H   -0.2674768923    1.7804659682    1.2986255264
 H    1.1101583124   -0.2521291963    1.5265755226
 H   -0.5334962028   -0.6641744133    1.1200182657
 H    0.8586778762    0.4213010636   -1.8611465303
 H    1.6682866185   -2.3900877401   -2.2961034837
 H    1.7189506347    0.2994182252   -5.2035895643
 H    1.5547960402   -1.5945518237   -6.4591570241
 H    3.2421656484   -1.1724810763   -6.0403584294
 H    2.7796372435   -2.8788317178   -6.2785897675