11

 O    0.1016120415    1.3183485284    0.2498264050
 C    0.0655777870   -0.0164457060   -0.2227958214
 C   -1.3417838251   -0.5556321339   -0.2434382662
 C   -1.6519831288   -1.9361664259    0.1430348586
 O   -1.8820427052   -0.8590319527    1.0523646458
 H   -0.2997842252    1.3123358697    1.1263046417
 H    0.4782096418    0.0041471852   -1.2374778982
 H    0.6968646172   -0.6815174154    0.3868694731
 H   -2.0365002346   -0.0265904302   -0.8967491212
 H   -2.5466832563   -2.4167562584   -0.2494616087
 H   -0.8442285623   -2.6140506107    0.4164180215