16

 N   -0.1653064202    1.3561833209   -0.0126221479
 C    0.0419505147    0.0914013636   -0.0180140992
 C   -1.1419177484   -0.7567761317   -0.0336464483
 N   -2.0697958318   -1.4453936992   -0.0460400555
 N    1.2176247730   -0.6186711514   -0.0114180976
 C    1.3178518059   -2.0988700802   -0.0190243769
 C    2.8468138021   -2.3815124941   -0.0064234340
 C    3.4584952919   -1.0000673501    0.0067119290
 C    2.5049486572   -0.0690776569    0.0032769639
 H    0.7022998169    1.8908381423   -0.0016450385
 H    0.8116450256   -2.5122269905    0.8568532927
 H    0.8281406170   -2.5020039856   -0.9089420337
 H    3.1393644496   -2.9687788361    0.8711381026
 H    3.1555734195   -2.9593209719   -0.8847026028
 H    4.5200391777   -0.8026262584    0.0174096230
 H    2.6227589093    1.0042412091    0.0102975132