20

 C   -0.2231469814    1.5273988137    0.2266778196
 C    0.1940800255    0.0876152569   -0.0966751907
 C    0.8151446535   -0.6045049056    1.1019745409
 C    0.0695249854   -1.2640805635    2.2306455300
 C   -1.1537009128   -2.0410239466    1.7264031289
 C   -0.1998943840   -2.9316254492    0.8491569341
 C   -0.4623017757   -3.0721804090   -0.5788315945
 N   -0.6773292575   -3.1906209361   -1.7091044050
 C    0.9980452572   -2.0828320251    1.3177741995
 H    0.6335727215    2.1235251443    0.5604128535
 H   -0.6502409421    2.0204574307   -0.6515700777
 H   -0.9727369919    1.5525665337    1.0249299261
 H   -0.6705936924   -0.4677494076   -0.4703967295
 H    0.9201880103    0.0877350657   -0.9187462013
 H    1.6857330462   -0.0676491661    1.4797738396
 H    0.2249125290   -0.9861324291    3.2656809450
 H   -1.6468993489   -2.6323881337    2.4989600643
 H   -1.9114083369   -1.4677915295    1.1870067100
 H   -0.1401806216   -3.9356180208    1.2771930914
 H    1.9693820466   -2.5122790533    1.5309508958