17

 O    0.0420694036   -0.0503804078   -0.0835825006
 C    0.0299453281    1.1561579908   -0.0226389429
 C   -1.2248391961    2.0423213020    0.0824833813
 C   -0.7122841835    3.4971502806    0.0609810015
 C   -1.1939161927    4.3419291898    1.2691318871
 C   -0.6956325644    5.7115230760    1.2448799275
 C   -0.2710528233    6.8350557492    1.1943743645
 C    0.7917907443    3.3438805561    0.0166315234
 C    1.1964692901    2.0701949190   -0.0304026184
 H   -1.9103113257    1.8114262736   -0.7372199022
 H   -1.7506546591    1.7991854730    1.0121325746
 H   -1.0439028312    4.0177145417   -0.8462520597
 H   -2.2907797620    4.3503336864    1.2772940075
 H   -0.8807767745    3.8485719636    2.1983862216
 H    0.0941160707    7.8318490328    1.1658498854
 H    1.4382449484    4.2147159169    0.0270501624
 H    2.2160075673    1.7089377465   -0.0733309328