23

 C    0.1097830317    1.5385568170   -0.2062967963
 C   -0.0215209001    0.0544085204    0.1580476078
 C   -1.4336894187   -0.5100945916    0.0467783874
 C   -2.1988916953   -0.4584930182   -1.3143336709
 C   -2.8877165732   -1.7691120128   -0.8408788894
 C   -1.6140185207   -2.0551314890   -0.0068364536
 C   -4.0309459434   -1.4027483933    0.1117922549
 O   -3.7565047127   -0.1956419416    0.8100836862
 C   -2.3895524220    0.0146461779    1.1381218018
 H    1.1551963014    1.8584580964   -0.1585607210
 H   -0.2498809349    1.7274664891   -1.2232792214
 H   -0.4602566528    2.1822792141    0.4705688385
 H    0.6314139544   -0.5325674728   -0.5007234351
 H    0.3545630045   -0.1106397719    1.1777323956
 H   -2.8318093645    0.4083431098   -1.5184161677
 H   -1.5243719616   -0.6357931139   -2.1566670755
 H   -3.2097995021   -2.5060883246   -1.5804294262
 H   -0.8283993709   -2.5338769049   -0.5995866917
 H   -1.7306387636   -2.5914964182    0.9416551524
 H   -4.9618174000   -1.2199446468   -0.4369920541
 H   -4.2125093022   -2.2323560498    0.8161375832
 H   -2.1368647178   -0.4641194183    2.1001574031
 H   -2.2899107254    1.0971985528    1.2695761719