16

 O    0.1487945272    1.2696849803   -0.3756349327
 C   -0.0183417372   -0.0882347186   -0.0378528851
 C   -1.5019724892   -0.4765331353    0.1221976989
 C   -2.2689600140   -0.4857645887   -1.2360986548
 N   -1.9970752939   -1.9382970137   -1.3333959653
 C   -1.7306841397   -2.0200893163    0.1190775935
 C   -2.1000939413    0.2861973208    1.2061935129
 N   -2.5403175216    0.9191668799    2.0687645429
 H   -0.1211525289    1.8042332664    0.3800095199
 H    0.3932852240   -0.6716686477   -0.8659319469
 H    0.5274441789   -0.3580220725    0.8785389295
 H   -3.3263414923   -0.2200637494   -1.1129816029
 H   -1.8291323436    0.1258252278   -2.0288854134
 H   -2.7695534640   -2.5039353808   -1.6649789576
 H   -0.8676659723   -2.6359343072    0.3953696523
 H   -2.5901014921   -2.3078051950    0.7377810888