20

 C   -0.0426297975    1.3725666613    0.3397161893
 O   -0.0362182869    0.1009534379   -0.2903177382
 C   -1.2482458966   -0.5780778943   -0.1519202860
 C   -1.2237776632   -2.0424522149   -0.6972331767
 C    0.1050521387   -2.5518991975   -1.2344135627
 N   -1.5678818042   -2.4714718609    0.6697217935
 C   -1.8550321614   -3.7636351219    1.2356733523
 C   -1.5499729948   -1.2233716065    1.2330429021
 O   -1.7100348929   -0.8398405091    2.3660929336
 H    0.9452363341    1.8098191090    0.1796869537
 H   -0.8032405132    2.0319498799   -0.1062268940
 H   -0.2387676900    1.2867186865    1.4147366072
 H   -2.0912795124    0.0214225311   -0.5288708350
 H   -2.0321753976   -2.2492841741   -1.4107504986
 H    0.9189528595   -2.3194810839   -0.5445212418
 H    0.0696365331   -3.6346889570   -1.3929323396
 H    0.3271273333   -2.0774126591   -2.1946386530
 H   -1.0053760175   -4.4488625187    1.1335894360
 H   -2.0631032339   -3.6192305979    2.2986182659
 H   -2.7312384767   -4.2241812098    0.7621795018