15

 C   -0.0277527419    1.3929342773    0.0220326346
 N    0.2489458748   -0.0263063884    0.1170609807
 C    0.5579501428   -0.6239415162   -0.9395088843
 O    0.7916286627   -1.9739410120   -0.8864750095
 C    1.2661442236   -2.5922244267   -1.9886376371
 N    1.8210546026   -1.9776395085   -3.0285911676
 N    2.1337863064   -3.0001309896   -3.8268411842
 N    1.8390300284   -4.2105229971   -3.3860922246
 C    1.2748261973   -3.9820807865   -2.2006781745
 H    0.6495283795    1.9385076634    0.6879955756
 H    0.0745259826    1.8043714137   -0.9943164604
 H   -1.0465800572    1.5873456032    0.3745870032
 H    0.6583920626   -0.1936386304   -1.9401870967
 H    2.5818958755   -2.8518185178   -4.7157830557
 H    0.9144567202   -4.7791578644   -1.5729413892