18

 C   -0.0435252333    1.4750967903   -0.0948392069
 C    1.5064973737    1.5571979804    0.0032156552
 C    1.4695295117    0.1581037074    0.6878402933
 C    0.0806786459   -0.0732030955    0.0271472206
 O    0.0930026294   -0.7513483809   -1.2169035676
 C    1.2291671951   -0.5682103193   -2.0457652643
 C    1.6173898213    0.8863205301   -2.3202830993
 O    2.2038237570    1.5783765790   -1.2300651170
 H   -0.5032799548    1.9037335011    0.8001058141
 H   -0.5441978932    1.8788097158   -0.9763784382
 H    1.9309439373    2.3795575050    0.5833261900
 H    2.2839348617   -0.5360513292    0.4741551365
 H    1.3623725649    0.2542926976    1.7719505755
 H   -0.6801477982   -0.5841565434    0.6213089241
 H    2.1024094204   -1.1040385148   -1.6453851924
 H    0.9637016205   -1.0372627244   -2.9993404746
 H    2.3809636325    0.8942433608   -3.1055729545
 H    0.7401024479    1.4258961199   -2.7065380645