17

 C   -0.3634762370    1.4136945235    0.0558921728
 C   -0.0342250009   -0.0685201041    0.1142907945
 O    0.1665385183   -0.6525433176    1.1457078124
 C    0.0296418458   -0.7759290750   -1.2516681047
 O    0.3033992879   -2.1503801348   -1.0721640260
 C   -0.4341400800   -2.9438087322   -1.9963307794
 C   -1.5617416439   -2.0674260702   -2.4901492424
 O   -2.3166576171   -1.4669673058   -1.4313489452
 C   -1.2701337278   -0.7062694580   -2.0414088187
 H    0.1780820239    1.9202299215   -0.7498749930
 H   -1.4349076578    1.5399757785   -0.1405007683
 H   -0.1268731597    1.8771245452    1.0143283374
 H    0.8206217435   -0.2797411008   -1.8447659107
 H    0.1908240908   -3.2529848129   -2.8490919162
 H   -0.7782029719   -3.8404354067   -1.4706407273
 H   -2.1055569493   -2.3020555162   -3.4008127175
 H   -1.5612047650    0.1924088556   -2.5773092576