15

 O    0.2575881666    1.3302766687   -0.0871780654
 C    0.1137275136   -0.0024540808    0.0588922245
 N   -0.1419043778   -0.7935799956   -0.9734376048
 N   -0.2340610796   -2.0277108483   -0.4158104795
 C   -0.0164927339   -2.0215734432    0.9197564994
 C    0.2117379282   -0.7064302330    1.2795975052
 C   -0.0745714020   -3.2711447868    1.7015914575
 C   -1.2696088102   -4.1372579220    1.6977129410
 O   -0.1165829506   -4.4748101802    0.9242277948
 H    0.1447611895    1.5246858491   -1.0261121542
 H   -0.3145719622   -2.8458180309   -0.9954694895
 H    0.4051392640   -0.3087425807    2.2613556467
 H    0.5779637771   -3.3108747019    2.5724033249
 H   -1.4649351605   -4.7865828776    2.5495550599
 H   -2.1422980722   -3.8280100068    1.1259292093