15

 O    0.4070621800    0.0798808460   -0.0050234601
 C    0.1720496476    1.2556661234   -0.0136268655
 C   -1.0799662365    2.1479183126   -0.1890250761
 C   -0.1208937540    3.3477983231    0.1009707376
 N    0.9656179887    2.3673769397    0.1757234710
 C   -0.0165356627    4.3857465368   -0.9923648855
 C    1.2388059736    4.7046923299   -1.6838327680
 O    0.2358010083    3.9030107162   -2.3090436166
 H   -1.4991558462    2.1361133270   -1.1956955652
 H   -1.8602278451    1.9727075877    0.5525880198
 H   -0.3236392045    3.8489608590    1.0556168283
 H    1.9184231623    2.4472733512    0.4996470575
 H   -0.7832743265    5.1612103278   -0.9380713020
 H    1.3847122832    5.6956774697   -2.1110098396
 H    2.1483761318    4.1715621198   -1.4135207956