21

 C   -0.0118433810    1.5042812216    0.0382610807
 C   -0.0098490948    0.0098625942    0.0040152857
 C   -1.0536815943   -0.8304388490   -0.0002933809
 C   -2.4957809655   -0.7913460291   -0.1819028825
 C   -2.9248216198   -1.9961600217   -0.6007444428
 C   -1.7875555352   -2.9945800195   -0.7606688149
 C   -0.6279001018   -2.2873327148   -0.0211502942
 C    0.8125868197   -2.1997201034   -0.5534522012
 C    1.2801817168   -0.8001827390   -0.0598349544
 H    0.5013328228    1.8846393655    0.9320154845
 H    0.5215589279    1.9247991649   -0.8246552268
 H   -1.0272190588    1.9105028840    0.0394039699
 H   -3.1187385890    0.0873461852   -0.0631975331
 H   -3.9499150285   -2.2328012088   -0.8651947030
 H   -2.0268266763   -3.9834557077   -0.3557664255
 H   -1.5637562936   -3.1400990246   -1.8288380814
 H   -0.6133011595   -2.6606478876    1.0146217097
 H    1.4635713579   -3.0122032288   -0.2174060032
 H    0.8025091525   -2.2107575869   -1.6498835072
 H    2.0257162671   -0.3449471328   -0.7233916096
 H    1.7567027536   -0.8688697017    0.9308960402