15

 C   -0.0439847469    1.5441045733    0.0182827294
 C    0.1161436045    0.0514155649    0.0193505317
 N   -0.7528202217   -0.8417545208    0.8271368573
 C    0.7100494697   -0.7852631722    1.0933682900
 C    1.4177198555   -1.9428001186    0.4294457247
 O    2.1036166364   -2.7950603765    0.9294570575
 N    1.1395055885   -1.8138435868   -0.9335646735
 C    0.4572610715   -0.6514072300   -1.2853185957
 O    0.2202323351   -0.2802057722   -2.4055189584
 H    0.8644567751    2.0349204330   -0.3432683899
 H   -0.8645505332    1.8355280712   -0.6434302817
 H   -0.2562870819    1.9136885857    1.0260792610
 H   -1.2221025021   -0.2707257068    1.5305975224
 H    1.0863349827   -0.4001540929    2.0324331107
 H    1.4477647468   -2.4909622513   -1.6164062556