11

 O    0.0376750802   -0.0375623906    0.0029277330
 C   -0.0427623359    1.1694387571    0.0066988711
 C    1.1765626291    2.0018224237    0.0007583873
 N    2.1579453798    2.6120570750   -0.0041661273
 C   -1.3151525086    1.8926522564    0.0169314437
 N   -1.3930949846    3.2316110480    0.0209812518
 N   -2.6868493130    3.4500717659    0.0298996533
 N   -3.4837649457    2.3797326525    0.0325069453
 C   -2.6248828775    1.3674649790    0.0241595394
 H   -3.0642165370    4.3863038994    0.0347538578
 H   -2.9527520568    0.3413968037    0.0236524746