18

 C   -0.0635122957    1.4554818519   -0.0941016381
 C    0.0061215135   -0.0212496062    0.1235650069
 C   -0.9942397097   -0.8865227346    0.3082244274
 C   -2.4105820447   -1.1978755359   -0.1261069125
 N   -1.8594447176   -2.4874544361   -0.6898682229
 C   -0.6252453721   -2.3235607732    0.1428542150
 C    0.7969457911   -2.2225068410   -0.4550595023
 O    1.3862213656   -3.0119111463   -1.1356955110
 C    1.3019981383   -0.8096199253   -0.0243569972
 H    0.4651009018    2.0027894030    0.6967995963
 H    0.4167384646    1.7349463221   -1.0403827868
 H   -1.0976324312    1.8103465916   -0.1124285718
 H   -3.1166143259   -1.3543637456    0.7012606741
 H   -2.8699912813   -0.5359852960   -0.8672727865
 H   -2.4085403620   -3.3038424824   -0.4379394417
 H   -0.6024205839   -2.9535709793    1.0450299404
 H    1.9771912450   -0.3919775705   -0.7793694547
 H    1.8853648841   -0.9036958762    0.9023947453