20

 C    0.0209540503    1.5914623541   -0.0123924813
 C    0.0454326691    0.0604084861   -0.0349094484
 C    0.7447178983   -0.5135776405   -1.2720922590
 C    0.5474242117   -2.0273053670   -1.3266766023
 N    0.9092714188   -2.6418342315   -0.0535416100
 C    1.0525657133   -2.0146640796    1.1415260065
 O    1.5028338593   -2.5756617107    2.1304142007
 C    0.6955105346   -0.5220624861    1.2264302765
 O    1.9080982562    0.1704070214    1.4994579763
 H    1.0355180010    1.9962934495   -0.0088871408
 H   -0.5077153641    1.9803538098   -0.8886293351
 H   -0.4882763207    1.9640173750    0.8823541137
 H   -0.9935778052   -0.3007637474   -0.0413042890
 H    0.3452316896   -0.0680293101   -2.1886781843
 H    1.8136690768   -0.2763117841   -1.2249843728
 H   -0.4992017407   -2.2568382966   -1.5763752280
 H    1.1682373616   -2.4705496069   -2.1127785870
 H    1.1810514266   -3.6148134718   -0.0448367785
 H    0.0033946239   -0.4210807895    2.0771370406
 H    2.3568315295   -0.3519256643    2.1770860021