22

 C    0.0165976681    1.5658056182    0.0766659965
 C   -0.0450381788    0.0579176680    0.0019247898
 C    0.3368496713   -0.6522393172   -1.3166727967
 N   -0.7799355256   -1.6477415491   -1.1907915370
 C   -0.4044700675   -2.7130259735   -0.2017134205
 C   -0.7152163506   -1.8050993905    1.0098833712
 C   -1.4071852433   -2.3921460509    2.2180499457
 C    0.4224469508   -0.7675961393    1.2354359945
 C   -1.3431104241   -0.8215624878   -0.0382061068
 H    1.0570268101    1.9144343566    0.0857931301
 H   -0.4801936341    2.0292581198   -0.7831201557
 H   -0.4638008644    1.9426786660    0.9866062314
 H    0.1632581181   -0.0192393937   -2.1945724099
 H    1.3393097702   -1.0900986519   -1.3960372161
 H   -1.1069946935   -3.5504053942   -0.2840866871
 H    0.6153475880   -3.1026339355   -0.3071810852
 H   -0.7299928685   -3.0532702807    2.7734268149
 H   -1.7417102914   -1.6099030389    2.9086988484
 H   -2.2833926007   -2.9832910608    1.9288607896
 H    1.4549684243   -1.1346845476    1.2434522175
 H    0.2463348511   -0.2045632114    2.1589992103
 H   -2.3756288496   -0.4717698857   -0.0781902149