17

 N    0.0066604419   -1.1349706822    0.0608181946
 C   -0.0092853704    0.0211787885    0.0483614136
 C   -0.0003163673    1.4664477037   -0.0128369074
 C   -0.4250394723    2.1244217425   -1.3637943656
 C    0.8940054754    2.9627302723   -1.3664532319
 C    1.3138603527    2.3036342410   -0.0226936256
 C    0.8167801529    2.9375514380    1.2848059965
 C   -0.5233337498    3.5378617463    1.1776313283
 N   -0.4419633375    2.0707575516    1.3197422119
 H   -0.4775728516    1.3924767207   -2.1711764582
 H   -1.3696303930    2.6714805110   -1.3361914667
 H    1.5585136722    2.7090658523   -2.1942057500
 H    0.7760242532    4.0482833171   -1.3383953256
 H    2.2877691965    1.8225176494    0.0363240360
 H    1.4325120233    3.0543552831    2.1705369067
 H   -0.9301950675    3.9963413723    2.0739079116
 H   -0.8736829088    3.9913083722    0.2569247218