15

 O   -0.0072339771    1.4918974559    0.1218091383
 C   -0.0244963327    0.1046608787   -0.0057369676
 C    0.6412616706   -0.6142134241    1.2076088717
 C    0.0234383758   -0.2456462371    2.4726322430
 C   -0.4934870251    0.0552537501    3.5139200025
 C   -1.4754132457   -0.3911061112   -0.1556626573
 O   -1.7732381423   -1.5547272879   -0.1905961188
 C    0.7255451966   -0.3129470840   -1.2724720794
 O    1.2724606748    0.5065294275   -1.9658797793
 H    0.5405894825    1.8228477527   -0.6091022781
 H    0.5565159282   -1.6951857552    1.0487371226
 H    1.7069269477   -0.3570781007    1.2187832377
 H   -0.9474903668    0.3203499960    4.4366069106
 H   -2.2076508050    0.4370711301   -0.2497000835
 H    0.7313961083   -1.3944980310   -1.5014085824