18

 C   -0.0757147559    1.4700909979   -0.0545427223
 C    0.0256730710   -0.0410410299    0.0714808478
 N    1.0644574957   -0.6222172929   -0.8435569357
 C    1.8220476689   -1.1143054183    0.2933870780
 C    0.8324040849   -0.5363841745    1.2796396047
 C    1.0014628896   -2.0488127696    1.1959673098
 N   -0.0329568809   -2.8694636408    0.6245115493
 C    1.7604612146   -2.6146782257    2.2909848885
 N    2.3525382009   -3.1117042008    3.1534018644
 H    0.9075680415    1.9370159920    0.0535716818
 H   -0.4734615453    1.7405815918   -1.0372655380
 H   -0.7443561315    1.8776971199    0.7118936327
 H   -0.9579103680   -0.5092290398   -0.0339935333
 H    0.7062110809   -1.3662788573   -1.4377687757
 H    2.9055837516   -1.1504031497    0.2992450830
 H    1.0013539070   -0.0018629019    2.2054124394
 H    0.3388324389   -3.7736992224    0.3503211275
 H   -0.7736349239   -3.0395899779    1.2982352880