15

 C    0.1445862030   -1.2517587950   -0.0052696998
 C    0.0505200415   -0.0543208285    0.0103703276
 C   -0.0973909307    1.3989547383    0.0267466027
 C   -0.6599797919    1.9489206615    1.3607918247
 O    0.5165466645    2.2692825464    2.0868080281
 C    1.4144597139    2.7691646144    1.1257889459
 O    1.1828171503    2.0411294470   -0.0759456851
 C    1.2370512003    4.2141814638    0.8960624636
 C    1.1033763507    5.3951656731    0.7213772955
 H    0.2362947841   -2.3098925686   -0.0201539256
 H   -0.7144952986    1.7171132827   -0.8210334326
 H   -1.2688416032    2.8443336849    1.1789653639
 H   -1.2296910467    1.2155599449    1.9303388704
 H    2.4298256358    2.5586787111    1.4771102832
 H    0.9896440770    6.4401143741    0.5664488275