17

 O   -0.0509993038    1.4386623576   -0.0976613942
 C    0.0095478833    0.0358472402   -0.0015246123
 C    0.0155822819   -0.6277847440    1.3966898831
 C   -1.4892456038   -0.1816078584    1.5827542153
 C   -2.1991012609   -1.2901960272    2.3508559085
 O   -2.9927542781   -2.1605593043    1.5183252250
 C   -1.6115033213   -2.4884343877    1.7604554705
 C   -0.6482122496   -1.8965875982    0.7379519118
 C   -1.3574731139   -0.6592786801    0.0953436257
 H    0.8423031116    1.7856882281   -0.0137444817
 H    0.7099773247   -0.3879068714   -0.7343448846
 H    0.8071874632   -0.6165590968    2.1495773485
 H   -1.7158057371    0.8608600514    1.7886815970
 H   -2.5191761096   -1.1920801294    3.3828165321
 H   -1.4216526559   -3.4198543123    2.2832897686
 H   -0.0487122586   -2.5600350983    0.1137687504
 H   -2.1498527320   -0.6828046592   -0.6500405537