16

 C   -0.0866509270    1.4805979684   -0.0372133087
 O    1.1132679050    0.6764407095    0.0129445845
 C   -0.1400770976    0.0216855647   -0.0041815745
 C   -0.5050032766   -0.9920863907    1.0503066898
 C   -1.6860753980   -1.7958829816    0.4768779133
 C   -2.0202587574   -1.2114090676   -0.8979175152
 C   -0.4859718700   -1.0272939591   -1.0699832900
 C   -0.2770012036   -2.1232550441    0.0631547412
 H   -0.2932890125    2.0570283071    0.8637196908
 H   -0.2444134934    2.0149497549   -0.9736522522
 H   -0.2850389534   -0.9700852843    2.1091812043
 H   -2.3312213621   -2.3616163137    1.1373570504
 H   -2.4161424356   -1.9805071870   -1.5668008149
 H   -2.6428115358   -0.3111557059   -0.9581897563
 H   -0.0100905972   -0.9945987163   -2.0471227219
 H    0.3223849751   -3.0181656444    0.1316200093