17

 C    0.0498057326    1.3665568473    0.0732287716
 N    0.1028762975   -0.0846955551    0.0025149432
 C    0.5288561680   -0.6663806097   -1.0207181454
 O    0.9869264979   -0.0305169224   -2.1734942980
 C    1.6238228333   -0.9297522220   -3.0129059623
 O    2.0514631321   -0.5938609913   -4.0720951702
 C    1.6675275233   -2.2869494790   -2.3336988549
 C    0.6335330968   -2.1788716356   -1.2068696924
 N    0.9470485801   -2.9602764084   -0.0237367104
 H    0.5036724665    1.8746922529   -0.7839275409
 H   -0.9974763948    1.6779139266    0.1546257480
 H    0.5493948837    1.6923921906    0.9914033694
 H    1.4894102298   -3.0858979828   -3.0530333050
 H    2.6757152769   -2.4291601871   -1.9254993637
 H   -0.3388918005   -2.5231418370   -1.5828582140
 H    1.8088886918   -2.6099128334    0.3892343170
 H    0.2293185251   -2.7842059236    0.6749669580