14

 O    0.0319070966    1.3690623980   -0.3420923166
 C    0.0462356565    0.0931509040    0.2645697463
 C   -1.3442650316   -0.5070381629    0.2445445940
 N   -1.7737605310   -1.0669932389   -1.0288890319
 C   -1.5729329720   -1.9988404373    0.1092058301
 C   -0.4589283101   -2.9167474241   -0.0148230075
 N    0.4370251503   -3.6411847357   -0.0948451980
 C   -2.7414953421   -2.5435187275    0.7644399371
 N   -3.6957307568   -2.9539900546    1.2712885336
 H   -0.1329167734    1.2387173346   -1.2827900498
 H    0.7544306336   -0.5905147402   -0.2211155657
 H    0.3693968081    0.2397159011    1.2994646823
 H   -2.0860869069    0.0122458837    0.8474371180
 H   -2.7706351712   -0.9396789500   -1.1900863720