17

 C    0.0403918798    1.3927988567   -0.0680726332
 N   -0.1544418045   -0.0385981127    0.0741386592
 C    0.5660281267   -0.6746691613    1.0917399419
 C    1.2432748548   -0.1276652335    2.1584254533
 N    1.7213517817   -1.1848047317    2.9380093985
 C    1.3751509211   -2.3649329978    2.3589973655
 O    1.7622368904   -3.5400374636    2.9131704120
 C    0.6512073943   -2.0979500957    1.2241069659
 O    0.1689370113   -3.0579518440    0.3525401759
 H    1.0973868885    1.6857167735   -0.1849236650
 H   -0.5215127405    1.7521427800   -0.9338388488
 H   -0.3495140696    1.9037413612    0.8195780846
 H   -0.0499800154   -0.5325131297   -0.8034164135
 H    1.4018611039    0.8929734860    2.4570811986
 H    2.3266137701   -1.1024029721    3.7341747271
 H    1.4487652254   -4.2354628110    2.3225693218
 H   -0.7948883079   -3.0392128242    0.3842478263