12

 C    0.0124174818   -1.2092307460   -0.1272052469
 C    0.0140464752   -0.0119344729   -0.0411288358
 C    0.0134035842    1.4436601892    0.0701082481
 C    1.3953415533    2.0300616063    0.0307310681
 N    1.8919536913    2.6899127898    1.0427245414
 O    3.1649202311    3.0648285343    0.5933922472
 C    3.2745255712    2.5799588547   -0.6437893270
 N    2.2334368844    1.9357484142   -1.0615638158
 H    0.0113817955   -2.2681475228   -0.2064030346
 H   -0.5694400399    1.8762512621   -0.7526472533
 H   -0.4631397088    1.7561724156    1.0047757060
 H    4.2004491606    2.7694292154   -1.1668571373