18

 C   -0.1282640236    1.5095566550   -0.0078700804
 C    0.0193996765   -0.0064553886    0.0125833513
 C    1.1887945277   -0.6185332322   -0.8220540072
 C    2.1012317047   -0.4269140057    0.4209394585
 C    0.7854786423   -0.6302382600    1.2220303984
 O    0.4414255786   -2.0169767501    1.2878208404
 C    0.9462865395   -2.7347378018    0.1798447037
 O    0.8985283810   -2.0037114926   -1.0288718963
 H    0.8140728973    2.0335015852    0.1810621080
 H   -0.5017409034    1.8480032759   -0.9804336738
 H   -0.8438858759    1.8380727881    0.7536242517
 H   -0.9404630272   -0.4927723178   -0.1795912121
 H    1.4643473223   -0.1964844467   -1.7906443145
 H    2.9408963987   -1.1043995969    0.5827330398
 H    2.4565039814    0.6009403376    0.4969236816
 H    0.6715737899   -0.2194895928    2.2272830709
 H    1.9827656562   -3.0473453813    0.3825608356
 H    0.3216969242   -3.6225589454    0.0515242244