21

 C   -0.0905458939    1.5400391421   -0.0865622764
 C    0.0133644741    0.0292602342    0.0053653591
 C    1.2963238421   -0.7331200461   -0.2636768149
 O    2.5236304062   -0.0444820397   -0.3085665227
 C    3.1845549831    0.0986617801    0.9529130255
 C    2.3290260293    0.9332380279    1.9393558666
 C    1.5804278465   -0.3998520701    2.2268335217
 C    2.9395132659   -1.1080471860    1.9032494628
 C    0.6518084300   -0.8281505845    1.0945534912
 H    0.8845142398    1.9997581825   -0.2599154760
 H   -0.7266741899    1.8065978786   -0.9365823526
 H   -0.5353433233    1.9896392908    0.8069955557
 H   -0.8548655667   -0.4752055207   -0.4130674507
 H    1.2812118557   -1.5668924215   -0.9605211035
 H    4.2035199824    0.4088670629    0.7168674414
 H    2.9218909764    1.2273202844    2.8103184477
 H    1.7900487001    1.7990003397    1.5637806381
 H    1.1251745665   -0.5321448604    3.2102378792
 H    2.9084566083   -2.1105171157    1.4702791472
 H    3.6385219399   -1.0823244736    2.7428295469
 H    0.1180394674   -1.7492876150    1.3161089737