21

 O   -0.0496766066    1.3735789070    0.0520128021
 C   -0.0058055959   -0.0222873580    0.0196679038
 C   -0.4764357494   -0.7459171033   -1.2179262051
 C   -1.2927625592   -0.7995849229    0.0671405909
 C   -1.0837544212   -1.9839255790    0.9730649509
 C   -2.0015810035   -2.1884059748    2.1534979780
 C   -2.0120887882   -3.1670587666    0.9999865669
 C    0.4336883800   -2.1487281166    1.1176385764
 C    1.0037796343   -0.7249973807    0.9203796314
 H    0.6782585168    1.7056636422   -0.4846409957
 H   -0.8793387842   -0.1134859645   -2.0016159950
 H    0.0376134578   -1.6348220052   -1.5703313168
 H   -2.2448849723   -0.2810035645    0.0807775727
 H   -1.5636016058   -2.5104582019    3.0929446620
 H   -2.8513350339   -1.5225605113    2.2661402120
 H   -2.8690575220   -3.1624053150    0.3343036603
 H   -1.5829346536   -4.1510652022    1.1624959452
 H    0.7173398930   -2.5852673419    2.0792261422
 H    0.8160670913   -2.8210501462    0.3409514583
 H    2.0218362691   -0.7325648622    0.5141091186
 H    1.0301871934   -0.1799099324    1.8706982309