16

 C    0.1215319620    1.5295671924   -0.0271740731
 C   -0.0187442156   -0.0060588266   -0.0076462636
 N   -1.3981685214   -0.4411094091    0.0121486910
 C   -2.1598623481   -0.3792761047    1.1320725395
 O   -1.8005446482    0.1069449319    2.1858716084
 C    0.6545168225   -0.6389815456   -1.2223719650
 O    0.0338150223   -1.2746949770   -2.0498168784
 C    2.0830106886   -0.4310785893   -1.3339315963
 C    3.2734578293   -0.2731996246   -1.4130460630
 H    1.1742879495    1.8226352474   -0.0318708366
 H   -0.3692682556    1.9496195604   -0.9098736265
 H   -0.3546559035    1.9278113504    0.8701162358
 H    0.4905042067   -0.3770727080    0.8922637282
 H   -1.7172014191   -0.9402080317   -0.8067780157
 H   -3.1636335468   -0.8208189855    0.9780577168
 H    4.3253605474   -0.1392956604   -1.4943293416