20

 O    0.0421937521    1.2484067475   -0.5877650249
 C    0.0152504981    0.0373041620    0.1520347048
 C   -1.3859480170   -0.5131668414    0.2454493130
 C   -2.4158639006    0.1785917754    1.1328962006
 C   -3.5881007340   -0.8209207599    1.2255469663
 C   -2.9591559203   -2.2210995876    1.0015498480
 O   -3.8163954416   -3.1352697410    0.3330625688
 C   -1.7231629384   -1.9607778392    0.1613338205
 N   -1.8727423506   -1.0965132508   -1.0194728897
 H   -0.3173273185    1.0323813889   -1.4564682623
 H    0.6754678145   -0.7197720671   -0.2958445937
 H    0.4030169947    0.2786925648    1.1478759305
 H   -1.9714512845    0.3506838019    2.1205588988
 H   -2.7135136120    1.1580550025    0.7453429018
 H   -4.1248009114   -0.7529020798    2.1756549303
 H   -4.3254043505   -0.6473174676    0.4347017421
 H   -2.6296115662   -2.6441631218    1.9646521615
 H   -4.5688582754   -3.3136360637    0.9060059587
 H   -0.9773030911   -2.7452560508    0.0753088996
 H   -2.8526630474   -0.8877221122   -1.1929943845