22

 C   -0.1440909312    1.5721677443    0.0308836321
 C   -0.0230942123    0.0409275632    0.0150661943
 C    0.6295966681   -0.4662970502   -1.2813126881
 C    0.9951417060   -1.9522710493   -1.1817973956
 C    2.0014502817   -2.2240231081   -0.0451363710
 C    3.4587618734   -1.9418985707   -0.4600146812
 C    1.6288321710   -1.4467809607    1.1945256951
 C    0.7321536623   -0.4612572664    1.2233376401
 H    0.8451897660    2.0423366035   -0.0011848832
 H   -0.7158441598    1.9296120590   -0.8320857077
 H   -0.6500097376    1.9214628376    0.9373509298
 H   -1.0466287436   -0.3658050435    0.0641594799
 H   -0.0423362427   -0.2935216798   -2.1299144511
 H    1.5333349387    0.1260875101   -1.4773694860
 H    0.0805621600   -2.5290274587   -0.9937524423
 H    1.4012773046   -2.3118876929   -2.1342287619
 H    1.9475379258   -3.2932782845    0.2054669957
 H    3.5886801651   -0.9000447626   -0.7700371435
 H    4.1474980687   -2.1244058023    0.3716267090
 H    3.7588849137   -2.5866142914   -1.2931598770
 H    2.1448412987   -1.7271997660    2.1113622084
 H    0.5135989033    0.0351001294    2.1677772840