20

 C   -0.2335314367    1.4262622695    0.0495644609
 C    0.0992109489   -0.0596758659   -0.1282178135
 C    0.9442312259   -0.2990645135   -1.3909747634
 O    0.3170208380    0.1648684312   -2.5790421446
 C    0.8118391484   -0.6274960843    1.0859280435
 C    0.0237148429   -1.0891356257    2.2980990131
 C    0.7293132218   -2.0899482523    1.4172589653
 O   -0.0173315234   -2.8914269147    0.5441428481
 H    0.6748744943    2.0076937624    0.2491710210
 H   -0.6896067317    1.8248739192   -0.8599404305
 H   -0.9200370383    1.5827851636    0.8872606064
 H   -0.8350897790   -0.6216269923   -0.2583204175
 H    1.8860378155    0.2591670331   -1.3196168315
 H    1.1950150642   -1.3666324097   -1.4639334057
 H   -0.4574508321   -0.3865750955   -2.7297177893
 H    1.7708342376   -0.1580756262    1.2967391836
 H    0.4102471424   -0.8958975846    3.2929762021
 H   -1.0581750024   -1.0511913475    2.2150798201
 H    1.6247094100   -2.5688279846    1.8135222613
 H   -0.4839185361   -3.5494137022    1.0696111605