17

 C   -0.0269390855    1.5502141371    0.0786482099
 C    1.5125257992    1.4299732399    0.0099868316
 O    2.0062429572    1.0936704304    1.3020234447
 C    1.6770448569   -0.2676162205    1.6007658909
 O    0.2935148951   -0.5013478742    1.3144982509
 C   -0.0169279658    0.0056363631    0.0211317405
 C    1.3203074560    0.0964583123   -0.8267735164
 C    2.3151628545   -0.9697663665   -0.5644000796
 C    2.5137747433   -1.1728325527    0.7400848996
 H   -0.4438646780    2.0049522574    0.9786312131
 H   -0.4521221640    1.9997204194   -0.8230447152
 H    2.1289207996    2.2385175031   -0.3863341070
 H    1.8101254299   -0.4021305203    2.6735443726
 H   -0.8702934610   -0.5545627105   -0.3644863082
 H    1.1134200330    0.3104149207   -1.8747019379
 H    2.8148914743   -1.5125969914   -1.3592267973
 H    3.1910387053   -1.8966721772    1.1758690179