18

 C   -0.1616759290    1.4935352711   -0.1853316895
 C    0.0231078731    0.0006336377   -0.0347973451
 C   -1.1850346273   -0.8679168333    0.4065471148
 O   -0.4084366675   -1.5425878324    1.4212184603
 C    0.7609409789   -0.7607454157    1.1269178425
 C    1.7028854188   -1.4572276053    0.1082616542
 C    0.9425404276   -0.7357731079   -0.9924786634
 N    1.0289609694   -0.6304028818   -2.2510032127
 O    2.0504522425   -1.4523072649   -2.7595811834
 H    0.8011194011    2.0049066963   -0.2796172872
 H   -0.7416642192    1.7183422337   -1.0868133983
 H   -0.6927232666    1.9128638794    0.6754360900
 H   -1.9995670320   -0.2830784554    0.8536199348
 H   -1.5989512022   -1.5561612779   -0.3385521129
 H    1.1961319127   -0.2913614881    2.0123054143
 H    2.7515029822   -1.1458236549    0.1679668800
 H    1.6556405162   -2.5488264973    0.1079560821
 H    2.0122148113   -1.2642995632   -3.7035796707