23

 C   -0.0523868782    1.5439699238    0.0062351972
 C    0.0332353626    0.0306112746    0.0433074833
 C   -1.1870494809   -0.6790635115   -0.5123842881
 C    1.3815673310   -0.6306755011   -0.1848004323
 O    2.5355508275    0.1492450354   -0.3319652552
 C    0.7679467396   -0.6564781826    1.1925866422
 C    1.3943403695    0.0875621682    2.3301783709
 C    0.6568807062    0.2322255108    3.6407745127
 C    1.8636261425   -0.6684720122    3.5500451449
 H    0.8914376625    2.0146702631    0.2864629596
 H   -0.3130572470    1.8907029773   -1.0016989250
 H   -0.8288840188    1.9101418651    0.6871498369
 H   -1.3809311023   -0.3823685704   -1.5507147047
 H   -1.0624800561   -1.7668316500   -0.4951002989
 H   -2.0838937309   -0.4408216042    0.0723034397
 H    1.3966442527   -1.5620974735   -0.7533595223
 H    2.5185609296    0.5431659329   -1.2104618889
 H    0.3449005863   -1.6149562473    1.4881190894
 H    2.0175836113    0.9231186825    2.0356174599
 H    0.7475522654    1.1664112121    4.1844572107
 H   -0.3180064157   -0.2368497524    3.7269886504
 H    1.6982977674   -1.7408742970    3.5757966859
 H    2.7838346358   -0.3519469736    4.0285868617