21

 C    0.1805349335    1.4526130043    0.2657147369
 C   -0.1476149224    0.0011646987   -0.1099088574
 C    0.5737355967   -0.4707707366   -1.3444233522
 C    2.0176456580   -0.9484658660   -1.3206404512
 C    0.9308612868   -1.8998221241   -1.7624392435
 O    0.6155765274   -3.0418071159   -1.0397610315
 C    0.5022753396   -1.6258113726   -3.1829172587
 C   -0.9188485768   -1.1245282760   -3.2234341042
 C    0.1665120214   -0.1814928712   -2.7759409788
 H    1.2505394275    1.5750693292    0.4637146144
 H   -0.0876047176    2.1406998334   -0.5432189545
 H   -0.3667949046    1.7624369327    1.1615757164
 H    0.1035583477   -0.6646109079    0.7246573957
 H   -1.2294247334   -0.0996496333   -0.2655016582
 H    2.7477112110   -0.5608154244   -2.0268212730
 H    2.4099179252   -1.1507334643   -0.3274366542
 H    1.3468824749   -3.6636053675   -1.1181132552
 H    1.0242863934   -1.9469499714   -4.0779917143
 H   -1.3198852690   -0.9406025690   -4.2159286269
 H   -1.6456122101   -1.5025886631   -2.5099636322
 H    0.4198050609    0.7112022649   -3.3369077173