15

 O   -0.0481318986    0.1823952440    0.6501340655
 C   -0.0312768448    1.2637287862    0.1347317143
 O   -1.1405063367    1.8907603771   -0.3148230245
 C   -0.8490684707    3.2031832656   -0.8337514962
 C    0.5910309528    3.5403573337   -0.4090955019
 N    0.6603904780    4.3106319860    0.8471704564
 C    1.3596110700    3.6107822512    1.6567859276
 N    1.8986973914    2.4203055999    1.1861014471
 C    1.1993765542    2.1621927847   -0.0729062872
 H   -0.9658729771    3.1735815438   -1.9216024771
 H   -1.5684874596    3.9038262104   -0.4069285490
 H    1.1117376085    4.0866058701   -1.2004898746
 H    1.5894591596    3.9253565590    2.6705656362
 H    1.9814347994    1.6392324627    1.8251511225
 H    1.8576538536    1.7290454055   -0.8290198691