12

 C    0.0812290786    1.4124020509   -0.0512331906
 N    0.0822205316   -0.0287634773   -0.0098031206
 N    0.1844690709   -0.7816016498   -1.1585617943
 C    0.1530495814   -2.0092281732   -0.7449087227
 N    0.0354436383   -2.0899046467    0.6173686865
 C   -0.0143210160   -0.7903370234    1.1385198148
 O   -0.1155874566   -0.4369132340    2.2951461359
 H    1.0118301582    1.7888380239   -0.4860003824
 H   -0.7631976522    1.7832215317   -0.6396211548
 H   -0.0091404047    1.7587872944    0.9796322703
 H    0.2123494991   -2.8683017749   -1.3940797000
 H   -0.0116410185   -2.9143480417    1.1897652780