17

 C   -0.0882199634    1.5782899512    0.0182403985
 C    0.0214193819    0.0438670008    0.0297772853
 C    0.8305575907   -0.5246185107   -1.1361168188
 C    1.8658968146   -1.2855190039   -0.7149407510
 C    1.8276425331   -1.2838380490    0.7366050576
 C    0.7794063406   -0.5270408804    1.1957517341
 N    0.7305406522   -0.5038273281    2.5612519597
 C    1.7538624045   -1.2522476737    2.9307604389
 N    2.4598234572   -1.7558383359    1.8582267733
 H    0.9051058896    2.0359887348    0.0316026699
 H   -0.6166730736    1.9278521474   -0.8743592247
 H   -0.6348801684    1.9246627821    0.8996914186
 H   -0.9951120175   -0.3752728452   -0.0118180150
 H    0.5798155303   -0.3186364895   -2.1689908388
 H    2.5826774909   -1.7982236302   -1.3429676293
 H    2.0409173696   -1.4711768711    3.9482893266
 H    3.2711289776   -2.3478006885    1.9113307950