9

 O    0.0556733333   -0.0802893251    0.0029408268
 C   -0.0228494767    1.1271113793    0.0067438092
 C    1.1866256525    1.9690367683    0.0009002175
 N    2.1397253378    2.6236654081   -0.0037320426
 C   -1.2497510048    1.8668385049    0.0170870512
 C   -2.2968159133    2.4802206838    0.0258633466
 C   -3.4636154783    3.1687581799    0.0356559759
 C   -4.5040447063    3.7818698009    0.0443804588
 H   -5.4186917343    4.3235557298    0.0520613167