15

 N   -0.0871336887    1.2294460929   -0.4929174122
 C   -0.0185604516    0.0463888469   -0.0937037715
 O    1.0548606602   -0.7061737321    0.3433892743
 C    0.1912924151   -1.8725014779    0.5796322712
 C   -1.0324076905   -1.0643833761    0.1052704383
 C   -1.9123072687   -0.9306986135    1.3552350507
 O   -1.1011567446   -1.3489132202    2.4687515727
 C   -0.0320138520   -2.0943389601    2.0556804574
 N    0.6782690441   -2.8332329574    2.7888007492
 H    0.8232001020    1.6918501802   -0.4744793784
 H    0.5504376691   -2.7467773325    0.0418198386
 H   -1.5712988486   -1.3804034655   -0.7858377806
 H   -2.2392981400    0.0949124816    1.5368962432
 H   -2.7901342128   -1.5835989666    1.2970789181
 H    0.3431813769   -2.8190015998    3.7541779391