18

 O    0.1119917127    1.4557274130   -0.0329482446
 C    0.0438688618    0.0392175587   -0.0341817054
 C    0.7013453637   -0.5638976928    1.1985161113
 C   -0.1307278202   -1.2657364432    1.9686394510
 C   -1.5059773144   -1.3402839005    1.3735806201
 C   -2.6139800733   -0.3538200308    1.8323578912
 N   -2.0536316678    1.0185945017    1.7826674045
 C   -2.5377197132    0.3749401590    0.5353037343
 C   -1.4023990295   -0.5387411726    0.0322845057
 H   -0.3510449930    1.7217839953    0.7765029108
 H    0.5527516437   -0.2674513522   -0.9551701015
 H    1.7427088084   -0.3564067532    1.4227190091
 H    0.1319884676   -1.7229943585    2.9169117396
 H   -1.9018837114   -2.3538231406    1.2670001638
 H   -3.4661678672   -0.5651018821    2.4664960710
 H   -2.7857493400    1.6511538608    2.1015664828
 H   -3.3182005653    0.8412265587   -0.0524654464
 H   -1.6821944525   -1.1082934909   -0.8542668074