17

 C   -0.0216531192    1.5555621523   -0.0892355531
 C   -0.0407402752    0.0576942373   -0.0224106878
 C    1.1977806625   -0.7931636024   -0.3136505435
 C    0.6465989374   -1.0576205532    1.0129343379
 O    1.2943153626   -0.8361345814    2.1791304953
 C   -0.5981271997   -1.9334168443    0.9327668212
 O   -1.2045398729   -2.0871277183    2.1973243227
 C   -1.2473411438   -0.7463325864    0.1720489793
 O   -2.4197894344   -0.4370990357    0.2114655774
 H    0.8428575974    1.9553728918    0.4521826817
 H    0.0404606071    1.9151845723   -1.1226255352
 H   -0.9326816521    1.9642728265    0.3562206397
 H    1.1823552915   -1.5605159791   -1.0869491545
 H    2.1059685052   -0.1956266910   -0.3150261469
 H    0.6518612146   -1.0473948838    2.8758796057
 H   -0.4750335675   -2.9029713448    0.4347154206
 H   -2.0875557635   -1.6958193697    2.1220150395