17

 C   -0.0000639242    1.5657695277   -0.0888050139
 C    0.0279062362    0.0371710693    0.0142755625
 C   -1.3704854393   -0.5618970186    0.0671963744
 C   -2.2166093545   -0.5653565804   -1.2269032644
 O   -2.3999779908   -2.0009590156   -1.1597910489
 C   -1.5457726218   -2.1115913115   -0.0098269279
 C   -0.3351391868   -2.8973565062   -0.2790236699
 N    0.6244320303   -3.5100698824   -0.4783176650
 H    1.0138773966    1.9730424460   -0.1309461529
 H   -0.5268446949    1.8966784562   -0.9907321184
 H   -0.5052813049    2.0136954352    0.7739034574
 H    0.5738420261   -0.3852887407   -0.8374392086
 H    0.5828339002   -0.2642020286    0.9110374910
 H   -1.9219876284   -0.1604424559    0.9216241059
 H   -3.1741016238   -0.0361335703   -1.1943202285
 H   -1.6697374358   -0.2723035342   -2.1318238068
 H   -2.0680122342   -2.5655325700    0.8407558240