16

 N   -0.1375578936   -1.1812612033   -0.2311586428
 C   -0.0837403888   -0.0351117745   -0.0943212120
 C   -0.0113068507    1.4323895162    0.0464995290
 O   -0.6303253625    1.8651391935    1.2576321361
 C    0.4175433687    2.3010536786    2.1262229285
 C    1.4109356280    1.1457235386    2.4668519979
 C    2.2817463774    1.6369989728    1.3069397455
 C    1.5044470031    2.9473888043    1.2338249861
 C    1.4218862789    1.9721280861    0.1011647814
 H   -0.5592614221    1.8703557092   -0.7968399617
 H   -0.0355608726    2.8580859915    2.9435020099
 H    1.9028672728    1.3190859681    3.4276703675
 H    1.0106667833    0.1287431821    2.4386359120
 H    3.3466825767    1.4776675025    1.1904158779
 H    1.8155446419    3.9804299526    1.1663664404
 H    1.9295944597    2.1774918616   -0.8325983456