20

 C   -0.3984141790    1.3235184294   -0.6409964991
 C   -0.3033431117   -0.0525506157    0.0186563335
 C    0.8179646440   -0.1356268607    1.0846746172
 N    0.5660365741    0.8550597071    2.1277955524
 C    0.5311353449    0.5094330136    3.3378412070
 O    0.2858623079    1.4313237337    4.2889614630
 C    0.2654472647    0.9396953194    5.6241373239
 C    0.9902381572   -1.5230153422    1.5389081706
 C    1.1162420144   -2.6587775772    1.9155362800
 H    0.5301978505    1.5737254818   -1.1666444253
 H   -1.2110570371    1.3440892614   -1.3735571054
 H   -0.5806743930    2.1001258254    0.1046522466
 H   -1.2506619785   -0.3112103533    0.5051308877
 H   -0.1109070601   -0.8254391910   -0.7334767793
 H    1.7526157104    0.1701036027    0.5908666830
 H    0.6896133554   -0.5101215233    3.7111252857
 H   -0.5213122978    0.1885521609    5.7641191325
 H    1.2323312422    0.5069909812    5.9081648187
 H    0.0570743748    1.7980786199    6.2637811834
 H    1.2371923669   -3.6660697629    2.2299747343