19

 C   -0.3792719568    1.3186085167    0.1473278572
 C    0.0671643894   -0.1351416246    0.0686731817
 C    0.9375113466   -0.5950643069   -1.1332415071
 O    2.0042971292   -0.9913690954   -0.2038727075
 C    1.2817514963   -0.5291421882    0.8845983643
 N    1.5940496364   -0.4599569085    2.0955612450
 C    0.4573493169   -1.7402539665   -1.9808412837
 C    1.3966803369   -2.7937476909   -2.4319876443
 N    0.3566993013   -3.0956995102   -1.4270340280
 H    0.4537201706    2.0001110175   -0.0516188407
 H   -1.1729817574    1.5245068712   -0.5776034323
 H   -0.7625176729    1.5413474927    1.1467397392
 H   -0.7735225337   -0.8130300890    0.2455157423
 H    1.2866018762    0.2340694174   -1.7594471578
 H    2.5376671908   -0.8130160079    2.2632297975
 H   -0.3716270408   -1.4650041256   -2.6319188110
 H    1.2567517895   -3.2697677403   -3.3978514847
 H    2.4258429158   -2.7243458635   -2.0923113662
 H    0.7980887659   -3.1121012278   -0.5093001936