19

 C   -0.1803159894    1.5904475536   -0.0307430456
 C   -0.0452442414    0.0754722143    0.0056751865
 C    1.1837507557   -0.6058143112   -0.6496881799
 C    2.1383117661   -0.3054498811    0.5572547524
 C    2.5883269329   -1.7788112725    0.6772860713
 C    1.0950255211   -1.8456071788    0.2909993586
 O    0.2973232927   -2.9409386337    0.0230863686
 C    0.7171910888   -0.6063638956    1.1670709899
 O    0.3735337303   -0.7277287711    2.5025134241
 H    0.7658375894    2.0913808298    0.2012368997
 H   -0.5017939000    1.9336839577   -1.0200142513
 H   -0.9296929637    1.9372082454    0.6905828301
 H   -0.9949859208   -0.4142067629   -0.2371047386
 H    1.4817128338   -0.6252595931   -1.6961031950
 H    2.7326076789    0.5944526245    0.6944803392
 H    3.3049483472   -2.1360676831   -0.0682563076
 H    2.8564489068   -2.1264112468    1.6794317231
 H    0.1011654346   -3.3791382290    0.8589421727
 H    0.3374296070    0.1512041536    2.8949855918