19

 C    0.5735108068    1.5140416908    0.0105417479
 C    0.0871515845    0.0555032037    0.0019317720
 C    0.5166901366   -0.6492098888   -1.2723693499
 O    1.9184423188   -0.8515128581   -1.4775346045
 C    1.0922485121   -2.0015669853   -1.2813077345
 C    1.2875642716   -2.7986944179   -0.0102264807
 C    1.0867178921   -2.0147568864    1.2681740156
 O    1.9120298409   -0.8668063216    1.4798616384
 C    0.5111794301   -0.6623639440    1.2707300569
 H    1.6659245826    1.5384201716    0.0130497099
 H    0.2165182992    2.0519780764   -0.8733415849
 H    0.2126429850    2.0428081757    0.8983741313
 H   -1.0132951880    0.0531422604   -0.0004646567
 H   -0.0105208003   -0.3094248817   -2.1665627059
 H    0.9651182166   -2.6077380047   -2.1800870003
 H    0.5734513558   -3.6329789475   -0.0160932507
 H    2.2888481618   -3.2483862263   -0.0103811059
 H    0.9557116220   -2.6301854544    2.1600779924
 H   -0.0199123686   -0.3318328821    2.1660950995