16

 C   -0.0152297898    1.5033950239    0.0451361099
 C   -0.0053020079    0.0069997050    0.0395286053
 C   -0.0312991883   -0.8112453035   -1.0671614844
 N   -0.0110881122   -2.1622737415   -0.6879085882
 C    0.0275302186   -2.1735579449    0.6726530168
 C    0.0328072730   -0.8820614995    1.1654332882
 N    0.0723946154   -0.9016313804    2.5491754827
 C    0.0898423900   -2.1738488828    2.8585307050
 N    0.0639451209   -3.0185827921    1.7495073856
 H    0.8757349566    1.9087111372    0.5383818756
 H   -0.0468651394    1.9028247125   -0.9728516153
 H   -0.8821167980    1.8968542886    0.5883570901
 H   -0.0628341746   -0.5534092299   -2.1140317159
 H   -0.0248386787   -2.9423527195   -1.3182354946
 H    0.1210637258   -2.5830425156    3.8575276613
 H    0.0714007084   -4.0229552074    1.7666640980