22

 C   -0.0622100631   -2.8556768193   -0.1192918160
 C   -0.1535961055   -1.7175302720    0.9043805093
 C   -1.3155524465   -0.7904959921    0.6050854088
 C   -2.6584844668   -1.0034188436    1.2189879387
 N   -1.8572394597    0.1685036485    1.5696305528
 C   -1.3062624164    0.2410593730    2.9130885814
 C   -2.1469407802    1.1223643527    3.8455677621
 C   -2.9019222231    2.2756877734    3.2207495718
 O   -2.1587697627    0.9010449051    5.0342342533
 H    0.7947965034   -3.5032354489    0.0874850135
 H   -0.9657697822   -3.4736044038   -0.1020412014
 H    0.0528931124   -2.4645663455   -1.1359690345
 H   -0.2492653787   -2.1377274063    1.9105971471
 H    0.7811729459   -1.1414859578    0.8941906089
 H   -1.2911645720   -0.3846179510   -0.4070283300
 H   -3.5719892647   -0.8117043867    0.6619982447
 H   -2.7379406241   -1.7986345831    1.9604779587
 H   -1.1743884076   -0.7247537224    3.4206857596
 H   -0.3151258163    0.7144887523    2.8550083932
 H   -3.6798802214    1.8930501839    2.5527801739
 H   -3.3471366189    2.8879149044    4.0058736565
 H   -2.2358420119    2.8768023393    2.5932786276