18

 N    0.0501349611   -1.1517837657    0.2012317992
 C    0.0113988487   -0.0044125118    0.0702664859
 C   -0.0237875417    1.4469300565   -0.1095948863
 C    1.3704145209    2.0533840104   -0.0710042570
 C    1.6126545278    3.5551850437   -0.1129415067
 C    0.4585014024    4.5118803825    0.1927206133
 C    0.3426568692    4.4183452121    1.7290295891
 O    0.8671850037    3.1333264349    2.0896491635
 C    1.8569448684    2.7844667210    1.1571186351
 H   -0.5257674128    1.6612903596   -1.0605945751
 H   -0.6346603730    1.8747007991    0.6915217979
 H    2.1227995033    1.4677412854   -0.5910225972
 H    2.4322258780    3.9092839872   -0.7263385759
 H    0.6925712266    5.5277867737   -0.1345749636
 H   -0.4738180384    4.2191913559   -0.3015093755
 H    0.9337483271    5.2099969350    2.2118947878
 H   -0.6829221297    4.4740825524    2.1036883658
 H    2.8374750883    2.5927335581    1.5809233200