17

 C   -0.2091519171    1.4139447889   -0.2011146521
 C   -0.0107009037   -0.0681516356    0.0676369729
 O    0.6276817688   -0.6619908520   -1.0689048319
 C    1.4367546139   -1.7509930839   -0.6614156400
 C    1.8339649049   -1.4526832539    0.7709912083
 O    2.2947731424   -0.1268474517    0.9761063823
 C    0.9046245770   -0.4009677641    1.2351323714
 C    0.4771584771   -0.2887880400    2.6529552919
 O   -0.6623117094   -0.0924419774    2.9955983062
 H    0.7590617244    1.9073985678   -0.3177554278
 H   -0.7858372668    1.5522181531   -1.1189474245
 H   -0.7549780630    1.8755586421    0.6264935213
 H   -0.9797431110   -0.5526785607    0.2643454016
 H    0.8932127949   -2.7100317962   -0.6877485792
 H    2.2911464044   -1.8151863222   -1.3431140366
 H    2.2520684904   -2.2209029644    1.4170784698
 H    1.3118984127   -0.3953749396    3.3791327766