23

 C    0.0819825670    1.5246246201    0.1243508738
 C    0.0494975413    0.0042945127   -0.0673854076
 C   -1.3568557187   -0.5789630871    0.0403958562
 C   -1.5961886328   -2.0878912048    0.0376941543
 C   -1.5347968422   -2.5825392970    1.4986369050
 C   -1.2634230580   -1.3743544181    2.3895959268
 C   -2.1441490557   -0.5758615241    1.3911087647
 C   -2.7961488781   -1.9593643053    0.9449884686
 C   -4.2071379206   -2.4337529310    0.8367698137
 H    1.0966690903    1.9206635869    0.0177213065
 H   -0.5515660356    2.0299887999   -0.6134886549
 H   -0.2816833672    1.8074893057    1.1183025174
 H    0.4547430086   -0.2492951775   -1.0562547286
 H    0.7149569241   -0.4764165399    0.6585169619
 H   -1.9972755927   -0.1217796281   -0.7255402440
 H   -1.4657460315   -2.7837782021   -0.7832040752
 H   -1.3602188657   -3.6294677640    1.7162388618
 H   -1.7656164012   -1.4813390298    3.3557085092
 H   -0.2326137126   -1.0423666979    2.5563939338
 H   -2.6855212488    0.3117712238    1.7148307638
 H   -4.7857086660   -1.8288035961    0.1283270105
 H   -4.2386472743   -3.4715383437    0.4862818887
 H   -4.7245119996   -2.3958617325    1.8029239832