12

 C    0.0443909569    1.4633389772    0.0040519006
 C   -0.0586664027   -0.0182156463   -0.0180611449
 N   -1.0861808303   -0.7205596130   -0.2722238503
 C   -0.6575150796   -2.1090674605   -0.1623254022
 C    0.8204080477   -2.0488985900    0.2055561256
 O    1.6290833141   -2.8971084195    0.4089010268
 O    1.1177899158   -0.6903943797    0.2764186193
 H    0.7933928813    1.8017328276   -0.7187712096
 H   -0.9250708120    1.8976196297   -0.2384761170
 H    0.3672050481    1.8057186897    0.9922641678
 H   -1.2233343909   -2.6475722921    0.6056700769
 H   -0.7976681585   -2.6514559032   -1.1036715431