17

 O    0.2602234148    1.3410630371    0.3411316740
 C    0.0368980236   -0.0032761432    0.1359819300
 C   -0.8163503571   -0.5733802836   -0.9970841050
 O   -1.3530660876   -1.5923613365   -0.1070651471
 C   -0.6689066356   -1.0095440026    1.0071076778
 C    0.8289783736   -1.1068858812    0.8234597452
 C    1.4948544372   -2.2551800820    0.1440499395
 C    2.9567082462   -2.3524826685    0.0299282928
 O    2.2483097188   -3.1321683967    0.9927574994
 H    1.1486431906    1.5558786302    0.0364828055
 H   -1.6043843064    0.1227667032   -1.3043198050
 H   -0.3214067071   -0.9981207295   -1.8775855667
 H   -1.1851185798   -0.9526343435    1.9575537524
 H    1.3721030526   -0.7191039941    1.6831734989
 H    0.8836995164   -2.7743107200   -0.5919598032
 H    3.4031833293   -2.9106389065   -0.7924537973
 H    3.5817814805   -1.5591581128    0.4402322588