18

 C   -0.1022892146    1.4970337286   -0.0362112285
 C   -0.0659492337   -0.0215123524   -0.0202154073
 O   -1.3948149544   -0.5001908686    0.0285372123
 C   -1.4674297227   -1.9114182421    0.0386459727
 C   -2.9019779559   -2.3251528472    0.0098695837
 N   -3.5164312068   -2.8144500105    1.0776062296
 N   -4.7659595256   -3.0379337356    0.6107715000
 C   -4.8499264913   -2.6838901738   -0.6883098036
 N   -3.6870264425   -2.2308074022   -1.1058693447
 H    0.9132114188    1.9027165205   -0.0741277326
 H   -0.6546407956    1.8568900305   -0.9087321105
 H   -0.5958895620    1.8776411612    0.8624405488
 H    0.4437849712   -0.4072640088   -0.9198778129
 H    0.5037608562   -0.3865176767    0.8518989300
 H   -0.9514616124   -2.3273215402   -0.8415195973
 H   -0.9934417773   -2.3259416056    0.9410149017
 H   -5.4689350010   -3.4221237505    1.2204650163
 H   -5.7544063903   -2.7773977965   -1.2706347477