15

 O   -0.7801153743    0.9784289500   -0.5635855247
 C    0.1945287411    0.8544175671    0.1440221821
 C    1.3487294367    1.7104831425    0.0967225358
 C    2.3327364703    2.4123077387    0.0812680043
 C    3.4846325190    3.2544882887    0.0449684090
 C    3.9110164284    3.8573370816   -1.3111437892
 C    3.2928721445    4.7462088923   -0.3047556671
 C    4.6027428600    2.9581189613    0.9935680521
 O    4.6175449641    2.0629079999    1.7934849543
 H    0.2646363342    0.0466444866    0.9000808283
 H    4.9795305098    3.9271615174   -1.4852614228
 H    3.3251273192    3.5389912505   -2.1638779827
 H    2.2662230233    5.0616325968   -0.4399022624
 H    3.9236344069    5.4454753701    0.2338320447
 H    5.4561795567    3.6687607365    0.8900385784