17

 O   -0.0186267479    1.4627951124    0.2385444236
 C   -0.0150217821    0.0729080956    0.0408610527
 C   -0.4869139668   -0.8323070041    1.1423610809
 C   -1.3489385914   -0.6141837851   -0.1023186986
 C   -2.6429376793    0.0935182066   -0.0396044064
 C   -3.9157798731   -0.3471235220   -0.3619917639
 C   -4.7572647236    0.7496032736   -0.0854476265
 N   -4.0754959350    1.7975946241    0.3690018643
 N   -2.7982683179    1.3712548535    0.3957179577
 H    0.6920076727    1.6770321474    0.8523615983
 H    0.7888779814   -0.2782894868   -0.6044112245
 H   -0.0078350616   -1.7948551814    1.2831126961
 H   -0.8344384201   -0.3507653829    2.0502460533
 H   -1.3603445140   -1.4411292017   -0.8044851485
 H   -4.1869489759   -1.3223733750   -0.7333983051
 H   -5.8294572354    0.8176059702   -0.1991289499
 H   -2.0444433200    2.0004635256    0.6201035665