20

 C    0.1416621174    1.4440064627    0.2165561487
 C   -0.1371791072   -0.0226937040   -0.1364657795
 C    0.5855786310   -0.4654267495   -1.3729582845
 C    0.3532188781   -0.0171211892   -2.8196552679
 C    1.3450915618   -1.1531571347   -3.1996507221
 O    1.2696392254   -1.8337920850   -4.4026920337
 C    2.6623158590   -0.6639260532   -2.5678005547
 N    2.0427053749   -0.8531095077   -1.2134937875
 C    1.0527965630   -1.8073469079   -1.7957765563
 H    1.2120998141    1.6006401107    0.3791037975
 H   -0.1797667979    2.1151065722   -0.5872146061
 H   -0.3895091872    1.7369904342    1.1269631571
 H    0.1729017493   -0.6686957445    0.6923752881
 H   -1.2147161520   -0.1781420886   -0.2760780584
 H   -0.6644923341   -0.2596720872   -3.1380311849
 H    0.6113121591    1.0073436005   -3.1136086153
 H    1.2659179767   -1.1924605685   -5.1218509335
 H    3.4781053196   -1.3826398117   -2.6805657019
 H    3.0143730466    0.3511834545   -2.7903760881
 H    0.8854377824   -2.8163592431   -1.4422871773