19

 C   -0.0313627277    1.5211892809    0.1024951342
 C    0.0238288828    0.0065185116   -0.0148033241
 C    0.7502956799   -0.4807887429   -1.2747383195
 C    1.0677431009   -1.9457743150   -1.1796728030
 C    1.0025569203   -2.6123017454   -0.0180009816
 C    0.6439279778   -1.8830701924    1.2668748255
 O    0.6960932936   -0.4809975569    1.1425469005
 C    1.2427589490   -4.0074440574    0.0944181335
 C    1.4334471692   -5.1865599834    0.2559274526
 H    0.9808599742    1.9333870878    0.1599388112
 H   -0.5360922827    1.9568521665   -0.7651753689
 H   -0.5724654511    1.8153430090    1.0055755996
 H   -1.0028542367   -0.3990373538   -0.0282388974
 H    0.1301974494   -0.2884743218   -2.1598669690
 H    1.6741147277    0.0987845664   -1.4181331750
 H    1.3479941803   -2.4725082503   -2.0868487716
 H   -0.3547172358   -2.2138279126    1.6040395373
 H    1.3544592986   -2.1525453581    2.0550769192
 H    1.6045611903   -6.2274441322    0.3765291664