17

 N   -0.0705734266    1.4576422092   -0.1607169191
 C   -0.0324553144    0.0142692281   -0.0078778043
 C    0.7827254699   -0.5239017104    1.2036965671
 N    0.2158390687    0.0344085785    2.4376310984
 C    0.8209893936   -2.0756816131    1.2034907358
 O    1.4953171670   -2.5864139363    2.3355167322
 C    2.1793110229   -0.0559740338    1.0913914637
 N    3.2885777574    0.2503473268    0.9806924162
 H   -0.2874030097    1.8799199773    0.7383217424
 H    0.8491399092    1.8022703652   -0.4212080487
 H   -1.0586121067   -0.3577863691    0.1172626470
 H    0.3570997115   -0.4332166156   -0.9278926979
 H   -0.7582259527   -0.2558538667    2.4970075294
 H    0.6852679997   -0.3956608885    3.2311959553
 H   -0.2101502434   -2.4401995121    1.2670795500
 H    1.2558302916   -2.4458867179    0.2638796721
 H    2.4391882420   -2.4278268115    2.2175046306