21

 C   -0.0643054800    1.5654255034   -0.0910315535
 C   -0.0187856388    0.0295950936   -0.0086400768
 C    1.1561901727   -0.5598103051   -0.8699786984
 C    2.0272290836   -0.6460424361    0.4092445125
 C    0.7360992891   -0.5338559155    1.2575573470
 C    0.7478829859    0.2616101654    2.5467325947
 O    1.5453968492   -0.4605739728    3.4766393057
 C   -1.3386772795   -0.5309480467   -0.2472797356
 C   -2.4290044330   -1.0021276416   -0.4405676669
 H    0.9302801133    1.9982088654    0.0530232497
 H   -0.4271658934    1.8729278351   -1.0762238073
 H   -0.7377799712    1.9869069568    0.6608157790
 H    0.9023491654   -1.5446271183   -1.2670787160
 H    1.5075872666    0.0726645172   -1.6891202719
 H    2.6317123427   -1.5437278093    0.5455721973
 H    2.6761162288    0.2262491060    0.5327425430
 H    0.3495270317   -1.5329619608    1.4780476896
 H    1.1599994247    1.2679578844    2.3746871503
 H   -0.2837580019    0.3857998611    2.9155782911
 H    1.5932198329    0.0493190433    4.2905675949
 H   -3.3891549689   -1.4212204356   -0.6128408282