21

 C   -0.0561298897    1.5125212550    0.0224274127
 C    0.0250636379    0.0132317063   -0.0181601784
 C    0.8638048127   -0.7888193462   -1.0204119821
 C   -0.1346264358   -1.9832676900   -0.8369004743
 O   -0.6788757141   -2.5535684717   -1.9965866795
 C    0.3876917437   -2.9709684320    0.2182124176
 C    0.5523661694   -2.0940878394    1.4865803896
 C   -0.2996818348   -0.8552110812    1.1912761588
 C   -1.0878849931   -1.0230141277   -0.0790570630
 H    0.8819972923    1.9537987710    0.3811480099
 H   -0.2565053329    1.9251184982   -0.9732688919
 H   -0.8561472624    1.8495225791    0.6903569261
 H    0.7610791608   -0.3771212238   -2.0286743635
 H    1.9251658353   -0.9616391233   -0.8004661502
 H    0.0036351998   -3.0890949143   -2.4153312245
 H   -0.3639923300   -3.7528006935    0.3733854696
 H    1.3213753110   -3.4554570529   -0.0911596003
 H    0.1906612638   -2.6119147137    2.3797310876
 H    1.5998829739   -1.8333484811    1.6734481597
 H   -0.7599180288   -0.3243762274    2.0182396204
 H   -2.1575974088   -0.9257249015   -0.2098869042