21

 C    0.0486385067    1.4960580864    0.1021397290
 C    0.0386293729    0.0018309444   -0.0131015504
 C   -0.9782031946   -0.8790680513    0.7463906148
 C   -1.0612672214   -2.2279509980    0.0329373755
 C    0.4635664268   -2.0599054654   -0.2225435763
 C    0.5062566884   -1.0346609025    0.9875323979
 C    0.5351356266   -0.8503451003   -1.1645938890
 C    0.2777405245   -0.7706889748   -2.6367295893
 C    1.6698116645   -0.5119700204   -2.0769902013
 H    1.0409380274    1.9077475731   -0.1151504065
 H   -0.6652423780    1.9585864098   -0.5901182826
 H   -0.2247288802    1.8127426282    1.1143219470
 H   -1.7102397411   -0.4239926993    1.4029503254
 H   -1.2689014671   -3.0365455666    0.7400077314
 H   -1.7072951713   -2.3274320121   -0.8470789234
 H    1.1146844010   -2.9203570454   -0.3675129498
 H    1.1156467677   -0.9557269408    1.8766289860
 H    0.1144437132   -1.6939420561   -3.1846942755
 H   -0.2772993304    0.0780734456   -3.0243075598
 H    2.0405995082    0.5084721169   -2.0939800837
 H    2.4351794262   -1.2618565914   -2.2524089793