17

 O    0.0041894176    1.3413439142   -0.2582626310
 C    0.0431878451   -0.0666976341   -0.0628756574
 C    0.2745700448   -0.5196125959    1.3964211486
 C   -1.2686442026   -0.5832000721    1.6090659341
 O   -1.6698573197   -1.7196423467    2.3418310293
 C   -1.8197464655    0.6527550113    2.1576654863
 C   -2.2886515599    1.6734586158    2.5913443153
 C   -1.3963267180   -0.6504874284    0.0258227867
 O   -2.4013229723    0.0337538060   -0.6435622101
 H   -0.2963221391    1.7566618239    0.5599184400
 H    0.7036182579   -0.4646425755   -0.8345147200
 H    0.6871936351   -1.5295907677    1.4497696795
 H    0.8456497403    0.1462030242    2.0454381436
 H   -2.6244843920   -1.6744365806    2.4680325369
 H   -2.7088526291    2.5659153002    2.9865134050
 H   -1.4314649736   -1.7114515476   -0.2430819632
 H   -2.0565319191    0.9276731331   -0.7856402436