17

 C   -0.3893556260    1.3580784799   -0.1172795132
 C   -0.0108051602   -0.1213275277    0.0480420538
 C    0.8244504743   -0.6794112889   -1.0887185615
 C    1.9645111887   -1.2378448000   -0.6748454819
 C    2.1053703501   -1.0927665100    0.8040090349
 O    2.1461733270    0.2664166509    1.2618364460
 C    0.8713377583   -0.3928439224    1.2650956683
 C    0.2956307052   -0.6441003988    2.6107743990
 O   -0.8782032918   -0.8340792244    2.8149904741
 H    0.5091734385    1.9800020261   -0.1491592984
 H   -0.9513196115    1.5136802875   -1.0430359644
 H   -1.0153025300    1.6894040010    0.7162298210
 H   -0.9311738448   -0.7074086033    0.1691114826
 H    0.5120195591   -0.5858982705   -2.1233796188
 H    2.7136424530   -1.7140859243   -1.2946859479
 H    2.6613098904   -1.7982124026    1.4153452753
 H    1.0516657598   -0.6394548225    3.4257724511