18

 C   -0.1861320075    1.4790967784    0.1381513377
 C    0.1719215031    0.0340714918    0.0158420910
 C    0.6172620735   -0.7417696212   -1.2383978264
 C    1.3813593493   -1.7425519656   -0.3023699149
 C    0.8857823458   -0.9171820318    0.8942894071
 C    1.5218811990   -0.7493054398    2.2486311980
 C    1.5306015150   -1.9953520256    3.0202426565
 N    1.5474537521   -2.9842546457    3.6168809155
 O   -0.5451826573   -0.9155751168    0.8303970412
 H    0.5854002532    2.1108018114   -0.3134578698
 H   -1.1312378319    1.6832630709   -0.3775098672
 H   -0.3083050956    1.7648299852    1.1863979825
 H   -0.2010226276   -1.1535511091   -1.8331053800
 H    1.2898989715   -0.1722305442   -1.8843269865
 H    1.0489336015   -2.7823208259   -0.3096001448
 H    2.4647712758   -1.7029625801   -0.4398775797
 H    2.5574991777   -0.4066635843    2.1377119000
 H    0.9786569225    0.0140066824    2.8148608399