17

 C   -0.0499449013    1.5761514830    0.0405333398
 C    0.0102455869    0.0479865481   -0.0220368045
 C   -1.3885566370   -0.5765180450   -0.0944868518
 N    0.8673630747   -0.4221791516   -1.1219384369
 C    1.8215766852   -1.2615269486   -0.6232008900
 C    1.8490899792   -1.3198288924    0.7351255400
 C    0.7532473526   -0.5080743399    1.2338929730
 O    0.4063530050   -0.2542727330    2.3711449339
 H    0.9549982728    2.0049962967    0.0045920457
 H   -0.6316772259    1.9857569330   -0.7918636744
 H   -0.5187676679    1.8728378704    0.9826742924
 H   -1.9501945739   -0.1918207371   -0.9532702144
 H   -1.3288779460   -1.6663855905   -0.1726355267
 H   -1.9371133972   -0.3302096925    0.8187488057
 H    0.4759249672   -0.5828820349   -2.0370044368
 H    2.4772915177   -1.7776015829   -1.3152740223
 H    2.5596404880   -1.8566292528    1.3434388373