17

 O   -0.2060722382    0.0659857323   -0.3471879257
 C   -0.0503090487    1.1870264274    0.0692814882
 C    1.2664636379    1.9275739998    0.0242946924
 C    2.5355798438    1.1540656984   -0.4863787620
 C    2.6574251916    2.1273002926   -1.6622240687
 C    1.4068498918    2.1012509585   -2.4866288737
 C    1.4085622523    2.8825616524   -1.2001113213
 C    1.5504701234    2.6649230195    1.3102094158
 O    0.8492423448    2.6388915016    2.2891956334
 H   -0.8986775655    1.7765252042    0.4739930383
 H    3.3644080579    1.2145396939    0.2229470331
 H    2.3454368165    0.1076349153   -0.7329844857
 H    3.5861827509    2.5390082890   -2.0355380405
 H    1.4239916681    2.7194999476   -3.3782058889
 H    0.8250837549    1.1886769230   -2.5802224513
 H    1.2075674432    3.9463228395   -1.1658709446
 H    2.4935618654    3.2584116450    1.2878883614