13

 C   -0.0199529595    1.5239634866   -0.0074237936
 C   -0.0126073691    0.0386933877   -0.0095589298
 N   -0.0425205264   -0.7451583052   -1.0595043756
 N   -0.0232528620   -2.0897434018   -0.6722594180
 C    0.0182981876   -2.0401918941    0.6219085817
 O    0.0556654821   -2.9136858339    1.6439508632
 N    0.0904806179   -2.1521725727    2.8412219808
 C    0.0728686185   -0.9058395945    2.4885577282
 N    0.0280788267   -0.7645275222    1.1233682937
 H    0.8802939258    1.9341304810    0.4636196289
 H   -0.0564662849    1.8649371240   -1.0429212623
 H   -0.8905402228    1.9252851819    0.5232031703
 H    0.0918830360   -0.0984888468    3.2031592026