23

 C   -0.1112718231    1.5259812898    0.0116321172
 C    0.0801319580    0.0269439276   -0.0290722956
 C    0.7605270503   -0.6264729476   -1.2551998515
 C   -0.3521928403   -1.6844035491   -1.0656820471
 C   -1.0645947509   -2.2477350496   -2.2742128346
 C    0.0438775984   -2.7315909711   -0.0137523604
 C    0.9232780633   -2.0832483411    1.0819250402
 C    0.5856589404   -0.5869685444    1.2853035569
 O   -1.1560468587   -0.6822838836   -0.3637415653
 H    0.8482248626    2.0339720226    0.1561325653
 H   -0.5580990582    1.8799790425   -0.9215786126
 H   -0.7733019772    1.8088108356    0.8373373313
 H    0.6046151350   -0.0377404196   -2.1621188846
 H    1.8060942832   -0.9338679427   -1.1837798718
 H   -0.4009837306   -2.9110236713   -2.8392238446
 H   -1.9440476992   -2.8256721308   -1.9698822544
 H   -1.3969793347   -1.4406038347   -2.9329319175
 H   -0.8865561977   -3.1258869643    0.4101251241
 H    0.5738340030   -3.5733410672   -0.4751271828
 H    0.8345787833   -2.6317323636    2.0244147289
 H    1.9742542658   -2.1687825896    0.7848167377
 H    1.4642849246   -0.0485249109    1.6599481603
 H   -0.2131967074   -0.4604219069    2.0246708508