17

 N   -0.0189217344    1.4772018578    0.2219068600
 C   -0.0746164748    0.0572125333    0.0282855590
 C   -1.4481198025   -0.6087615527   -0.0002043243
 C   -2.2199356702   -0.2509905856   -1.2371573264
 C   -1.1403134631   -1.2901100765   -1.3395938135
 C    0.2257030180   -0.5873759904   -1.4155324587
 O    0.3981958407    0.4201532164   -2.3880939883
 C    1.3556636382   -1.5186161270   -1.4159323440
 N    2.2483360928   -2.2543457977   -1.4179684699
 H    0.9421809391    1.8036171198    0.2283189840
 H   -0.4867965212    1.9640832010   -0.5352731097
 H    0.5726766895   -0.4262741699    0.7629790507
 H   -1.9353747577   -1.0324730054    0.8684126120
 H   -3.2315848269   -0.6407836097   -1.2725965651
 H   -2.0948800273    0.7070117081   -1.7310412270
 H   -1.3213936623   -2.3128877028   -1.6428975125
 H    0.4073048121    0.0111447213   -3.2614428762