21

 C   -0.0722961732    1.5232908812    0.0428733488
 C   -0.0238849712    0.0082104243   -0.0045854567
 C   -0.7939193989   -0.7477400074    1.0322156384
 C    0.7295521940   -0.6942137632    1.1295812750
 C    1.5329183580   -1.9202247571    0.8651923133
 O    2.4017274527   -2.2871760374    1.6278299555
 C    1.2463648643   -2.6362455128   -0.4477034968
 C    1.2066505918   -1.6114434718   -1.5943142288
 C    0.0653571764   -0.5994200021   -1.4149513106
 H    0.8253252916    1.9617200870   -0.4076722527
 H   -0.9408809453    1.9018939813   -0.5086645756
 H   -0.1447856786    1.8896205095    1.0716461219
 H   -1.3414643939   -0.1933426065    1.7870095413
 H   -1.2514976839   -1.6917694153    0.7547561311
 H    1.1377942200   -0.0805066834    1.9256867492
 H    2.0234161916   -3.3901070590   -0.5923203096
 H    0.2829040111   -3.1601185123   -0.3848299581
 H    2.1668600905   -1.0811005631   -1.6242581484
 H    1.1029416995   -2.1232967015   -2.5568905132
 H   -0.8886312442   -1.0818587028   -1.6619587107
 H    0.1913055878    0.2110452924   -2.1405318934