20

 C   -0.3360498875    1.4930144462   -0.0652947237
 C    0.1171844022    0.0323611300    0.0516917815
 C    0.8357833835   -0.4710826390   -1.1826386238
 C    0.0217521890   -1.0091321018   -2.3471858857
 C    0.8866414134   -1.9419099413   -1.5279512077
 N    2.2069642276   -2.2053362915   -2.0192936995
 C    2.9903454223   -1.0807556391   -2.1532376754
 O    4.0738490601   -1.0320840224   -2.6888302582
 C    2.2157906882    0.0855146040   -1.5131171992
 H    0.5164751886    2.1636328147   -0.2146620387
 H   -1.0161796592    1.6271530652   -0.9129203106
 H   -0.8577030460    1.8157667718    0.8406579103
 H    0.7770487152   -0.0788422503    0.9225409597
 H   -0.7544835986   -0.6053245294    0.2450623560
 H   -1.0531319381   -1.0620472036   -2.2055361803
 H    0.3364267068   -0.7964850386   -3.3643435357
 H    0.4463995032   -2.6981295387   -0.8870244082
 H    2.4380004264   -3.0288043689   -2.5540829622
 H    2.2109828162    0.9313058920   -2.2059864433
 H    2.7456075467    0.4112013608   -0.6104648553