18

 C   -0.2047463884    1.5015351191    0.0119476329
 C   -0.0342647322   -0.0042210299    0.0030680868
 O   -1.3557002886   -0.5935321435    0.0133816101
 C   -1.4043937138   -1.9279959950    0.0062384670
 O   -0.4385119701   -2.6536429453   -0.0076850685
 C   -2.8396230349   -2.4175845738    0.0176655358
 N   -2.8430475213   -3.8594811275    0.0113700774
 C   -3.9925056155   -4.5756830294    0.0149120961
 O   -5.1044112326   -4.0882948002    0.0253702070
 H    0.7774024754    1.9830841279    0.0046579560
 H   -0.7600790968    1.8376363114   -0.8679442772
 H   -0.7427398425    1.8291323805    0.9057105808
 H    0.4971967742   -0.3549406046   -0.8867088585
 H    0.5146713625   -0.3633199957    0.8787947010
 H   -3.3523515428   -2.0149815144    0.8997588990
 H   -3.3687284383   -2.0074630180   -0.8512415649
 H   -1.9378333790   -4.3070243039   -0.0001126687
 H   -3.8034826852   -5.6670173277    0.0072797979