23

 C   -0.6670166601    1.5126465941    0.1306512706
 C   -0.1618834020    0.0858446892    0.0634073673
 C   -1.0438164430   -0.9210119613    0.7800300939
 C    0.5619446271   -0.4376150148   -1.1704241088
 C    1.0293821802    0.4382464531   -2.3238636437
 C    2.5697594365    0.4274583717   -2.3417961782
 C    3.1448059055    0.8754932857   -0.9744850432
 O    2.1646981371    0.9310395726    0.0649976657
 C    1.3234698040   -0.1808003819    0.1138063244
 H    0.0778009285    2.2251021634   -0.2255295218
 H   -1.5827678774    1.6345057827   -0.4595462557
 H   -0.9034878408    1.7802019703    1.1669702517
 H   -2.0434196585   -0.9566877647    0.3308964701
 H   -0.6241698421   -1.9311451153    0.7332097728
 H   -1.1619382381   -0.6568033727    1.8374121541
 H    0.3640189399   -1.4744231746   -1.4299757973
 H    0.6417877847    0.0612229386   -3.2749262639
 H    0.6613738627    1.4630144608   -2.2225323204
 H    2.9039389195   -0.5902211226   -2.5724512984
 H    2.9597721856    1.0730598389   -3.1353194070
 H    3.9727566084    0.2176089467   -0.6710643450
 H    3.5394555982    1.8942001725   -1.0316576923
 H    1.6962508341   -1.0093889227    0.7184941153