19

 O    0.1898968303    1.4459158703   -0.0414695122
 C    0.1133922645    0.0447441335    0.0603685275
 C   -1.3083511416   -0.5235866166   -0.0035551869
 C   -2.0609796554   -0.0954026730   -1.2728485299
 O   -2.3315570116    1.3010416166   -1.2630625675
 C   -1.3400752509   -2.0568689758    0.1801967461
 O   -2.4788833109   -2.2736058695    1.0001666320
 C   -2.5000096031   -1.1696155021    1.8654260784
 O   -2.0991210660   -0.0437421521    1.1065620564
 H   -0.5068711012    1.7343750694   -0.6483580739
 H    0.7043834690   -0.4557909102   -0.7300621835
 H    0.5605661619   -0.2363483607    1.0216829708
 H   -1.4584332844   -0.2932097537   -2.1654954650
 H   -2.9920732592   -0.6751697528   -1.3476774645
 H   -2.7658441596    1.4719114834   -0.4159233576
 H   -1.4812266765   -2.6050933390   -0.7542879364
 H   -0.4226969107   -2.4159655986    0.6712637297
 H   -3.5187955942   -1.0246601873    2.2361954006
 H   -1.8048327303   -1.3172011417    2.7108312760