23

 C   -0.0522935169    1.5649355615    0.0545647390
 C   -0.0443177315    0.0279676491    0.0159428923
 C    0.8381969823   -0.5379764567    1.1380763791
 C   -1.4607918964   -0.5140018551    0.0101084502
 C   -2.5407171610   -0.2028396389   -1.0560179758
 C   -3.2425276590   -1.1564367462   -0.0814656510
 C   -1.9510798683   -2.0111538727    0.1489195733
 C   -2.1024335938   -1.9259825224    1.6816680228
 C   -2.5370523759   -0.5364390878    1.1724945655
 H    0.9663165395    1.9617015403   -0.0082061545
 H   -0.6281279825    1.9859279058   -0.7750139135
 H   -0.4953155006    1.9289867602    0.9887953679
 H    0.4039461675   -0.2768427376   -0.9420790259
 H    1.8602091240   -0.1552058045    1.0472615854
 H    0.4638255533   -0.2438880905    2.1246048161
 H    0.8868950881   -1.6303565181    1.1051670445
 H   -2.9168509275    0.8251790331   -1.0961669182
 H   -2.3510825404   -0.5796858899   -2.0677178022
 H   -4.2620086625   -1.5449709267   -0.1039090726
 H   -1.6237365397   -2.8505740609   -0.4685382323
 H   -2.8973153479   -2.5430890064    2.1148842190
 H   -1.1990970563   -1.9902040460    2.2915709163
 H   -2.8910829043    0.3274660006    1.7387948846