19

 C   -0.2345210869    1.4916999334    0.0032802201
 N    1.1551199378    1.0187657292   -0.0281071636
 C    0.0376942807    0.0286516865    0.0045484892
 C   -0.1142284642   -0.7456069127    1.3105647200
 C    0.2330841182   -2.2265441257    1.1937028554
 N   -0.8927212224   -3.1252124721    0.8618039011
 C    0.1813550171   -2.8837227231   -0.1363115185
 C   -0.1548979968   -2.0565977756   -1.3205936580
 C   -0.2103687815   -0.7249908963   -1.2488074118
 H   -0.5293397617    1.9743447651    0.9321466242
 H   -0.6642912812    1.9371318844   -0.8909850621
 H    1.5222566495    1.0853221939   -0.9755893511
 H    0.5179251837   -0.2653919732    2.0621805470
 H   -1.1535518904   -0.6700367262    1.6482058486
 H    0.9697378393   -2.5988258423    1.9005854527
 H   -0.7441106190   -4.0338757688    1.2957898714
 H    0.8670239265   -3.7075950345   -0.3243736474
 H   -0.3352218258   -2.5649897758   -2.2636978594
 H   -0.4199255030   -0.1351487663   -2.1391217477