17

 C   -0.0840754511    1.5054982057   -0.1302654163
 C    0.0462273727    0.0094635684    0.0549768016
 C    1.3150374106   -0.7814716344   -0.1607783347
 N    2.4710641906    0.0382552322    0.2766862781
 C    1.9904176810   -0.0587531193    1.6953012822
 C    1.9362673116    1.1945816213    2.4504614223
 N    1.8714838033    2.1664166891    3.0731348766
 C    0.6788278049   -0.7215993790    1.2176553162
 O    0.0503240944   -1.6956941754    1.9593072657
 H    0.8611761404    2.0133396313    0.0678410845
 H   -0.3735892737    1.7305710816   -1.1620013967
 H   -0.8469916894    1.9259059835    0.5324306089
 H   -0.8128250433   -0.5698284902   -0.2828927493
 H    1.4209954564   -1.5894884695   -0.8734859252
 H    3.3471031290   -0.4625649625    0.1714573543
 H    2.5564263674   -0.7936075119    2.2772076941
 H   -0.7448474649   -1.3202865309    2.3544626576