21

 C   -0.3473810899    1.3970717592    0.0650864050
 C    0.0293176318   -0.0846011853    0.1066291083
 O    0.6429378706   -0.4943296925   -1.1071870357
 C    0.9224550958   -0.4661526156    1.3164216707
 C    0.1502656154   -0.4541137491    2.6837651193
 C   -0.0387294271   -1.9897423956    2.5734769082
 C    1.0419663641   -2.0244077886    1.4616521044
 C    2.1803392457    0.2600610679    1.2571486454
 C    3.2285969514    0.8479798200    1.1774901212
 H    0.5505808373    2.0203849174    0.0032075358
 H   -0.9663944758    1.5913452308   -0.8145303155
 H   -0.9073361715    1.6998275352    0.9551485202
 H   -0.8845876478   -0.6871118880    0.1741567165
 H    1.4936661051   -0.0405020473   -1.1593014481
 H    0.8059097033   -0.1687316407    3.5086542502
 H   -0.7490217701    0.1649950463    2.7235085973
 H    0.1657398169   -2.5720366787    3.4738881590
 H   -1.0305833800   -2.2670358073    2.2078695256
 H    0.8303283731   -2.5858776634    0.5501554589
 H    2.0227484221   -2.3181769591    1.8403658204
 H    4.1550052096    1.3652215142    1.1316411531