19

 C   -0.0020265214    1.5666878750    0.0260190265
 C    0.0824144548    0.0459322627    0.0284351616
 O   -1.2236312283   -0.5171224740    0.1136008696
 C    0.8058284799   -0.6941230057   -1.0947479001
 C    2.2896504521   -0.7964354191   -0.7250036925
 C    1.2758633618   -1.7718247601   -0.1550141424
 C    1.0706845047   -0.6905813222    0.9887520720
 C    2.4853136778   -0.1461787497    0.6450795442
 O    3.5339086006   -0.7196880454    1.3968814702
 H    0.9657966087    2.0373186259   -0.1616801830
 H   -0.6987336799    1.8927557861   -0.7523723566
 H   -0.3739398983    1.9391378016    0.9892653683
 H   -1.6416259722   -0.1611824820    0.9052992125
 H    0.4709236478   -0.8078029563   -2.1185856448
 H    3.0435909200   -0.9762580024   -1.4820741799
 H    1.1785446297   -2.8453598919   -0.2050617279
 H    0.7943929040   -0.8767061462    2.0261331916
 H    2.6473011373    0.9335533661    0.7103516076
 H    3.4746948208   -1.6768039924    1.2877530231