17

 C   -0.4290734375    1.3838458411    0.0684172523
 C    0.1225738763   -0.0548703481   -0.0807088415
 C    1.0207244162   -0.1300640583   -1.2399708606
 N    1.7334277013   -0.1716331348   -2.1489584452
 C    0.8104972245   -0.5464508225    1.1714451140
 C    2.1575995350   -0.7702022267    1.3481751931
 N    2.3474105186   -1.1841709704    2.6404311562
 C    1.1452066247   -1.2329860773    3.2969393481
 C    0.1694530755   -0.8422391610    2.4117588221
 H    0.3860189746    2.0847636708    0.2635407990
 H   -0.9554837613    1.6977840734   -0.8369578614
 H   -1.1239117812    1.4205821471    0.9108175519
 H   -0.7250290690   -0.7176638166   -0.3017747333
 H    2.9789531341   -0.6777938984    0.6564704461
 H    3.2358282183   -1.4308917357    3.0396165384
 H    1.0845828638   -1.5415237030    4.3280166690
 H   -0.8871562839   -0.7772872495    2.6239402718