20

 C   -0.5381824533    1.4373178923    0.0090008753
 C    0.1702309973    0.0859407221   -0.0259444776
 C    1.2585416128   -0.0359726203   -1.1013317271
 O    2.1437933632   -1.0671030439   -0.6673604550
 C    1.9471113314   -1.3372825914    0.7187824408
 C    3.3074829869   -1.3320348982    1.4368806943
 C    4.2020376451   -2.3905647706    0.9733772382
 N    4.9053233696   -3.2371194089    0.6222130480
 C    0.9764951738   -0.2662966409    1.2351136255
 H    0.1752323870    2.2506113546    0.1846338301
 H   -1.0513530908    1.6411114540   -0.9365623013
 H   -1.2879907649    1.4714289096    0.8054737799
 H   -0.5705477432   -0.7060678779   -0.1952568205
 H    0.8653476283   -0.3075828697   -2.0863573501
 H    1.8075192206    0.9136627306   -1.2052253274
 H    1.5039446454   -2.3384539675    0.8217803386
 H    3.7922173517   -0.3622106944    1.2807485945
 H    3.1532296687   -1.4554322628    2.5153346066
 H    1.5301249132    0.6158560212    1.5826757958
 H    0.3594913671   -0.6231125281    2.0635361514