16

 O    0.2842063597    1.3727088705   -0.2870255894
 C    0.0846490670    0.0172385932   -0.0473263242
 C    0.1731641524   -0.4642888268    1.4838003641
 C   -1.3515109480   -0.5087269472    1.4310344593
 C   -2.8239768326   -0.9730802528    1.5447313231
 C   -2.6777414091    0.1217282769    0.4089651502
 O   -1.8672332666    0.9149336703    1.3422247542
 C   -1.3924267287   -0.5792269153   -0.0986570411
 H   -0.3921628983    1.8179735871    0.2434766387
 H    0.7645415308   -0.5301630048   -0.7044690961
 H    0.6247639365   -1.4562625308    1.5660823642
 H    0.6303397338    0.2234940815    2.1988857712
 H   -3.0392123523   -2.0008261238    1.2432304507
 H   -3.3925097841   -0.6518944912    2.4191966951
 H   -3.4810981473    0.6390448216   -0.1222264843
 H   -1.4901438633   -1.5498037783   -0.5881201958