13

 C    0.0734589611    1.4448234562    0.0095599510
 C    0.0372069942   -0.0059798880    0.0018048341
 C   -0.0009865228   -1.2125694855   -0.0045800045
 C   -0.0553429744   -2.6531953338   -0.0121717065
 O   -1.0950254503   -3.2862228602   -0.0061095289
 C    1.2381540352   -3.3023773508   -0.0278202746
 C    2.3111674770   -3.8683798705   -0.0409571287
 C    3.5120935270   -4.4995942391   -0.0556303332
 C    4.5810984188   -5.0617137322   -0.0686910452
 H    1.1019699476    1.8195611538    0.0024237688
 H   -0.4437909414    1.8485658387   -0.8675446928
 H   -0.4279515919    1.8387299870    0.9002296271
 H    5.5209696000   -5.5566787155   -0.0801716866