17

 C    0.3324838520    1.3694696503   -0.2049699978
 C    0.1042144013   -0.0812502705    0.1704834168
 O    0.7953525323   -0.6685625234    0.9668490526
 C   -1.0893736686   -0.7522621389   -0.5123084321
 N   -1.0077673052   -2.1980646239   -0.4189098380
 C   -1.3476891101   -2.8096488855    0.8459670894
 C   -2.2528588401   -2.9791536692   -0.3410541683
 C   -3.5371529755   -2.3223440604   -0.3352246862
 N   -4.5625294038   -1.7864016915   -0.3570747921
 H    0.7367553528    1.4225472810   -1.2229394005
 H   -0.6069276376    1.9324710971   -0.2046847421
 H    1.0438330353    1.8234969779    0.4855532754
 H   -1.9996200596   -0.3265592973   -0.0509000500
 H   -1.1211358832   -0.4634622373   -1.5691417257
 H   -0.7224927997   -3.6398503003    1.1580709054
 H   -1.7103302297   -2.1733253336    1.6499660632
 H   -2.2356390307   -3.9079153545   -0.9035598799