16

 C    0.0490147941    1.5359241771    0.0918351322
 C    0.0678410708    0.0413229151   -0.0136676120
 C   -0.9590048617   -0.8719163755    0.7438890970
 N   -1.5088058174   -2.0373651891    0.0673816936
 C   -0.4969591004   -2.6306912690   -0.4215427559
 N    0.7947502896   -1.9961316237   -0.1885686435
 C    0.4901294572   -1.0651910994    0.9641130620
 C    0.7202952674   -0.7714583113   -1.0577859823
 N    1.2035381058   -0.5209336496   -2.1880727133
 H    1.0467445442    1.9495567930   -0.0836788017
 H   -0.6268738331    1.9651675647   -0.6541578626
 H   -0.2902562095    1.8598690967    1.0802188054
 H   -1.5962004934   -0.3580400346    1.4523364394
 H   -0.5429469370   -3.5159464866   -1.0450599536
 H    1.1035573684   -1.0418254668    1.8555698740
 H    1.6769945250   -1.3384304609   -2.5768629388