16

 O    0.0300192277    0.0466528399    0.0255815376
 C    0.0115147981    1.2461811762    0.0211084454
 C   -1.2018771580    2.2112395187    0.0585388811
 C   -0.3872620940    3.5184900306   -0.0128181824
 N    0.6565673147    3.2444151116   -1.0548422059
 C    1.1722610732    2.2438964083   -0.0633421378
 C    0.7413611123    3.2727412321    1.0460406105
 C    1.6626710417    4.3642753974    1.2694540094
 C    2.4240180306    5.2633987587    1.5067501870
 H   -1.8584897540    2.0764823947   -0.8063016199
 H   -1.7980968790    2.0720617859    0.9657453972
 H   -0.9146672313    4.4694788681   -0.0673889158
 H    0.2847367128    2.8179896393   -1.9052031873
 H    2.1869001947    1.8658324279   -0.1629675671
 H    0.4125432411    2.8376589025    1.9945032506
 H    3.0991965094    6.0596461781    1.6998342075