20

 C   -0.0625735780    1.5332923897   -0.1098916570
 C    0.0037366611    0.0316146717    0.0482559954
 N    1.3085886407   -0.6137406489   -0.1486907155
 C    0.6706246788   -0.6631226355    1.1915346000
 C    1.3610753637    0.1087630510    2.3032944221
 O    2.1211937909   -0.7532798498    3.1353468756
 C    1.3264418675   -1.7123266123    3.8007544922
 C    0.3721754394   -2.4212189249    2.8790777424
 C    0.0994182763   -1.9458774256    1.6641457866
 H    0.8397040651    2.0161295892    0.2710542331
 H   -0.1583425593    1.7982963030   -1.1683598058
 H   -0.9291283996    1.9441686108    0.4191580518
 H   -0.8655578064   -0.4910625517   -0.3531934434
 H    1.2042760456   -1.5104397272   -0.6187278910
 H    2.0664050439    0.8303532823    1.8889695022
 H    0.6075646308    0.6491359263    2.9020043888
 H    2.0262717275   -2.4273895012    4.2487174697
 H    0.7690452192   -1.2474641388    4.6370032635
 H   -0.0822197263   -3.3385766458    3.2426695439
 H   -0.5628068111   -2.4805785424    0.9859774154