19

 C   -0.6328518754    1.2144941550    0.0521100220
 C    0.0967536706   -0.1174209526   -0.0118180804
 C    1.3926924384   -0.2252603717   -0.8284850404
 O    1.7740127385    0.2917999278   -1.8393869141
 C    2.0547073984   -1.1079879717    0.2385066402
 C    0.9012111330   -0.6952411392    1.1964708235
 C    1.1904935097    0.1299840355    2.4690018924
 C    0.5466081308   -1.0579471290    3.2089007640
 O    0.2704960548   -1.7339147636    1.9626570632
 H    0.0321159625    2.0188828181    0.3819113433
 H   -1.0083725511    1.4864484665   -0.9385822279
 H   -1.4848107565    1.1693701031    0.7379604549
 H   -0.5812796458   -0.9178115278   -0.3408911876
 H    1.9902294950   -2.1719964317   -0.0141701437
 H    3.0826588888   -0.8667875192    0.5201398974
 H    2.2458881208    0.3092269147    2.6805760144
 H    0.6446297314    1.0716431612    2.5452367932
 H    1.2210299504   -1.6403284100    3.8475175633
 H   -0.3717152245   -0.8391420153    3.7651631023