21

 C    0.0769879318    1.5354622816   -0.0155339705
 C   -0.0259991814    0.0368475131    0.0234193844
 C   -1.1806494838   -0.6289219272   -0.0146599500
 C   -1.2526084138   -2.1349641424   -0.0358922897
 C   -2.3139538121   -2.6332857560   -1.0188131803
 O   -3.5815818837   -2.1930461420   -0.5537203509
 C    0.1276060175   -2.7039468998   -0.3816024281
 O    1.1418540486   -2.0899115816    0.3900715074
 C    1.2827742478   -0.7130336971    0.1054920485
 H    0.6912855194    1.8713796156   -0.8614820486
 H   -0.9081227483    1.9997078609   -0.1083831256
 H    0.5558527391    1.9273364932    0.8912507376
 H   -2.1271876432   -0.0965117018   -0.0517343965
 H   -1.5485111854   -2.5022580139    0.9574699670
 H   -2.0990859463   -2.2379959649   -2.0246712994
 H   -2.2752295709   -3.7336304670   -1.0784517473
 H   -4.2419348030   -2.4223021308   -1.2137445595
 H    0.1840832314   -3.7746555185   -0.1633493860
 H    0.3279439454   -2.5657843671   -1.4590140612
 H    1.8486120731   -0.5678617392   -0.8351984679
 H    1.9051282377   -0.3009051551    0.9098575566