16

 N   -0.0710950986    1.2611670982    0.0518536163
 C   -0.1490110952    0.0224523892   -0.1525034743
 O   -0.9531831780   -0.7340612923    0.6381678563
 C   -0.9568028966   -2.1203587908    0.4103355260
 C   -1.7948856176   -2.8423353658    1.4853790771
 N   -2.9180821522   -2.9503317258    0.5251628471
 C   -2.0317850843   -2.6452509042   -0.6134586378
 C   -2.5558916481   -1.7083116342   -1.6045388451
 N   -2.9350352689   -0.9738149539   -2.4120039250
 H    0.5660641076    1.6882916141   -0.6169609686
 H    0.3804709325   -0.5559742346   -0.9209566769
 H    0.0555946736   -2.4934296136    0.2334381420
 H   -1.3476372252   -3.7957951208    1.7935457599
 H   -2.0193836942   -2.2391193915    2.3684935052
 H   -3.3938916273   -3.8433343115    0.4771303506
 H   -1.6432762274   -3.5252764925   -1.1463921130