18

 C    0.0530090382    1.6183401256    0.0231198501
 C    0.0370226575    0.1140312645   -0.2660454865
 C   -1.3166116613   -0.5569478068   -0.0488391276
 C   -2.4433551721   -0.0204196729   -0.9147517120
 C   -1.2644750142   -2.0958113770    0.1008943511
 C   -1.6536105937   -1.8153380487    1.5502987090
 O   -1.8683860006   -2.4367531958    2.5413729371
 O   -1.6994677144   -0.4575765960    1.3885583765
 H    1.0719150077    2.0092389632   -0.0478153218
 H   -0.5636746617    2.1793679702   -0.6850427697
 H   -0.3180324708    1.8189905890    1.0322494574
 H    0.3499652594   -0.0799534730   -1.3001055090
 H    0.7680202594   -0.3861869713    0.3801433231
 H   -2.2014043845   -0.1505891248   -1.9747428554
 H   -3.3760342938   -0.5514797561   -0.7054827506
 H   -2.6108385802    1.0432305528   -0.7288362842
 H   -2.0101519993   -2.6612301510   -0.4609469169
 H   -0.2838931256   -2.5600920418   -0.0201721705