15

 C    0.0065320315    1.4467801533    0.0555920434
 N   -0.0087269995   -0.0017218478   -0.0204948082
 C    0.5341349389   -0.6876037868    0.8816715073
 O    1.1700849680    0.0194848753    1.9904278629
 C    1.7424040711   -0.7003248235    2.9414335815
 N    1.8072630064   -1.9772650936    3.0078148143
 C    1.1875978364   -2.6177337316    1.9285734095
 N    1.2527836139   -3.9609222829    1.9935004754
 N    0.5875161736   -2.0458280977    0.9254164223
 H    1.0269690350    1.8532780438    0.0632429190
 H   -0.5132515229    1.8505038847   -0.8165611192
 H   -0.4965331959    1.8223942701    0.9569403232
 H    2.1856777127   -0.0804625842    3.7190269919
 H    1.7159695148   -4.3954650018    2.7706172425
 H    0.8349879563   -4.5110636572    1.2638486343