17

 N   -0.1763836459    1.4240899659    0.1663961210
 C   -0.0761039904   -0.0205137249   -0.0295115836
 C   -1.4784927200   -0.6182102294    0.1575326365
 O   -2.0199453434   -0.2398436541    1.3988172378
 C    0.5729325937   -0.4668507398   -1.3819747694
 N   -0.0647710376   -0.0101578859   -2.6169052343
 C    1.9774422017   -0.0277178116   -1.3862148084
 N    3.0642089237    0.3614974426   -1.3338729153
 H    0.7382175757    1.8477571914    0.2837029006
 H   -0.6248258761    1.8708728758   -0.6289928312
 H    0.5536434705   -0.4097546413    0.7787948883
 H   -2.1306707579   -0.2989922078   -0.6766699173
 H   -1.4292748237   -1.7128525719    0.1321695525
 H   -1.7512871720    0.6834187009    1.5160541856
 H    0.5744353744   -1.5649014440   -1.4030609976
 H   -1.0233611336   -0.3376256036   -2.6623353883
 H   -0.0751635590    1.0034667878   -2.6684438269