23

 C   -0.5640253083    1.3367122011   -0.0468793239
 C   -0.0060590418   -0.0867146631   -0.0654647083
 C    0.8377968071   -0.3653446918   -1.3123610056
 O    1.9923808534    0.4509058533   -1.3503932093
 O    0.8886307476   -0.3158720491    1.0286216338
 C    0.2908494451   -0.6051163925    2.2655110615
 C   -0.2731352355   -2.0338117790    2.5179507288
 C    0.3701663217   -1.9682838291    3.9315235734
 C    1.2889435270   -0.8246179152    3.4189111472
 H    0.2485596811    2.0523798649   -0.1928518903
 H   -1.2921681472    1.4685684807   -0.8538644557
 H   -1.0689180871    1.5611594542    0.8967010498
 H   -0.8278875282   -0.8183940909   -0.0286381385
 H    1.1033016867   -1.4338378464   -1.3268240809
 H    0.2595355732   -0.1465266786   -2.2161702170
 H    2.4138601942    0.3410820577   -0.4892374164
 H   -0.4555961136    0.1573516183    2.5293895082
 H   -1.3517348378   -2.1916065127    2.4465670027
 H    0.2417693303   -2.7558505503    1.8772812119
 H   -0.3380372031   -1.6174352963    4.6869200018
 H    0.8543293463   -2.8722237856    4.3048109927
 H    2.2291715326   -1.2156966797    3.0197996169
 H    1.5030041463    0.0167526002    4.0812570470