21

 C   -0.0353218609    1.6148959608   -0.2183679883
 C    0.0288315729    0.0957452472   -0.0360422500
 C    0.7630011057   -0.6362532683   -1.1872536001
 C    1.2918973780   -1.9545257409   -0.5818698824
 C    1.5550932732   -1.6364564270    0.8818693469
 C    2.2688360555   -0.3740947952    1.2273519172
 C    0.7489996033   -0.3686777117    1.2286752177
 C    0.0603434763   -0.3201970996    2.5360920803
 O    0.5747617983   -0.5699318826    3.6024134639
 H    0.9702266231    2.0488324952   -0.2445087542
 H   -0.5383156289    1.8765403276   -1.1552450732
 H   -0.5840475724    2.0956072654    0.5982465773
 H   -1.0004872510   -0.2879716183    0.0218820500
 H    0.1139608778   -0.8011266952   -2.0514261810
 H    1.5970801282   -0.0185456983   -1.5388269825
 H    0.5314675440   -2.7413072341   -0.6463760041
 H    2.1816561807   -2.3246636317   -1.1028973182
 H    1.5806690853   -2.4419342390    1.6074671461
 H    2.7202142451   -0.3221345621    2.2115821124
 H    2.7795918148    0.1866000712    0.4518819979
 H   -1.0200817488   -0.0501147134    2.4780674445