20

 O   -0.0268229031    1.5024156437    0.2616015490
 C   -0.1761877273    0.0873269758    0.2855003519
 C   -1.6240896685   -0.2735317876   -0.0276521481
 N   -1.9527441757   -0.1642415642   -1.4497142899
 C   -3.1921165126   -0.8756502155   -1.8263626353
 C   -4.3466783465    0.1258885193   -1.6455054402
 C   -3.6672181922    1.4726225015   -1.9199144995
 O   -4.2079514629    2.5289610565   -2.1165989411
 C   -2.1514588121    1.2121618945   -1.9214089370
 H    0.9105389787    1.7109633703    0.3056561704
 H    0.4739723570   -0.3981779461   -0.4557893648
 H    0.0771921691   -0.3090896461    1.2815664027
 H   -1.7638943811   -1.3211399937    0.2597737423
 H   -2.2753151153    0.3322426826    0.6299180150
 H   -3.1181957344   -1.1723895777   -2.8806909591
 H   -3.3035434434   -1.7880070990   -1.2368947159
 H   -5.2056442860   -0.0227010453   -2.3035206250
 H   -4.7178791701    0.1329218969   -0.6132831283
 H   -1.6084551710    1.9367293457   -1.3154156341
 H   -1.7996065228    1.3187163084   -2.9585428229