19

 C    0.0157322811    1.7526633986   -0.4600414727
 C    0.1055739957    0.2798813013   -0.1927082016
 C   -0.0238592404   -0.8701286605   -1.1286395213
 C    1.3160785887   -1.6261992237   -1.1317354529
 C    1.7031570933   -1.4247474138    0.3274660003
 C    0.9454414749   -0.4541962003    0.8834730170
 C   -0.3219683398   -1.0011685159    1.5849523798
 O   -0.9847409711   -0.2769444013    2.5816224245
 C   -0.9397108063   -0.7526515069    0.1494051282
 H    0.9454158580    2.1354927406   -0.8966369928
 H   -0.7966112305    1.9719818058   -1.1609100072
 H   -0.1702997358    2.3258018222    0.4562195008
 H   -0.5789153761   -0.7542846283   -2.0593882678
 H    1.2364582705   -2.7016290010   -1.3331151214
 H    1.9886134831   -1.2091957178   -1.8947856565
 H    2.0883247399   -2.2595253390    0.9077482913
 H   -0.2557709479   -2.0260390866    1.9589682695
 H   -1.0153216096    0.6479163010    2.3112337524
 H   -2.0152513577   -0.6620207044    0.0056690704