21

 C    0.7826508864    1.0164632220    0.5851940227
 O    0.1283150322   -0.0922715886   -0.0064837417
 C    0.7146481121   -0.5534167830   -1.2271384217
 C    1.3168032997   -1.9398720674   -0.9685890967
 O    2.1877069090   -1.9331822463    0.1444910062
 C   -0.3553224837   -0.5955494160   -2.3203236192
 C   -0.9633222077    0.7836939953   -2.6196247461
 C   -2.1256187059    0.6939370593   -3.5794251280
 O   -2.2245893722    1.3102022605   -4.6088537138
 H    1.8336486286    0.7939279509    0.8118336261
 H    0.7452973614    1.9054151709   -0.0605275631
 H    0.2544777765    1.2384236019    1.5163902662
 H    1.5222507297    0.1308541473   -1.5227514123
 H    0.5000709995   -2.6670823866   -0.8324099352
 H    1.9068019927   -2.2589381939   -1.8339304278
 H    1.6464777938   -1.6657192392    0.8959620627
 H    0.0849893277   -1.0186835134   -3.2315703662
 H   -1.1484631502   -1.2833084227   -2.0000347815
 H   -1.3436055449    1.1965361869   -1.6751452114
 H   -0.2234530609    1.4771442289   -3.0304997036
 H   -2.9251859236   -0.0165650167   -3.2596382958