21

 C   -0.1910455500    1.6123474952   -0.0084401942
 C    0.0626320855    0.1131326696    0.0204264348
 C    1.1678944593   -0.5865658057   -0.8714857597
 C    2.3920593354    0.2852779407   -0.8424921281
 C    2.8933044108    0.5050728543    0.3753110625
 C    2.2723323613   -0.3211004248    1.4712082037
 C    2.5281817340   -1.8150533027    1.0580502496
 C    1.2304616607   -1.7194471896    0.2542411810
 C    0.7170573835   -0.5991374893    1.2094171103
 H    0.7171628277    2.1839859309    0.1951915538
 H   -0.5801491143    1.9303361786   -0.9828602800
 H   -0.9367019651    1.8828942218    0.7479738166
 H   -0.8792454223   -0.4173926362   -0.1717443123
 H    0.8730798947   -0.9017662392   -1.8732871473
 H    2.7658224753    0.7558244412   -1.7456179562
 H    3.7423684228    1.1495601593    0.5778672202
 H    2.5568747038   -0.0133318147    2.4776108624
 H    3.4751326003   -2.0402629293    0.5596766657
 H    2.3818317937   -2.4933834030    1.9051511504
 H    0.6506887559   -2.6122259703    0.0138784005
 H    0.1492640869   -0.8009548870    2.1203423262