19

 C   -0.0300801310    1.4344440169   -0.1225148952
 N   -0.0833254206    0.0061924831    0.1219853550
 C   -1.4192828298   -0.5932933099    0.1167371514
 C   -1.2271659033   -1.8464893247    0.9226128206
 C   -0.0607536226   -1.8234017521    1.5552382861
 C    0.6916093519   -0.5374836790    1.2472934615
 C    2.1648656907   -0.7635626159    0.8654166837
 C    0.6323751457    0.3430270976    2.4518428013
 N    0.5649733578    1.0578576564    3.3588754485
 H    1.0094945673    1.7673306004   -0.1932477028
 H   -0.5107267057    1.6490964602   -1.0821218824
 H   -0.5290087787    2.0347119360    0.6569755480
 H   -2.1871995364    0.0543076837    0.5824794647
 H   -1.7512903540   -0.7855688134   -0.9128284256
 H   -1.9694903369   -2.6324946083    0.9778568302
 H    0.3411706768   -2.5658893690    2.2317047106
 H    2.2044248320   -1.4388028360    0.0080066890
 H    2.6480134063    0.1794975320    0.5962360560
 H    2.7200515605   -1.2004208181    1.7005952298