20

 C   -0.4701809051    1.4103124508    0.2141584319
 C    0.0537417567    0.0012062117   -0.0556815172
 C   -1.0050426196   -1.1014765249    0.2784106592
 C   -0.3146112918   -1.3159132888    1.6521178722
 C    0.9163988461   -0.5369062148    1.1272314691
 O    1.9662511151   -1.4382128018    0.7486996033
 C    2.1404861252   -1.7435408616   -0.5596998545
 N    1.6304586031   -1.2274868490   -1.5932021161
 C    0.7370477249   -0.0889573789   -1.4189115003
 H    0.3453391349    2.1420884565    0.2120602012
 H   -1.1898428024    1.7059896714   -0.5576478523
 H   -0.9788080945    1.4776155273    1.1819384889
 H   -2.0480209698   -0.7759823191    0.2894121719
 H   -0.9157187895   -1.9725462906   -0.3756621117
 H   -0.8153728240   -0.7940580893    2.4711238759
 H   -0.1062799743   -2.3415739425    1.9610485614
 H    1.3736488605    0.2024999385    1.7903754130
 H    2.8520454379   -2.5635727797   -0.6438539335
 H   -0.0207148910   -0.1205113012   -2.2120416681
 H    1.3233694377    0.8241269859   -1.5984347144