20

 C   -0.0334813808    1.5214617804    0.2186013100
 C   -0.1235605334    0.0115789040   -0.0194805129
 C    0.6111613465   -0.4684795852   -1.2860101277
 C    0.8215898153   -1.9714839530   -1.3921178229
 C   -0.3987112739   -2.8509260541   -1.6164415781
 C    0.4083725794   -2.3532499702   -2.7793270599
 O   -0.1007368780   -1.2096746395   -3.4407737947
 C   -0.0952562145   -0.1260135848   -2.5982380736
 N   -0.6108818324    0.9880114813   -2.8944198683
 H    1.0097618985    1.8362292584    0.3390599609
 H   -0.4575757260    2.0710968918   -0.6235927276
 H   -0.5711874877    1.8006248001    1.1301964255
 H    0.3075952514   -0.5229706358    0.8359870015
 H   -1.1741638806   -0.2953561494   -0.0766454122
 H    1.5961868230    0.0173948517   -1.3140713900
 H    1.6940366700   -2.4081620726   -0.9218461984
 H   -0.3059934375   -3.8982750632   -1.3507942696
 H   -1.3900805656   -2.4324858867   -1.4764543671
 H    0.9563047204   -3.0076940140   -3.4448704529
 H   -1.0314277642    0.9521988106   -3.8244702521