13

 O   -0.6964989304    0.7340962348    0.9306277061
 C   -0.0550586422    0.9734932305   -0.0563897935
 C    1.2628642603    1.7626979420   -0.0027738231
 C    2.4377542181    0.7730606119    0.0466217683
 O    3.0304826663    0.4361047955   -0.9424221621
 C    1.3856112531    2.6505377319   -1.2514614178
 O    0.4238315005    3.0195723838   -1.8693501795
 C    1.2825141365    2.6537548532    1.2493963163
 O    2.2901673538    2.8612657894    1.8695659979
 H   -0.3537422782    0.6330454781   -1.0647526202
 H    2.6805218727    0.3874048044    1.0536990943
 H    2.4192801908    2.9328929766   -1.5229331462
 H    0.3071979988    3.0973344479    1.5212183897