20

 C   -0.1972670700    1.4231820274    0.0539545941
 C   -0.4241855611   -0.0325695824   -0.3281763472
 O   -0.0246888631   -0.5060351143   -1.3749283904
 N   -1.1091649496   -0.7726338959    0.6012986255
 C   -1.2431896286   -2.1964823944    0.4958232421
 C   -2.5067191267   -2.8325384862    1.0136012714
 C   -2.2277939271   -2.8116519277   -0.4689151026
 C   -3.0646965933   -1.9684475229   -1.3915488791
 O   -4.2664594574   -2.6820070099   -1.6658289926
 H   -0.2432946722    2.0330433842   -0.8494208098
 H   -0.9214323260    1.7954708790    0.7839892209
 H    0.8065131662    1.5315737667    0.4782776739
 H   -1.3127088334   -0.3504063233    1.4932295629
 H   -0.3137730456   -2.7452171149    0.6303775666
 H   -2.4299838934   -3.7669648284    1.5571346888
 H   -3.2833277837   -2.1645500019    1.3729691027
 H   -1.9039758289   -3.7491942863   -0.9102559165
 H   -3.2785519179   -0.9988394502   -0.9177221257
 H   -2.4974009366   -1.7673917994   -2.3107996262
 H   -4.7304540516   -2.2159078991   -2.3674779888