21

 C   -0.0785353783    1.6843282504   -0.3457335372
 C   -0.3218182271    0.1974442209   -0.6136290352
 C    0.9773421920   -0.5829397088   -0.8444087617
 O    1.8825746566   -0.4465711661    0.2602381600
 C    0.7793990641   -2.0381982502   -1.1656910341
 C   -0.3390789289   -2.7530048168   -1.2682757827
 C   -0.0134628619   -4.1800396208   -1.6046935147
 O    1.4087472342   -4.2426073636   -1.6392957662
 C    1.9589746697   -2.9471155251   -1.4220734257
 H    0.5963670296    1.8169621768    0.5034692106
 H    0.3807189922    2.1706583087   -1.2134336647
 H   -1.0161844268    2.2044432567   -0.1292419851
 H   -0.8578987725   -0.2542768939    0.2324082321
 H   -0.9667011331    0.0720144515   -1.4914770597
 H    1.5206766763   -0.1145816117   -1.6780655050
 H    1.4847073203   -0.9038278003    1.0104185690
 H   -1.3538242969   -2.3954270061   -1.1505128493
 H   -0.3987281779   -4.8905260689   -0.8560214654
 H   -0.4326593861   -4.4839751476   -2.5784950149
 H    2.5369020117   -2.6242859031   -2.3044330913
 H    2.6570377129   -2.9721150822   -0.5739656587