17

 C    0.4336985269   -0.7361631385    1.5632183881
 O    0.0241271623   -0.3534203662    0.2618736371
 C   -1.2589017929   -0.7612174686   -0.0981759080
 C   -2.3940111375   -0.0320912267    0.6173254482
 C   -2.3593974580    1.4155055298    0.4022983451
 N   -2.3391601466    2.5582373525    0.2348725724
 C   -1.4139556673   -1.1162222418   -1.5425880484
 C   -1.4597228015   -2.2059825355   -0.4875254713
 H    1.4851696596   -0.4564645934    1.6539537362
 H   -0.1312373582   -0.2151266747    2.3486119256
 H    0.3340792642   -1.8195041277    1.7167366449
 H   -3.3564848484   -0.4163962615    0.2649302169
 H   -2.3593140432   -0.2247574652    1.6958887715
 H   -2.3321894326   -0.8407193310   -2.0492987890
 H   -0.5185318894   -1.0467849449   -2.1481527054
 H   -0.5951727976   -2.8551538957   -0.4098256794
 H   -2.4082869096   -2.6862133210   -0.2721037545