20

 C   -0.1114664976    1.5292416928    0.1269964358
 C   -0.0352451184    0.0150832441    0.0861113091
 N    1.2907162895   -0.5368716200   -0.3211275200
 C    0.8376519461   -0.7427731685    1.0441909273
 C    1.5314500821   -0.2049472482    2.3019520054
 C    0.8856903373   -1.3797486417    3.0955974933
 C    0.4884411743   -2.0574616134    1.7497384670
 C   -1.2158873965   -0.6541935226   -0.3960033974
 C   -2.2078685185   -1.2016382757   -0.8028035435
 H    0.8375319285    1.9424001721    0.4747106704
 H   -0.3131958591    1.9282636947   -0.8715682226
 H   -0.9120084378    1.8613554388    0.7954735917
 H    1.1553376135   -1.3862251096   -0.8667553175
 H    2.6196863320   -0.2861727222    2.2257719405
 H    1.2786201820    0.8094170671    2.6193667290
 H    1.5501093753   -1.9480043201    3.7487102193
 H    0.0144582822   -1.0641071196    3.6738899582
 H   -0.5393390523   -2.4120036703    1.6426731974
 H    1.1711059417   -2.8671184779    1.4708754346
 H   -3.0806273846   -1.6848035199   -1.1666359380