17

 C   -0.0373770669    1.4403132144    0.0763991258
 N   -0.0829015956   -0.0026305531    0.1521150339
 C   -1.4456780031   -0.5808523418    0.1359626636
 C   -1.2028587202   -1.8620887606    0.8570839566
 C    0.0151005611   -1.8850177165    1.4700171945
 C    0.7485090649   -0.6058801583    1.2236059154
 N    0.1718610818   -3.0516520170    2.1409352563
 N   -0.9091266466   -3.7652657849    1.9676455323
 N   -1.7614605083   -3.0408734346    1.1840325508
 H    1.0010674637    1.7728254039   -0.0200070967
 H   -0.5789029191    1.7850599798   -0.8110155705
 H   -0.4751966787    1.9447506737    0.9596814460
 H   -2.1854070360    0.0458814598    0.6703143304
 H   -1.8029829764   -0.6933385088   -0.8960806680
 H    1.7800410243   -0.7348745457    0.8753762898
 H    0.7837712215    0.0215800250    2.1326846207
 H   -2.6505398062   -3.4442111354    0.9376344991