13

 O   -0.1903060496    1.3283508178    0.0057167765
 N   -0.0088927235   -0.0724683277    0.0744270494
 C   -1.1229171839   -0.6698792495    0.0971509900
 C   -1.4819421505   -2.1050409570    0.0018700160
 C   -2.8945465859   -2.1522756737    0.6284228190
 O   -3.1917546743   -0.8661140276    1.1710122100
 C   -2.6019729319   -0.3106552759   -0.0430956932
 C   -2.7676551513   -1.7029326967   -0.7749303705
 H    0.7190223292    1.6449289661    0.0049547282
 H   -0.8501801045   -2.9706817089   -0.1332930984
 H   -3.3211591681   -3.0358988231    1.0840466276
 H   -2.9672457986    0.6716741460   -0.3212125781
 H   -3.1457947570   -2.0170035598   -1.7364899665