19

 N    0.0194618258    1.3807260065    0.0767936556
 C    0.1116105615   -0.0016935046   -0.0763612920
 O    1.1668503871   -0.5636082313   -0.3025644979
 N   -1.0919666833   -0.6534271213    0.0834600633
 C   -1.1687016928   -2.0891508430    0.0904949379
 C   -1.8446025530   -2.8538480677    1.2758491406
 C   -3.2257107804   -2.3858942523    0.7213787004
 C   -2.4024419955   -2.8157350153   -0.5315521206
 C   -1.9588530268   -4.0564624126    0.2958806078
 H    0.8486670363    1.8497295926   -0.2561953301
 H   -0.8381191852    1.8237451467   -0.2193131672
 H   -1.8568644984   -0.1288831430    0.4747404679
 H   -0.1905021646   -2.4584035136   -0.2158426122
 H   -1.5210939758   -2.8777143449    2.3173786912
 H   -4.0844258198   -3.0137699491    0.9743901862
 H   -3.4948370141   -1.3305746810    0.8236084951
 H   -2.7237188567   -2.7956424187   -1.5739288733
 H   -1.0264143886   -4.5431131178   -0.0019075703
 H   -2.7411236156   -4.7840828096    0.5219873877