15

 C   -0.0071309046    1.4960917427    0.0460197771
 C   -0.0105578702    0.0417840433    0.0129677627
 C   -0.0168562675   -1.1603883444   -0.0143172767
 C   -0.0092769843   -2.6159337896   -0.0459800219
 N   -1.3513391981   -3.1988058787    0.0081385577
 N   -2.1077933904   -3.2006147494    1.0976906766
 C   -3.1993865409   -3.8071627475    0.6493022086
 N   -3.1073419581   -4.1580711655   -0.6535718133
 N   -1.9234226598   -3.7622029494   -1.0493563716
 H    1.0139931468    1.8863330586   -0.0214875589
 H   -0.5793946688    1.9120456038   -0.7897985072
 H   -0.4473895130    1.8712453859    0.9758230958
 H    0.4322687381   -2.9947265670   -0.9717184404
 H    0.5563662936   -3.0253554499    0.7967896399
 H   -4.0627445929   -4.0021417730    1.2642974114