19

 C    0.3377512719    1.1979581901    0.7252358613
 C   -0.3900967061    0.2285829200   -0.2239262339
 C    0.4108178079   -0.1471206692   -1.3839856371
 C    1.0907815603   -0.4385977841   -2.3344811674
 C    1.9175307981   -0.8343751292   -3.4843021318
 O    2.4640905295   -2.1446973541   -3.3277451350
 C    1.1732550564   -0.6931242251   -4.7445298867
 C    0.5668907921   -0.6079043495   -5.7809111405
 C   -0.1633249482   -0.4977820178   -7.0348508299
 H    1.2608061032    0.7508377088    1.1036382873
 H    0.5994224102    2.1248246573    0.2077908029
 H   -0.3008349928    1.4472354583    1.5778455537
 H   -0.6749103904   -0.6781717886    0.3251617791
 H   -1.3303288032    0.6815880685   -0.5637178772
 H    2.8008273606   -0.1833419659   -3.5224673921
 H    1.7189737836   -2.7552329378   -3.2862074481
 H   -0.0598296398   -1.4098042199   -7.6329455499
 H   -1.2322360076   -0.3326149277   -6.8612098548
 H    0.2098101346    0.3370819558   -7.6379909398