18

 O   -0.0815191032    1.3311081844    0.0182347037
 C    0.0227097849   -0.0427825297   -0.0006217972
 C    0.6665294158   -0.9842676852    1.0692561801
 C    0.0452003852   -1.9048424822   -0.0203112203
 C    0.0647353093   -3.4199605221   -0.0198600174
 C   -0.6053247311   -3.9861494138   -1.1912069342
 N   -1.1379745826   -4.4137882210   -2.1230927206
 C   -1.2083063159   -0.9764951517   -0.0040088301
 C    0.6528132119   -0.9589355763   -1.0980489121
 H    0.8042390195    1.7090205705   -0.0070953409
 H    1.7586421431   -0.9828000643    1.1401312531
 H    0.1932769399   -1.0019723165    2.0546965819
 H    1.0984216897   -3.7854288195    0.0006329445
 H   -0.4250868512   -3.8051378886    0.8823811763
 H   -1.8136133518   -0.9897182622    0.9062637889
 H   -1.8240309298   -0.9732407179   -0.9061572711
 H    0.1678611266   -0.9591456425   -2.0768114790
 H    1.7440994596   -0.9554953916   -1.1808356755