19

 C   -0.0794886587    1.5892914443    0.0192732160
 C    0.0314197817    0.0932431182    0.0169502305
 C   -0.8876746754   -0.8305902726    0.8055200075
 C    0.5938528336   -0.8998675070    1.0045372547
 O    1.1883102556   -1.7011658407   -0.0246871077
 C    0.7449635241   -0.7649605551   -1.0304995612
 C    0.0934938601   -1.3031292812   -2.3149666423
 O    1.0453813503   -0.5919399109   -3.1350173884
 C    1.8144996720   -0.1958669778   -1.9810003558
 H    0.8840068728    2.0695883662   -0.1811834735
 H   -0.7915459588    1.9383106968   -0.7379869821
 H   -0.4327839163    1.9492060739    0.9905190858
 H   -1.4508332315   -0.3322196691    1.5893526715
 H   -1.3984613311   -1.6641055822    0.3305500999
 H    1.1279272717   -0.7978602736    1.9417780704
 H    0.1812105832   -2.3917782162   -2.4212976374
 H   -0.9404370606   -0.9941786717   -2.5105373392
 H    1.9936395813    0.8850991710   -1.9551327007
 H    2.7699047260   -0.7305279822   -1.9057743580