19

 O   -0.4671443540    1.3613780352   -0.0223228625
 C   -0.1825737276   -0.0015170265    0.0621615974
 C   -0.1487714179   -0.8318523997   -1.1955047935
 C   -1.2841505470   -0.9943527083   -0.1967607622
 C   -1.1774692994   -2.1363949819    0.8100848652
 C    0.2625202101   -1.9859707492    1.3969123081
 C    0.6320791666   -0.4933872217    1.2510025507
 C   -2.2161959520   -1.9646772911    1.8997704204
 O   -3.0418210013   -2.7882436344    2.1994972362
 H    0.3131627151    1.8097749181   -0.3660478115
 H   -0.4090014657   -0.3121989585   -2.1109975018
 H    0.5864329649   -1.6214825894   -1.3157416463
 H   -2.2650681432   -0.6483830055   -0.5029107564
 H   -1.3335533212   -3.1232583315    0.3644131890
 H    0.3257948780   -2.3326993622    2.4324098136
 H    0.9465478985   -2.6127531313    0.8184480690
 H    1.7116900852   -0.3465784874    1.1317326217
 H    0.3195714705    0.0827580921    2.1291578747
 H   -2.1636222196   -0.9861840368    2.4339113780