17

 N    0.1114838132    1.3882302701    0.2754102258
 C   -0.0778373892    0.0447160205    0.0579444152
 C   -1.1567588293   -0.7846102199    0.1770842040
 C   -0.6636720039   -2.0338752652   -0.2941898799
 C   -1.4163891568   -3.3262192860   -0.3953884356
 C   -0.5956806070   -4.4885959024   -0.9432353550
 O   -1.4574724103   -5.6189539705   -0.9675490062
 N    0.5948217250   -1.9655444860   -0.6606178896
 O    0.9744491139   -0.6221396977   -0.4319616991
 H    1.0776708436    1.6514307977    0.4091860759
 H   -0.5030795059    1.7958544856    0.9634997479
 H   -2.1444050733   -0.5466705684    0.5340051320
 H   -1.8022936154   -3.6014465890    0.5938062737
 H   -2.2981020752   -3.1849684120   -1.0323134707
 H   -0.2219448036   -4.2407095821   -1.9463945121
 H    0.2812930086   -4.6599596680   -0.3035791595
 H   -0.9591521243   -6.3637082568   -1.3153546069