18

 C    0.3406093390    1.2943309398    0.4302267973
 C   -0.3545530377    0.1669576501   -0.3550663919
 C    0.4544550301   -0.3575501526   -1.4497881620
 C    1.1387701058   -0.7689495674   -2.3527732480
 C    1.9365449717   -1.2822792365   -3.4399774042
 C    3.3727195251   -1.6347352739   -3.1475526616
 N    2.4035460594   -2.7030029112   -3.3609103966
 C    1.5761946561   -0.8258145750   -4.7618975371
 C    1.2874847077   -0.4234570292   -5.8562708787
 H    1.2759159963    0.9409832702    0.8727714944
 H    0.5749593310    2.1367270229   -0.2258864445
 H   -0.3078187508    1.6528854761    1.2350638967
 H   -0.6137268530   -0.6522354810    0.3280516623
 H   -1.3073008890    0.5325334228   -0.7588208141
 H    4.1012986784   -1.5120427606   -3.9429947496
 H    3.7309682354   -1.4260397190   -2.1437621141
 H    2.0981105866   -3.0794813888   -2.4659845668
 H    1.0253745078   -0.0769031967   -6.8250652013