19

 C   -0.0255467305    1.4736382554   -0.0047621672
 C   -0.0077813525   -0.0305340775   -0.0095756809
 C   -0.2618569225   -0.9381674985   -1.1816065812
 C    0.8822872525   -1.9396701277   -1.2427070172
 O    1.7476578617   -1.6211550730   -0.1492775418
 C    1.0332766725   -0.8414797619    0.7878987687
 O    0.3127137011   -1.6440101939    1.7007319992
 C   -0.9577609195   -1.9689575779    1.1295863009
 C   -1.1952336921   -0.9530207029    0.0217555793
 H    0.9135602167    1.8847445419   -0.3917069467
 H   -0.8381227850    1.8550055688   -0.6308944709
 H   -0.1724363216    1.8674604822    1.0071588468
 H   -0.6555817992   -0.5466284189   -2.1132718113
 H    0.5427336796   -2.9821183674   -1.1649796421
 H    1.4522491805   -1.8389070738   -2.1728190536
 H    1.7629782836   -0.2673479323    1.3609762824
 H   -0.9545190207   -3.0059494828    0.7653411670
 H   -1.7179407553   -1.8893597444    1.9143852489
 H   -2.2001766295   -0.5712145453   -0.1218942003