20

 C   -0.0728304984    1.5639631182    0.0815642928
 C    0.0592173759    0.0616031744   -0.0427139576
 C    0.6940737241   -0.6457660455   -1.2094718339
 C    1.6260859480    0.1512654590   -2.1180037051
 N    2.6995662490    0.5874294691   -1.2427586003
 C    3.8044327353    1.3875964386   -1.7109630632
 C    2.6436066226    0.0726835225    0.0336774685
 O    3.4934418667    0.2221425891    0.8887664438
 C    1.3594905089   -0.7034134402    0.1511187118
 H    0.7998650102    2.0917794047   -0.3094754013
 H   -0.9544872891    1.9187409132   -0.4636536867
 H   -0.1907093271    1.8539095861    1.1305721789
 H   -0.7943520676   -0.4768539584    0.3632041215
 H    0.1989230598   -1.5091926784   -1.6365203827
 H    2.0167016019   -0.4793769504   -2.9300314109
 H    1.1264146347    1.0114176371   -2.5863737228
 H    3.4672179325    2.3676747771   -2.0708624219
 H    4.4875221394    1.5259377442   -0.8708942567
 H    4.3388760842    0.8878239861   -2.5297743606
 H    1.3772628892   -1.5799122066    0.7856051365