19

 C    0.1741412947    1.4081062133    0.1590876432
 N    0.0991330930   -0.0356109100    0.0920566152
 C    0.3967406241   -0.6009769865   -1.0154009971
 N    0.8159255545    0.0436002191   -2.1642561162
 C    0.9429889129   -0.5691636241   -3.4795041793
 C    1.4200664832   -2.0108505230   -3.3477956219
 C    0.4646864356   -2.7815678772   -2.4323982522
 C    0.3272590337   -2.1288984112   -1.0632190762
 O    0.1551627243   -2.7753080402   -0.0620249940
 H    1.1935587406    1.7831539065   -0.0318140776
 H   -0.4947034659    1.9043019595   -0.5663689470
 H   -0.1216784536    1.7437854851    1.1558008187
 H    0.7205886374    1.0468386972   -2.1563988512
 H   -0.0152873250   -0.5522131967   -4.0251599065
 H    1.6548759358    0.0227748299   -4.0643912189
 H    1.4665377452   -2.4760762952   -4.3369820686
 H    2.4338969667   -2.0236794339   -2.9310398276
 H   -0.5386011911   -2.7946889647   -2.8844341434
 H    0.7616978537   -3.8220050277   -2.2818064097