17

 C   -0.3817501286    1.4240489153    0.1664164273
 N    0.3378808306    0.1756438571   -0.0721989961
 C    0.8326994345   -0.4642659240    1.1136569786
 C   -0.0681513610   -1.1118431879    2.1468994853
 C    0.8057030627   -1.9908490875    1.2700225074
 C    0.1579401427   -2.8506781084    0.2434520678
 O    0.5857276723   -3.9209211948   -0.1019348179
 C    2.0295639628    0.1721257180    1.6353488644
 N    2.9689583109    0.6904351001    2.0661704282
 H    0.2967491793    2.1507736943    0.6238377541
 H   -0.7104517042    1.8309792291   -0.7927007332
 H   -1.2592569927    1.3169918911    0.8246908293
 H   -0.1956987347   -0.4575480461   -0.6496229868
 H    0.1824973502   -1.0416730311    3.1984065281
 H   -1.1296276800   -1.0947073941    1.9195526348
 H    1.6882008176   -2.4372824635    1.7128626285
 H   -0.7947676524   -2.4513475677   -0.1771488996