23

 C   -0.1528221012    1.5528419324   -0.0365432543
 C    0.0341033086    0.0414917502    0.0210492432
 C    1.0603645562   -0.6309752270   -0.9208947974
 C    0.7101461929   -1.2054807884   -2.2641086467
 C    2.4659241824   -0.2452266961   -0.5388055589
 C    1.7511168617   -1.2878798218    0.2817947260
 C    0.7787575790   -0.6032283073    1.2185717234
 C    1.0695399459   -0.0082572330    2.5672869521
 C    0.1420327236   -1.1988352154    2.4349063560
 H    0.7978689467    2.0837418988    0.0718661959
 H   -0.6003014806    1.8556158648   -0.9897417901
 H   -0.8186023085    1.8995723982    0.7622406398
 H   -0.9389122486   -0.4495454046   -0.1047864731
 H    0.5117494070   -0.4146503369   -2.9984791831
 H    1.5263396031   -1.8197890980   -2.6590554537
 H   -0.1854376333   -1.8354816225   -2.2078116264
 H    3.2355463885   -0.6225012286   -1.2061262726
 H    2.6964644871    0.7245043139   -0.1045363061
 H    2.1189554869   -2.3030666465    0.3849238134
 H    2.0524462468   -0.1686269039    2.9991481299
 H    0.6275435645    0.9527970060    2.8113600991
 H   -0.9210625701   -1.0392513514    2.5898508484
 H    0.4992858615   -2.1641818728    2.7805548753