19

 C    0.2096123152    1.5777363073    0.1043101046
 C    0.0967686407    0.0683650141   -0.0014838798
 C    0.7493097955   -0.5678492025   -1.2473697474
 C    1.2098550930   -1.9434346821   -0.7386493733
 C    2.4929486192   -1.9498701927    0.0975589518
 C    1.1666687683   -1.8215015865    0.7784481398
 O    0.7677577374   -0.5281608774    1.1248252794
 C    0.8063449022   -3.1304509936   -1.4263790963
 C    0.4653591501   -4.1248485822   -2.0124710451
 H    1.2590290922    1.8870735806    0.0762434814
 H   -0.3190113722    2.0574636548   -0.7253567777
 H   -0.2287717000    1.9317565570    1.0413639104
 H   -0.9642103466   -0.2268882935    0.0329025815
 H    0.0393807017   -0.6685517358   -2.0705690594
 H    1.5946551195    0.0332381761   -1.6000311690
 H    3.0165255044   -2.8964465287    0.1717375198
 H    3.1199279206   -1.0655058114    0.0568145664
 H    0.7754898125   -2.6166772488    1.4051261765
 H    0.1659612762   -5.0034948449   -2.5272425936