18

 C    0.7126789872   -0.5122247754   -1.4326761607
 C   -0.0306071529   -0.0641143527   -0.1677404779
 C    0.6404006959   -0.5529151029    1.1049925788
 O    1.9002745240    0.0420758572    1.1782111060
 C   -0.1216167365   -0.6612489523    2.4752729645
 C   -0.8881071421   -1.9050802730    1.9835924731
 C    0.5891909538   -2.0553156969    1.5722819481
 O    0.9693617087   -1.5722713528    2.9332059690
 H    0.7092136774   -1.6035173054   -1.5298979286
 H    0.2408466153   -0.0974978369   -2.3282138503
 H    1.7527423431   -0.1800581634   -1.4045414779
 H   -0.0482029212    1.0311059137   -0.1217906124
 H   -1.0715434718   -0.3936923984   -0.2084031556
 H    2.2872926951   -0.3067853348    1.9954411722
 H   -0.4308803285    0.1234054946    3.1673478541
 H   -1.1910971616   -2.5784106765    2.7848525728
 H   -1.6517365817   -1.7974803233    1.2132312298
 H    1.1238299757   -2.9276357210    1.1939223250