21

 C   -0.0179647526    1.3081862658    0.1974267398
 O   -0.0659046817   -0.0575671731   -0.1815182658
 C   -1.3369956575   -0.5908428164   -0.1101270377
 C   -1.9157537560   -1.1125166481    1.1824877702
 C   -3.1856801413   -0.7644610667    1.9594030129
 C   -1.6990450758   -2.0522008452   -0.0009801526
 C   -2.6643012524   -1.8973791627   -1.2104848482
 C   -3.7309440991   -0.8421844548   -1.0766707996
 C   -2.3075579571   -0.4234266252   -1.3220770288
 H    1.0157616933    1.6390992184    0.0741980968
 H   -0.6691036690    1.9286257494   -0.4347089143
 H   -0.3189278665    1.4438328370    1.2458346321
 H   -1.0662787424   -1.2618219103    1.8494286786
 H   -3.9784093138   -1.5030095764    1.8110791104
 H   -2.9646248912   -0.7425217124    3.0311446244
 H   -3.5836043531    0.2194513955    1.6945768800
 H   -1.0344913040   -2.9028855359    0.0839697809
 H   -2.6893303080   -2.6297313397   -2.0069814455
 H   -4.3647708226   -0.7550600033   -1.9560074184
 H   -4.2538020365   -0.6439991831   -0.1531970171
 H   -1.9964658527    0.1161872470   -2.2073369283