21

 C   -0.0143877212    1.5650329146    0.1956934968
 C   -0.0438597901    0.0482543623   -0.0649591878
 C   -1.4234380489   -0.5325319563   -0.0573695986
 C   -2.1090456297   -1.1069106654   -1.0417068656
 C   -3.4417183227   -1.5830121090   -0.5449492742
 O   -3.5082420606   -1.1322937898    0.8071452383
 C   -2.2502985176   -0.6216326406    1.2076507240
 O   -1.5774538889   -1.4710852698    2.1048705450
 C   -2.2061741778   -1.5715895405    3.3691047057
 H    1.0139544157    1.9383577850    0.1789481883
 H   -0.5853982286    2.1058757978   -0.5654140416
 H   -0.4409575389    1.8123091174    1.1727773484
 H    0.4345644005   -0.1676431463   -1.0262907913
 H    0.5472980668   -0.4585807894    0.7076642818
 H   -1.7720846139   -1.2517924154   -2.0610510136
 H   -4.2880808980   -1.1527889172   -1.0982477124
 H   -3.5387895604   -2.6787326495   -0.5973984013
 H   -2.4384268277    0.3424089146    1.7104760423
 H   -1.5729187138   -2.2058079555    3.9935577795
 H   -2.3052332505   -0.5846828750    3.8475360356
 H   -3.2027424037   -2.0215018422    3.2867795307