18

 C   -0.0387428295    1.5815385512   -0.0542547207
 C    1.4655994676    1.9612975700   -0.0566751453
 C    2.1673042717    0.5853779868    0.0201519442
 O    1.2530735006   -0.2959281486   -0.6004952693
 C    0.0059775289    0.0364464290    0.0311163348
 C    0.0825747950   -0.4888261386    1.4717240130
 C    1.2891415822    0.1524661951    2.1760794880
 O    2.4450441625    0.1728415534    1.3419878693
 H   -0.5898001585    2.0266385714    0.7784612237
 H   -0.5267929721    1.8935265083   -0.9801101339
 H    1.7482066525    2.4601157301   -0.9861904840
 H    1.7588326311    2.6083450928    0.7728961275
 H    3.1173239158    0.5259700036   -0.5125929972
 H   -0.7920363246   -0.4513371743   -0.5326033647
 H   -0.8357976854   -0.2720973465    2.0290428062
 H    0.2084422484   -1.5752347497    1.4302384757
 H    1.0379259628    1.1754504864    2.4976187784
 H    1.5716619209   -0.4075610004    3.0713922143