13

 N   -0.0321608338    1.2239873027    0.0743395264
 C   -0.0408555000   -0.0260799603    0.0545793321
 O    1.0111310606   -0.9397477018    0.0569358742
 C    0.0927775823   -2.0613363159   -0.0349275982
 C   -0.3868729000   -2.6381749503    1.3315187913
 O   -0.4706967514   -1.5498367475    2.2477891205
 C   -1.5444484125   -1.7210781155    1.3289202321
 C   -1.1138772750   -1.0988938507   -0.0338681050
 H    0.9187811095    1.5928548455    0.1286647989
 H    0.3368241778   -2.7566995042   -0.8360040207
 H   -0.2459777165   -3.6318296798    1.7398698938
 H   -2.5449233475   -1.8232581040    1.7302090615
 H   -1.8530456534   -1.0540998582   -0.8293253769