14

 O   -0.0616923232    1.4435103864    0.0012049907
 C    0.0310879478    0.0511376902   -0.0034596017
 C    0.7412030655   -0.4332938524   -1.2562886905
 O    1.1238588755    0.3425165049   -2.0945466512
 C    0.7889962278   -0.4657610444    1.2440307733
 O    2.1456315040   -0.1448549929    1.1815249471
 C    0.1568373149    0.1243979260    2.4932774583
 O    0.8111284196    0.7555106089    3.2835780821
 H    0.4152847351    1.7425605396   -0.7897644979
 H   -0.9745761103   -0.4099762515   -0.0007024793
 H    0.8809810817   -1.5279994846   -1.3553138821
 H    0.6461506401   -1.5617075725    1.2938845181
 H    2.3156606555    0.4329056409    1.9430008850
 H   -0.9262198139   -0.0609286685    2.6360072180