21

 C   -0.0226643113    1.5705845162    0.0213862025
 C    0.0752174204    0.0507458956    0.0254266154
 O   -1.2194911964   -0.5164543371   -0.1657719816
 C    1.1261457346   -0.6568037798   -0.8319702995
 C    2.4124055732   -0.7746780010    0.0007981049
 C    2.1454417890   -0.1357254818    1.3612210207
 C    0.7074969536   -0.7164773618    1.2393804154
 C   -0.1273533127   -1.0233740727    2.4536630266
 C    1.2842353889   -1.7580137111    0.1818201772
 H    0.9515507314    2.0488884955    0.1462892012
 H   -0.4346563577    1.9171226348   -0.9349373594
 H   -0.6925816673    1.9158849466    0.8153372179
 H   -1.5242736636   -0.2670005423   -1.0442463252
 H    1.1481247748   -0.7401856210   -1.9128013878
 H    3.3666712208   -0.9414493030   -0.4834222359
 H    2.7040099722   -0.6500298240    2.1496513215
 H    2.2594008548    0.9466157304    1.4900402462
 H   -0.3390871498   -0.1098717136    3.0226655977
 H   -1.0826493017   -1.4689779635    2.1650168010
 H    0.3931729694   -1.7160784227    3.1236057868
 H    1.2296726675   -2.8326611638    0.0929776645