16

 C   -0.0024482569    1.3931656582   -0.2056322842
 N    1.4488346595    1.4422756355    0.1460929870
 C    1.4100812769    0.1212491952    0.5808681781
 N    2.0018612467   -0.5453022484    1.4774321042
 C    1.2879048297   -1.8253086579    1.6572182603
 C   -0.2274250347   -1.5838043893    1.7372076610
 O   -0.7776504121   -0.9732330839    0.5572793805
 C    0.1245783894   -0.1704373721   -0.1566288071
 H   -0.6606295012    1.7674190510    0.5848056692
 H   -0.2486157286    1.8532944866   -1.1650231557
 H    1.8504974045    2.1728454020    0.7208875053
 H    1.5138690102   -2.5316844663    0.8455444890
 H    1.6218903337   -2.2883740991    2.5906370391
 H   -0.7689725437   -2.5266214808    1.8612596831
 H   -0.4338879244   -0.9485538320    2.6109487342
 H    0.2659590610   -0.5812161388   -1.1625514539