15

 N   -0.1041131509    1.2941055667    0.0124548765
 C   -0.0197272171    0.0241234334    0.0045038688
 N    1.0909035178   -0.8241197988   -0.0075327270
 C    0.6447305094   -2.1406596323   -0.0123057935
 N   -0.6260702529   -2.2872954017   -0.0050879365
 C   -1.1590307403   -0.9474331410    0.0060925065
 C   -2.4380198390   -0.6421779659    0.7625085036
 C   -2.4474982264   -0.6334942066   -0.7304225769
 H    0.8108887669    1.7446265148    0.0092475533
 H    2.0512319846   -0.5254516561   -0.0117741496
 H    1.3601416789   -2.9552898944   -0.0215908971
 H   -2.8929278116   -1.4799710154    1.2771108102
 H   -2.4550636148    0.3105834663    1.2797548723
 H   -2.4710354356    0.3252188540   -1.2362924582
 H   -2.9089675291   -1.4652754429   -1.2489203326