18

 O   -0.1781676132   -0.1999093885   -0.1193138094
 C   -0.0458480818    0.9968979586   -0.0679788854
 N   -1.0934639559    1.8668908083    0.0617875738
 C   -1.1061252057    3.3074435547    0.0234731500
 C    0.0097885128    4.1696902465    0.5502721125
 C   -0.2259804332    4.0513060984   -0.9487720891
 C    0.6611839389    3.2190852225   -1.8605872982
 C    1.6813070284    2.3201628902   -1.1573976637
 O    1.1890498885    1.5975756336   -0.0220664317
 H   -1.9891129192    1.4079591274    0.0159767318
 H   -2.1168051150    3.6700636816    0.1708365269
 H   -0.2762056653    5.1002268187    1.0284282951
 H    0.8699817407    3.6838827407    0.9876536850
 H   -0.6715934687    4.9146818702   -1.4340403834
 H    0.0171780173    2.6049695197   -2.5043897861
 H    1.2283119787    3.8717281368   -2.5344096767
 H    2.1035085296    1.6077527274   -1.8774919291
 H    2.5024947831    2.9211815831   -0.7574412923