20

 C    0.0944479905    1.5147565805    0.0924413817
 C   -0.0161888924   -0.0069523263    0.1849002108
 O    0.3389558394   -0.4738968932    1.4840736340
 C   -1.4077520653   -0.5085546779   -0.2375243265
 C   -1.4972630425   -2.0170317007   -0.3057667685
 C   -1.7408597670   -2.8416991580    0.9167047325
 C   -2.8320813880   -2.7446488690   -0.1413400675
 C   -4.0274081679   -2.0022015084    0.1406899570
 N   -4.9878544733   -1.3968799409    0.3670647295
 H    1.0840290018    1.8420410670    0.4221152620
 H   -0.0656592453    1.8659263241   -0.9318239045
 H   -0.6576044617    1.9975959880    0.7294982868
 H    0.7347224217   -0.4584969867   -0.4764690082
 H   -0.1999455338    0.0059508975    2.1231992395
 H   -2.1566715724   -0.1181424319    0.4641186416
 H   -1.6576661031   -0.0832353038   -1.2177245009
 H   -0.8559756373   -2.4689833780   -1.0583903849
 H   -1.2418915057   -3.7979012848    1.0205194158
 H   -1.9138896766   -2.3193134102    1.8492512302
 H   -2.9951847412   -3.6156506372   -0.7666843102