15

 N    0.0201051302   -1.1193223609   -0.0928272301
 C   -0.0070452999    0.0374126096   -0.0439903264
 C   -0.0386050494    1.4593068056    0.0073855749
 N   -1.1397835828    2.2342385085    0.6306179181
 C   -0.7572706147    3.3927288924   -0.2734605756
 C    0.1567562830    4.2890918068    0.5501515389
 O    1.2569554567    3.4261382902    0.8980928036
 C    1.2255937496    2.3449854867    0.0199490636
 C    0.2356989227    2.5038126998   -1.0791495100
 H   -2.0169459650    1.8437210532    0.2910313159
 H   -1.5837621046    3.8820664214   -0.7845170685
 H    0.5212399136    5.1529708471   -0.0239361441
 H   -0.3188843153    4.6270965961    1.4732907294
 H    2.1809475485    1.8564566247   -0.1247786114
 H    0.3941970375    2.4248066089   -2.1464990783