19

 C   -0.0952719287    1.5336390986   -0.0186240908
 C    0.0545741190    0.0164932340    0.0130898228
 O    0.7344767339   -0.4146378802   -1.1607189111
 C    1.8779323190   -1.2814726241   -0.8617180565
 C    2.8303344685   -0.4599187795   -0.0140429312
 C    2.2620410408   -0.0456280635    1.1172532718
 C    0.8346647627   -0.5325825150    1.2782338140
 C    0.7866983160   -2.0403101047    1.0937264837
 C    1.3526842773   -2.4454760401   -0.0411075096
 H    0.8818443695    2.0224735949    0.0078720628
 H   -0.6029615748    1.8359895278   -0.9390498445
 H   -0.6922741493    1.8809746993    0.8317365222
 H   -0.9424794360   -0.4469041967    0.0238473457
 H    2.2828721087   -1.5692859223   -1.8307707106
 H    3.8253436588   -0.2028017893   -0.3558222561
 H    2.7186821662    0.6200829191    1.8396010106
 H    0.3574034741   -0.1936133880    2.1979581759
 H    0.2714370262   -2.6778375123    1.8021607638
 H    1.3946459479   -3.4657138579   -0.4016000729