15

 N   -0.0920499714   -1.1719378859   -0.0820545668
 C   -0.0939015986   -0.0159687482   -0.0489509655
 C   -0.1337730322    1.4354193804   -0.0084512290
 C   -0.0920982618    1.9906973126    1.4599316267
 O    1.3344031567    2.3571994446    1.2962819988
 C    1.1957607185    2.1599965044   -0.0438113860
 N    1.6156180030    2.7060499788   -1.0933031128
 C    0.5749765527    2.3465635792   -2.1041806881
 C   -0.7396026063    2.0688576678   -1.2838435940
 H   -0.6907567615    2.8889511547    1.6252494528
 H   -0.2180170300    1.2572678643    2.2551943664
 H    0.4525156601    3.1835729191   -2.7946583624
 H    0.8813750471    1.4714731931   -2.6895670032
 H   -1.4571464903    1.4287962425   -1.7993249370
 H   -1.2233393760    3.0187859525   -1.0380033097