22

 C    0.0618440310    1.5188047881   -0.1193087953
 C   -0.0056670180   -0.0052171799    0.0631661956
 C    0.8719333993   -0.4418087022    1.2469631642
 C   -1.4762681990   -0.5168099305    0.1195233799
 C   -2.2920754563    0.0747372390    1.2705818343
 O   -2.1627052863   -0.1170219651   -1.0647326495
 C   -1.4808482734   -2.0735410647    0.1994020645
 C   -2.8128305615   -2.6496680236    0.0338195556
 N   -3.8608467009   -3.1212060217   -0.0856926620
 H    1.0789708252    1.8219639516   -0.3861394614
 H   -0.6178738474    1.8522453974   -0.9061113951
 H   -0.2024107504    2.0435565283    0.8044781709
 H    0.4217065563   -0.4625443971   -0.8442948634
 H    0.4888039338   -0.0516784876    2.1957327605
 H    0.9568254143   -1.5284795126    1.3367188107
 H    1.8855671855   -0.0488524848    1.1214047284
 H   -2.3549378717    1.1598892709    1.1722666238
 H   -3.3089306102   -0.3246077647    1.2464522145
 H   -1.8480458913   -0.1662460745    2.2398275845
 H   -1.6719875067   -0.4399482232   -1.8292138108
 H   -0.8276723040   -2.4826355329   -0.5819255324
 H   -1.0764919582   -2.4140337702    1.1574192625