17

 O    0.3088952840    1.4552190662   -0.1253696730
 C    0.1455098278    0.0640742484   -0.0446288733
 C    0.0512159145   -0.6331394428    1.3287323072
 C   -1.4711200001   -0.2726862054    1.4839646363
 C   -1.8528097196   -1.7453385963    1.7890159900
 C   -3.1889696493   -2.2017175553    1.4614198850
 C   -4.2989125177   -2.5775756931    1.1893969404
 C   -0.7444274138   -1.8295788146    0.7052862691
 C   -1.2654776232   -0.5591703310   -0.0497930617
 H   -0.3200609593    1.8726921678    0.4733106703
 H    0.8624699757   -0.3660746996   -0.7506507240
 H    0.7825507867   -0.6986327379    2.1357678923
 H   -1.8996562140    0.6220088379    1.9383141595
 H   -1.5477993059   -2.0990142092    2.7807003850
 H   -5.2782872411   -2.9106975854    0.9501287974
 H   -0.3180888920   -2.7216732302    0.2463444079
 H   -2.0384599828   -0.5387660495   -0.8172487280