13

 O    0.0048785164    0.1001803665   -0.7595445198
 C    0.0443225552    1.1537177290   -0.2185823131
 O   -0.9731384416    1.8219196314    0.4316992616
 C   -0.1392582442    3.0098868215    0.7068550726
 C   -0.0663371841    3.3509326526    2.1082611238
 C    0.0221620980    3.6520959750    3.2678179447
 C    1.0462611851    2.2574373976    0.0716018878
 C    2.4622167301    2.1897672136    0.4259388093
 O    2.0033041592    2.7785405107   -0.8014665980
 H   -0.4885607185    3.8473654422    0.0966650416
 H    0.0877322107    3.9170025808    4.2948889586
 H    2.8474974071    2.8886120880    1.1651118055
 H    2.9916386167    1.2459348011    0.3191294453