21

 C    0.0096761368    1.5097548049    0.0598702005
 C   -0.0333670267   -0.0205635797   -0.0135295094
 C    0.6813303312   -0.5404227779   -1.2840500588
 C    0.8679224384   -2.0617103505   -1.2446966183
 C    1.5544034793   -2.4722835215    0.0648660610
 C    0.7965958891   -1.8869113411    1.2561064001
 O    0.6624417476   -0.4728347174    1.1544785844
 C   -1.4368640047   -0.4785437102    0.0084763171
 C   -2.5837862665   -0.8400967376    0.0237460536
 H    1.0514205237    1.8410617457    0.0794524317
 H   -0.4920885608    1.9494871404   -0.8058304791
 H   -0.4864614144    1.8553975897    0.9692789192
 H    0.1168742083   -0.2341158128   -2.1705649013
 H    1.6603156525   -0.0476470239   -1.3271317458
 H   -0.1120555824   -2.5496412698   -1.3145795905
 H    1.4507860797   -2.3917312889   -2.1109239614
 H    1.6026302202   -3.5630546469    0.1599754619
 H    2.5854153419   -2.0969163084    0.0782548442
 H   -0.1970723571   -2.3529880103    1.3391113075
 H    1.3298173194   -2.0597154986    2.1953602039
 H   -3.5975380456   -1.1566010454    0.0424128097