25

 C    0.4021167370    1.2737382090    0.2466049171
 C    0.2322902190   -0.2233292534   -0.0369042224
 C    0.6371480835   -0.7103581879   -1.4520568531
 C   -0.0795984783    0.0730432901   -2.5714041328
 C   -1.6117161127    0.0385966875   -2.5300053120
 C    2.1916490590   -0.6162605912   -1.6171574772
 C    2.6861357816   -2.0170610920   -1.3631976976
 C    1.6904566576   -2.8985385136   -1.3193469191
 C    0.3486891193   -2.2482061532   -1.5390931792
 H    1.4282491224    1.6154674069    0.0772970103
 H   -0.2556841277    1.8851303726   -0.3790273219
 H    0.1553800832    1.4930192753    1.2903620027
 H    0.8188861497   -0.7985610930    0.6909491481
 H   -0.8144672262   -0.4964550656    0.1434335412
 H    0.2577980546    1.1170061868   -2.5560030630
 H    0.2587298868   -0.3322846735   -3.5339370354
 H   -2.0323666279    0.5635563901   -3.3935079412
 H   -1.9927424004   -0.9878746294   -2.5514032011
 H   -2.0086362100    0.5190465981   -1.6303451058
 H    2.4674256603   -0.2838677608   -2.6283411475
 H    2.6378943777    0.1144594354   -0.9326405457
 H    3.7395982205   -2.2535302318   -1.2568978692
 H    1.8036564840   -3.9676891091   -1.1742494555
 H   -0.3994571788   -2.5679413802   -0.8031876290
 H   -0.0575010140   -2.5278715872   -2.5219871203