15

 C   -0.0062861971    1.4737594445    0.0655929704
 C    0.0146297668   -0.0107623153   -0.0183036108
 C   -0.0084002111   -0.8043680276   -1.1045165254
 C   -0.0595396956   -0.3827429599   -2.4587170115
 N   -0.1012968131   -0.0024611309   -3.5508663712
 C    0.0278540771   -2.2208419602   -0.6845234194
 N    0.0191758715   -3.2311007725   -1.4382194787
 O    0.0732238510   -2.2366069002    0.6884774162
 C    0.0684910807   -0.9020632775    1.1912230916
 H    0.8850506889    1.8452907267    0.5854878032
 H   -0.0458402658    1.9274317539   -0.9264361876
 H   -0.8733279986    1.8172221477    0.6427380202
 H    0.0506820369   -4.0953663180   -0.8968272492
 H    0.9733401262   -0.7331604186    1.7908484572
 H   -0.8000465180   -0.7613591721    1.8490085251