13

 O    0.0667353010    1.3435795449   -0.0642325597
 C    0.0601153361    0.0014156139   -0.0418619796
 C   -0.0031035297   -0.7067346856   -1.2551199080
 N   -0.0118089984   -2.0266939653   -1.2783696885
 C    0.0423371703   -2.6707056782   -0.0922367712
 C    0.1048132132   -1.9482334045    1.1040518863
 N    0.1137369981   -0.6150240153    1.1302841469
 C    0.0346184588   -4.0962445668   -0.0823185944
 C    0.0299060547   -5.2988428342   -0.0372221173
 H    0.1133475505    1.6365019529    0.8572084844
 H   -0.0461428816   -0.1740669847   -2.2006163363
 H    0.1483842576   -2.4639564254    2.0585100932
 H    0.0250117295   -6.3606422318   -0.0128109459