16

 C   -0.0321190551    1.5100709154   -0.0593356412
 C    1.5286393912    1.3640417969    0.0092714293
 C    1.1493946853    0.1643475139    0.9467724366
 N   -0.0840021313   -0.0258170654    0.0440519609
 C    0.6271285265   -0.3226030712   -1.1879890739
 C    0.6587126188   -1.1105981902   -2.2788713572
 O    1.7364990676   -0.7415723513   -3.0510171773
 C    2.3810291506    0.2995463624   -2.4155148230
 C    1.7356951230    0.5893431822   -1.2701246656
 H   -0.4749253571    1.9541329494    0.8356546247
 H   -0.4812836874    1.9184131292   -0.9663773126
 H    2.1991011651    2.1707619645    0.3009463497
 H    1.8163241798   -0.6985204977    0.9901318106
 H    0.8299688969    0.4678734710    1.9468302620
 H    0.0628191911   -1.9206539826   -2.6624541235
 H    3.2489108150    0.6774455137   -2.9293029096