19

 C   -0.7609223724    1.2544983875   -0.0591806851
 C    0.2139775203    0.0821145039   -0.0037593798
 C    1.2920262839    0.1138119452   -1.1041706207
 N    2.3944768343   -0.6726690523   -0.5473822370
 C    3.4072344149   -1.1454311980   -1.3758905401
 N    4.4383205202   -1.7636975554   -0.9719284005
 C    2.3171307494   -0.7775315041    0.8544098567
 O    3.0957866596   -1.3418063127    1.5745170508
 C    1.0561630177   -0.0207948839    1.2748858339
 H   -0.2361441418    2.2089297492    0.0614407465
 H   -1.2960408770    1.2839537888   -1.0145253156
 H   -1.5074960341    1.1807520903    0.7373387648
 H   -0.3453759537   -0.8548222787   -0.1173935412
 H    0.9433460806   -0.3184715782   -2.0470922135
 H    1.6123617133    1.1465677217   -1.3063386482
 H    3.1847235515   -0.9124483310   -2.4259607830
 H    5.0179902762   -2.0130198646   -1.7722435882
 H    1.3620882082    0.9727460174    1.6295667992
 H    0.5677304789   -0.5299293550    2.1072440907