21

 C   -0.3356209759    1.4343158516    0.0245177249
 C    0.0387856107   -0.0444190745    0.0278603368
 O    0.6493079235   -0.3236112327   -1.2358073030
 C    0.4916170740   -1.6401059132   -1.6997552603
 C    1.0276881961   -2.7520693494   -0.8431778942
 C    1.5442359128   -2.7278095950    0.3969724224
 C    2.0896175683   -4.0005197583    1.0099490248
 C    1.6246526482   -1.5544922766    1.2763810865
 C    0.9674497085   -0.3947267922    1.1644087696
 H    0.5611128973    2.0487442824   -0.1025208421
 H   -1.0219208582    1.6526365621   -0.7969406652
 H   -0.8152716790    1.7118909814    0.9682206399
 H   -0.8799742125   -0.6487905906    0.1152766612
 H   -0.5698167327   -1.8537139581   -1.9316841791
 H    1.0173570251   -1.6630304339   -2.6644461252
 H    1.0004993321   -3.7137814521   -1.3558037036
 H    3.1520544169   -3.8887642070    1.2604703165
 H    1.5713086548   -4.2443282749    1.9454976864
 H    1.9900180775   -4.8526323687    0.3334999350
 H    2.2716848019   -1.6820477463    2.1426298242
 H    1.1246260607    0.3706356260    1.9206618844