19

 C   -0.2864450114    1.5370707336    0.1023334690
 C    0.0061236214    0.0536909838    0.0447630509
 C   -0.7866588678   -0.9049754870    0.8997214249
 C    0.6751365260   -0.6435975803    1.1972029042
 C    1.7238877247   -1.6805236972    0.8465958095
 C    1.4150021054   -2.4739618700   -0.4145821891
 O    1.7323930428   -3.6197569175   -0.5754942583
 O    0.7240153258   -1.8350618875   -1.3950688984
 C    0.4684402491   -0.4265137714   -1.3177565093
 H    0.5873487950    2.1297528949   -0.1937898251
 H   -1.1140828843    1.8070832714   -0.5640678292
 H   -0.5645045986    1.8392866165    1.1161392643
 H   -1.5199068812   -0.4792682040    1.5758576500
 H   -1.0688890254   -1.8670358729    0.4852407974
 H    0.8966372493   -0.0550895189    2.0828419741
 H    2.6936466199   -1.1867820973    0.6907188335
 H    1.8725515816   -2.4132251191    1.6438075134
 H   -0.2918212460   -0.2408028209   -2.0827772217
 H    1.3766559436    0.1182292338   -1.6144886002