19

 C    0.2233486064    1.5332891356    0.2396827850
 C    0.2140110349    0.0407975109    0.0797385098
 C   -0.9069333497   -0.8343767982    0.5904765034
 C    0.4981151603   -0.9643485978    1.1602799996
 C    1.4054498579   -2.0220582465    0.5283435372
 C    1.2216779524   -1.7304446371   -0.9954313188
 O    0.8477891181   -0.3668387106   -1.1131729711
 C    2.7865122806   -1.8708391453    0.9741185099
 C    3.9247562540   -1.7438543232    1.3394808586
 H    1.2492612581    1.9135408597    0.2185582693
 H   -0.3354474633    2.0126044630   -0.5706991600
 H   -0.2372282292    1.8210814874    1.1884775311
 H   -1.6487124625   -0.3693061387    1.2310531950
 H   -1.3009878265   -1.6238241971   -0.0409715091
 H    0.6929907201   -0.6728458582    2.1848737389
 H    1.0684557516   -3.0416547650    0.7495855354
 H    2.1366873264   -1.8883838997   -1.5698231514
 H    0.4389139954   -2.3849581296   -1.4025635174
 H    4.9309035551   -1.6352721295    1.6607894744