16

 O   -0.0232861412   -0.1128648646    0.1727614885
 C   -0.0259559907    1.0769397994   -0.0221085276
 C   -1.3201453006    1.8673608942   -0.1868294464
 C   -1.1675896004    3.1649399423   -0.9314793632
 C   -0.0201473470    3.6160832712   -1.4305552060
 C    1.2948345641    2.8738440340   -1.2713027381
 C    1.2540882010    1.8995330864   -0.0670074636
 C    1.6429317259    2.1780929984   -2.5199722501
 N    1.9123486905    1.6389446617   -3.5061348471
 H   -2.0552697106    1.2146599529   -0.6712507398
 H   -1.7215536076    2.0552003830    0.8208674119
 H   -2.0739742237    3.7479124764   -1.0740082890
 H    0.0137670160    4.5433823297   -1.9929629715
 H    2.0962806223    3.6014428916   -1.0932707683
 H    1.2810103302    2.5124216219    0.8432363399
 H    2.1125607918    1.2263660215   -0.0568504296