17

 O   -0.2211110079    1.3487457067    0.3278069897
 C    0.0813831536    0.0538399286   -0.1803756207
 C   -1.2288538293   -0.7116559531   -0.2497259999
 N   -2.1382644476   -0.0159875387   -1.1634179709
 C   -3.5000467251   -0.5341422920   -1.1926217473
 C   -4.2737440433    0.2946323794   -2.2426272307
 O   -5.2146423713    0.9836648192   -1.9698298723
 C   -3.5140486881   -1.9411690645   -1.6164438619
 N   -3.5501760938   -3.0424468300   -1.9643438253
 H    0.5521394258    1.9098452823    0.2226589826
 H    0.5209755021    0.1142785427   -1.1858885334
 H    0.7836234034   -0.4815362938    0.4751185320
 H   -1.0423286277   -1.7232760210   -0.6248252424
 H   -1.6432965005   -0.8029460513    0.7689550687
 H   -2.1678909119    0.9592515475   -0.8782054983
 H   -4.0479942666   -0.4591373289   -0.2382878338
 H   -3.8437383518    0.2247933767   -3.2618349261