19

 C   -0.1437130404    1.5291865005   -0.0393530940
 C    0.0576436782    0.0382040771    0.0651214605
 O   -1.0836981791   -0.7097901319   -0.3061846771
 C    1.3878383661   -0.6801842994   -0.2370868523
 C    2.6502372477    0.0948282526   -0.1075214485
 C    2.8431453871    0.5302476334    1.1423867155
 C    1.7385501630    0.0900103076    2.0760081854
 C    0.7752856835   -0.6784464866    1.1757968346
 O    0.1739796656   -1.7759486168    1.7736011995
 H    0.7612715890    2.0759027581    0.2311820229
 H   -0.4070088809    1.8070345350   -1.0675295080
 H   -0.9604126809    1.8503366196    0.6151053678
 H   -1.1393970714   -0.7282781220   -1.2676275795
 H    1.3241151936   -1.5497068324   -0.8845542349
 H    3.3163491321    0.2815582274   -0.9429155954
 H    3.6770533687    1.1380095859    1.4738636341
 H    2.1050517140   -0.5749076063    2.8686927807
 H    1.2513562228    0.9347158044    2.5791726328
 H   -0.6183162785   -1.9630100062    1.2514086158