18

 C    0.0736039153    1.5353794417   -0.1104454927
 C    1.3773729411    0.7947190054    0.0144975219
 C    0.0500007081    0.0361343686    0.0264515904
 N    0.4035314600   -0.7277992062   -1.1965319035
 C   -0.0519388418   -0.1520577093   -2.5100232917
 C    1.2853491534    0.5957470936   -2.6409780206
 C    2.0759348129    0.9420525623   -3.8210098085
 O    1.4194452144    1.9480661276   -3.0346461290
 C    1.7065320745    0.0311702367   -1.2747760091
 H   -0.2268208596    2.0556169577    0.7940688069
 H   -0.1978249018    2.0527898355   -1.0240234259
 H    2.0788361079    0.9754378077    0.8183357770
 H   -0.4713943251   -0.4623800648    0.8358070027
 H   -0.2212725471   -0.9346341831   -3.2556111229
 H   -0.9363899588    0.4896415602   -2.4561676913
 H    3.1639987049    0.9439766579   -3.7649291703
 H    1.6607303967    0.7834558211   -4.8157203902
 H    2.6201398249   -0.5690936825   -1.2417998733