13

 O   -0.0280065415    0.0149940410    0.3050729509
 C    0.0009164170    1.1789862839    0.0408712258
 O   -1.1209048496    1.9287937586   -0.1583900524
 C   -0.8197640512    3.2289974817   -0.6846830056
 C    0.6949057857    3.3746551257   -0.6070735677
 O    1.1528845136    3.2014611205    0.7422765753
 C    1.2053786853    2.0715128533   -0.1377054988
 C    1.3892122827    4.2923067448   -1.4559581331
 C    1.9278937887    5.0814434699   -2.1841678465
 H   -1.1706896932    3.2855564489   -1.7194438535
 H   -1.3331208535    3.9796575186   -0.0785906277
 H    2.1805436851    1.6566075532   -0.3631080344
 H    2.4174915810    5.7756358198   -2.8226437423