24

 C   -0.4192937636    1.4718220946    0.2359199081
 C   -0.0577807448    0.0256057650   -0.0034897686
 C   -0.8524715135   -1.0671048379    0.6186623457
 N    0.4888991123   -0.7448826210    1.1342018304
 C    1.5540799957   -1.6178046606    0.6201707802
 C    1.6117951358   -1.5469819946   -0.9451366843
 C    3.0562108467   -1.3079924446   -1.4161166675
 C    1.0964947315   -2.8390307316   -1.6065435220
 C    0.7085392648   -0.3196386467   -1.2760025330
 H    0.4706411678    2.1103498565    0.1953022824
 H   -1.1236217651    1.8295638026   -0.5239705412
 H   -0.8821218369    1.5981168394    1.2181290221
 H   -1.6652234004   -0.8197652163    1.2973430225
 H   -0.9985990419   -1.9946228343    0.0727623503
 H    2.4984184683   -1.2591191148    1.0450681097
 H    1.4075979799   -2.6422935526    0.9807213258
 H    3.7067496686   -2.1445429108   -1.1362227972
 H    3.1039147077   -1.2024785890   -2.5057003529
 H    3.4721068388   -0.3981955377   -0.9705063454
 H    0.0590230733   -3.0626944281   -1.3440169028
 H    1.1492582839   -2.7636386614   -2.6987479043
 H    1.7045945738   -3.6993087910   -1.3047850105
 H    0.0400790440   -0.5216783076   -2.1199654283
 H    1.3242289334    0.5408242022   -1.5626460693