17

 O    0.2372242404    1.3900814970   -0.0463165083
 C    0.0474538310   -0.0183854699   -0.0365479149
 C   -1.3993804511   -0.5277594449    0.0000562787
 C   -1.3316870164   -1.7628025945   -0.9347686697
 N   -0.1998515345   -1.5433458210   -1.8482582072
 C    0.5069154091   -0.6020529180   -1.3680594837
 N    1.6648304371   -0.0620680332   -1.9051817642
 C    2.3882183548   -0.4744936821   -3.0096738162
 O    2.1784961735   -1.4483779121   -3.6813459830
 H    0.1422422024    1.7196034797    0.8520760944
 H    0.6510308139   -0.4703319830    0.7679034766
 H   -1.7603964003   -0.7580725921    1.0051027251
 H   -2.0413179463    0.2458960635   -0.4333631950
 H   -1.1617575756   -2.6885732739   -0.3691868053
 H   -2.2482313310   -1.9112237627   -1.5131583618
 H    1.9528287643    0.8001649959   -1.4625331783
 H    3.2262090887    0.2284032015   -3.1961218773