18

 C   -0.0140930750    1.5609552415    0.1078898677
 O    1.4473761951    1.5231410989   -0.2034718558
 C    1.1626769668    0.2128979891   -0.7579104626
 C   -0.0866814692    0.0005582631   -0.0182795486
 N   -0.2058806966   -1.0213087821   -1.2253261180
 C    0.4168418000    0.0709163379   -2.1113302081
 C    1.2658231797   -0.6302478889   -3.1606108137
 C    1.9273438894   -1.7204792270   -2.2725388968
 C    1.3173053378   -1.3465122203   -0.9345581025
 H   -0.1829139238    1.9303168817    1.1219548113
 H   -0.5488515245    2.1759613990   -0.6191902208
 H   -0.0817995319   -0.5161595303    0.9406144119
 H   -0.2813044939    0.8391476191   -2.4420199961
 H    0.6494059042   -1.0574277889   -3.9564555546
 H    1.9880290245    0.0505466873   -3.6199467710
 H    1.6502942812   -2.7347723166   -2.5710662927
 H    3.0186327052   -1.6610910190   -2.2466113702
 H    1.4884506411   -1.9680876344   -0.0558906393