19

 C   -0.1537429449    1.4546426401   -0.6820179714
 C   -0.1116228795    0.1045444139    0.0376018364
 C   -1.4734331992   -0.5985439125    0.0643027840
 O   -1.9911415161   -0.8130659624   -1.2444078556
 C   -1.4250253889   -1.9174502582    0.8651645626
 C   -2.7995103176   -2.5686486704    0.8975273077
 O   -3.6572198188   -2.2257575214    1.6816010558
 C   -3.0378353378   -3.6148504561   -0.0827250960
 C   -3.2139306467   -4.4985854374   -0.8813375056
 H    0.8417108134    1.9051370677   -0.7337075969
 H   -0.5342902364    1.3369082670   -1.6998052848
 H   -0.8130307010    2.1569269941   -0.1605772424
 H    0.6152161227   -0.5605400255   -0.4517607421
 H    0.2397588082    0.2344264295    1.0686963874
 H   -2.2105471103    0.0567930904    0.5436685267
 H   -1.3939949289   -1.4110500844   -1.7087564130
 H   -0.6865842303   -2.5948430831    0.4205164837
 H   -1.1318329033   -1.7046571211    1.8977520379
 H   -3.3938338445   -5.2765715802   -1.5830306145