15

 N   -0.1852408179    1.2673972738   -0.2586968555
 C    0.0512987279    0.0457988642    0.3302401806
 N    1.1704617924   -0.4632252543    0.6656093148
 C    2.3875672861    0.2806262085    0.3766736528
 C    3.5708680633   -0.5001984697    0.9507394048
 O    3.6070917541   -1.8130866069    0.4387639763
 C   -1.1559918187   -0.7043485657    0.6301539638
 N   -2.1335157881   -1.2808735082    0.8475030674
 H    0.5851805118    1.7214593507   -0.7221747058
 H   -1.0951320436    1.4369955151   -0.6559555582
 H    2.5225543237    0.3832257721   -0.7129285591
 H    2.3543145459    1.2952413279    0.8061409412
 H    4.5128540538   -0.0162363392    0.6729411155
 H    3.4986711345   -0.4944005409    2.0500953084
 H    2.7238657448   -2.1736808574    0.5920734331