19

 C    0.1052458376    1.7145325506    0.0555727165
 C    1.5851972536    1.4488423753    0.4351588419
 C    1.2429159135   -0.0791320286    0.5102197006
 C   -0.0180693417    0.2206921147   -0.3475168412
 C    2.2206336960   -1.0864050522    0.0239257038
 C    2.3227910053   -1.8161774676   -1.1355449815
 N    3.4413350421   -2.6208064833   -1.1254091745
 C    4.0206391065   -2.3865018131    0.0270324373
 N    3.3259275040   -1.4703771114    0.7627365931
 H   -0.5029421794    1.9480369802    0.9343117434
 H   -0.0936179749    2.4644676908   -0.7126271914
 H    2.2607663858    1.6503665974   -0.4007366226
 H    1.9818470196    1.9267747722    1.3346905053
 H    0.9332592464   -0.3195141462    1.5356718375
 H   -0.9370530569   -0.3127088517   -0.0956133564
 H    0.1888115148    0.0801952668   -1.4119156291
 H    1.6460592848   -1.8145671186   -1.9762329882
 H    4.9320443238   -2.8415889767    0.3858522094
 H    3.5716042390   -1.1270858786    1.6763544562