18

 C   -0.2885790110    1.5315218821    0.0517437507
 C    0.0169448177    0.0274476739    0.0447199430
 O   -1.1853952691   -0.7394790601    0.0907393449
 C    0.7484126942   -0.3984878318   -1.1910924555
 C    2.0785257838   -0.6282437784   -1.3847027753
 C    3.2724698425   -0.5740898239   -0.4984196531
 O    2.2997124260   -0.9710193028   -2.6688503195
 N    1.0889894005   -0.9850963296   -3.3615143112
 C    0.1878391185   -0.6447982633   -2.4777600861
 H    0.6345851602    2.1174961969    0.0143133728
 H   -0.9043697957    1.7986141185   -0.8120510635
 H   -0.8280134332    1.8118282880    0.9646435117
 H    0.6440422743   -0.2018486579    0.9220216246
 H   -1.7248338281   -0.3974194411    0.8111195536
 H    2.9689462123   -0.4779116818    0.5462305326
 H    3.8729659535   -1.4823584541   -0.6061660777
 H    3.9149367465    0.2777214290   -0.7476069978
 H   -0.8515583330   -0.5973433634   -2.7686285342