19

 C   -0.0291699857    1.5413401778   -0.0078425739
 C   -0.0042178569    0.0170417173    0.0166009652
 C    0.6460339018   -0.6302628389   -1.2325971736
 O    0.1927913450   -1.9889444372   -1.2239869179
 C   -1.0881320938   -1.9974239033   -0.6505251009
 C   -1.2320994229   -1.9055548435    0.8798353948
 C    0.0120817464   -1.6818696190    1.6678355397
 C    0.6731673076   -0.6092856991    1.2325473679
 C   -1.3912740371   -0.6863308189   -0.0160311174
 H    0.9855933904    1.9540085129   -0.0252497996
 H   -0.5562353299    1.9146315569   -0.8927948272
 H   -0.5321060413    1.9371518612    0.8795325058
 H    0.3196733608   -0.1198052337   -2.1541126170
 H    1.7395154576   -0.6434958479   -1.2029328931
 H   -1.8189313966   -2.5738161678   -1.2091172736
 H   -2.0920258862   -2.3982900453    1.3215805498
 H    0.3368364679   -2.3498396352    2.4568308293
 H    1.6429007438   -0.2730581747    1.5834984509
 H   -2.3120639609   -0.1297410915   -0.1433849294