21

 C   -0.2907787637    1.5309285109   -0.0293243937
 C    0.0333767176    0.0466376747    0.0286829687
 O    0.7507534918   -0.3472160778   -1.1660669738
 C    1.8521128139   -1.1633814786   -0.7399899434
 C    1.3468881562   -1.8271149224    0.5446617815
 C    0.9461922084   -0.4683975773    1.1612218923
 C    2.2961272418    0.2882698109    1.1228547128
 C    2.9391945599   -0.2062749920   -0.2163802146
 O    4.1374712802   -0.9454645603   -0.0292005387
 H    0.6109306031    2.1443544876   -0.1014104799
 H   -0.9055272781    1.7401978629   -0.9096635986
 H   -0.8544443986    1.8363837241    0.8587808456
 H   -0.9159897563   -0.5112784753    0.0617607832
 H    2.1697451015   -1.7998138567   -1.5656823619
 H    0.5046329392   -2.5026459321    0.3767745447
 H    2.1400949946   -2.3424750398    1.0897671263
 H    0.4609170027   -0.4910632244    2.1382563423
 H    2.1885723574    1.3738256238    1.1748649276
 H    2.9286453400   -0.0269489362    1.9585013742
 H    3.0875151325    0.6122724902   -0.9321130627
 H    4.7923389260   -0.3607516523    0.3644073283