16

 C   -0.2168620637    1.4693210125   -0.0044149430
 N    0.0240654218    0.0322615011    0.0404634155
 C    1.1908768980   -0.4866012782   -0.7994713142
 C    2.1727124857   -0.0272492379    0.3276669562
 C    0.9286663564   -0.4691885858    1.1658100095
 C    0.8882235447   -1.9687049236    0.8469429445
 C    1.0647673223   -1.9804288743   -0.4763045629
 H    0.6625110425    2.1260048221    0.1071023951
 H   -0.6936483776    1.7113306037   -0.9606792544
 H   -0.9271139967    1.7268317906    0.7890367034
 H    1.2636599810   -0.1609880331   -1.8373026165
 H    3.1045702368   -0.5829808828    0.4569208351
 H    2.3646418568    1.0476446427    0.3437510530
 H    0.7275870092   -0.1253890780    2.1805928169
 H    0.7264731181   -2.7748689905    1.5469428045
 H    1.0903054850   -2.7990303985   -1.1800820926