16

 C   -0.0180911811    1.4618341360    0.0997288754
 C    1.3040579289    0.7463308931    0.0523133941
 C    2.0074715028    0.4195086954    1.3781001266
 N    1.0344722466   -0.4590782597    2.0079118259
 N    0.9872741616   -1.0668836922    3.2115645673
 C   -0.1566109394   -1.7381183104    3.1100408272
 N   -0.8406331933   -1.5869943186    1.9344781227
 C   -0.0489386546   -0.7662341966    1.2689682967
 C   -0.0030120732   -0.0499249133   -0.0216239312
 H   -0.3536129444    1.8928917720    1.0376937838
 H   -0.3045622367    2.0235651419   -0.7825634327
 H    1.9259990710    0.8623288607   -0.8258065135
 H    2.9569444244   -0.1033087003    1.2223233631
 H    2.1960500550    1.3028303372    1.9957035067
 H   -0.5132074146   -2.3620970726    3.9162782083
 H   -0.3473829029   -0.5294593325   -0.9280025305