17

 C    0.0604656153    1.4970067144    0.1348956386
 C   -0.0352876696   -0.0351955489   -0.0222068434
 C   -1.4909946138   -0.5021231608   -0.0230185586
 O   -2.0495327025   -0.1686690954    1.2408501142
 C    0.6705421771   -0.4745446174   -1.3029148390
 C    2.1811344034   -0.6122059069   -1.2392594022
 O    0.0535506442   -0.7017512430   -2.3203627440
 H    1.0958578558    1.8343139735    0.2364259382
 H   -0.3791335688    1.9994689139   -0.7333407167
 H   -0.4922105960    1.8016982235    1.0255918832
 H    0.4734019479   -0.4964326756    0.8345334140
 H   -2.0280859197   -0.0156473759   -0.8483146902
 H   -1.5311309100   -1.5865182736   -0.2037284739
 H   -2.9877143515   -0.3763487672    1.2167214746
 H    2.6437747077    0.2589332240   -0.7649190465
 H    2.4377392363   -1.4818415868   -0.6219906027
 H    2.5855194442   -0.7533326777   -2.2423010156