18

 C    0.0923349104    1.4822235292   -0.0425977245
 C   -0.0541247775   -0.0032716295   -0.0153782386
 C   -1.2072055204   -0.6962595254   -0.0723848385
 C   -1.1792115230   -2.1405512397   -0.0349371177
 C   -2.4769015171   -2.8951544075   -0.0993890554
 C    0.0194139434   -2.7605742087    0.0571574442
 C    1.2618734581   -2.0224552223    0.1184927602
 N    2.4100585032   -2.5612324367    0.2049809590
 O    1.1476363457   -0.6266458377    0.0772211971
 H    0.7084053300    1.7918755170   -0.8939339233
 H   -0.8831696778    1.9655357761   -0.1171408115
 H    0.5955097905    1.8352167341    0.8642711844
 H   -2.1470041826   -0.1639579781   -0.1459678536
 H   -3.0199342090   -2.6564618462   -1.0216104910
 H   -2.3168720839   -3.9748245815   -0.0632058580
 H   -3.1316447501   -2.6142215464    0.7341306819
 H    0.1138471222   -3.8387312379    0.0897322472
 H    3.1392308778   -1.8483366287    0.2341425381