15

 C    0.0167855751    1.4577604804    0.0718018248
 N    0.0040624603    0.0071817893    0.0023967825
 C    0.5505192199   -0.6722707648    0.9116394876
 O    1.1809350333   -0.0066409503    2.0082440386
 C    1.7589922202   -0.7217095186    2.9698057604
 O    2.2814341735    0.0867713542    3.8874196846
 N    1.8390258947   -2.0000707828    3.0642199297
 C    1.2437613505   -2.7009629831    2.0265046000
 C    0.6219639918   -2.1109074504    0.9859994104
 H    1.0384388592    1.8600156172    0.0834083780
 H   -0.5019198596    1.8592479639   -0.8014225219
 H   -0.4848598767    1.8305786232    0.9746256875
 H    2.6831103687   -0.4894001412    4.5532760024
 H    1.3113743237   -3.7806208493    2.1061999259
 H    0.1619419357   -2.6695194977    0.1833993095