16

 C   -0.0039437213    1.5306330870    0.0017039228
 C    0.0414214846    0.0137192469    0.0828247179
 C   -1.1120554759   -0.6627203172   -0.4603733492
 N   -2.0372199577   -1.1758260872   -0.9283216284
 C    1.3392347895   -0.7853292454   -0.1454745436
 O    2.4567389870   -0.0308194494    0.2990176147
 C    1.9639301169   -0.0497306604    1.6700237827
 C    0.6938117954   -0.7719091984    1.2209275746
 O   -0.0375240937   -1.6624827838    1.9609497405
 H    0.9921793921    1.9433790729    0.1718423030
 H   -0.3328627017    1.8451414574   -0.9920337216
 H   -0.6972736930    1.9453627150    0.7387625455
 H    1.4707130136   -1.5130944016   -0.9366651968
 H    2.6063097466   -0.6794389286    2.2964234941
 H    1.8759398955    0.9496457857    2.1062863246
 H    0.4961496320   -2.4468194329    2.1336524293