18

 C    0.0399016241    1.1075843300   -0.3633798112
 O   -0.1885003709    0.0463833560    0.5536059490
 C   -1.3716802120   -0.6326030597    0.2938314780
 C   -1.4452782152   -1.6758804000   -0.7678407236
 N   -0.1812265184   -2.0631446967   -1.3819754480
 C    0.6921287089   -2.6019037141   -0.3250318274
 C   -0.1687632202   -2.7921917322    0.9367236515
 O    0.1441366851   -3.4382344747    1.9043194910
 C   -1.4717373047   -2.0891673214    0.7146916974
 H    0.9761862289    1.5845726886   -0.0659606015
 H    0.1276296792    0.7308850043   -1.3891166152
 H   -0.7680404239    1.8528470614   -0.3186288926
 H   -2.2774405621   -0.0474382392    0.4652767235
 H   -2.3171802010   -1.7408522385   -1.4083420028
 H   -0.3711150627   -2.7903215462   -2.0606298060
 H    1.1472537381   -3.5521856021   -0.6159795122
 H    1.4983289959   -1.9025182469   -0.0784343592
 H   -2.3364307489   -2.4260862386    1.2714616094