16

 C    0.0517570570    1.4558547541   -0.3241111249
 N    0.0315546538    0.0207090225   -0.0253219421
 C   -1.0775547459   -0.4892674935    0.8921071771
 C   -0.1112228260   -1.6941947490    1.0745495882
 O   -0.0929549951   -2.8771634559    1.1021365290
 C    0.8181496803   -0.4529342062    1.1948452761
 C   -0.3089072725    0.1130545450    2.0955176668
 C   -0.4708471433    1.2637843192    2.9714538931
 O   -0.5239224745   -0.0911881211    3.4664257933
 H    1.0155294405    1.6918596849   -0.7850315313
 H   -0.7288486006    1.6584535729   -1.0634428737
 H   -0.0976415063    2.1266686806    0.5314519438
 H   -2.1312551224   -0.4445435563    0.6273925441
 H    1.8994503575   -0.3672922748    1.2710862397
 H    0.4004820562    1.8369799662    3.2837928301
 H   -1.4168917589    1.8021466115    2.9935623407