19

 C   -0.0387459080    1.5415497880    0.0566891438
 C    1.5211047991    1.4919127137    0.0102119574
 C    1.9648263894    1.2499647374    1.4256369429
 C    1.4080488083    0.2204810350    2.0710855955
 C    0.5485077039   -0.7284502962    1.2464108412
 C    1.5900224119   -1.6723725717    0.6340643549
 C    2.0810120415   -1.1377647464   -0.4906839088
 C    1.3275077343    0.1079053865   -0.8214476763
 C    0.0010934330    0.0029596109   -0.0243773166
 H   -0.4928787705    2.0245550066    0.9246353926
 H   -0.4602107863    1.9548132730   -0.8649972420
 H    2.0565751585    2.3013393591   -0.4867654964
 H    2.6842706867    1.9150029497    1.8931185087
 H    1.6422940311   -0.0306619083    3.1006956210
 H   -0.2243669100   -1.2239171787    1.8390119335
 H    1.9627692930   -2.5530167018    1.1446704741
 H    2.9197488637   -1.5199834467   -1.0610278220
 H    1.2232962781    0.3354742608   -1.8845161859
 H   -0.8413039479   -0.5369857310   -0.4648634675