13

 N    0.2539580689    1.3100156993   -0.5024863954
 C    0.1274459134    0.0824538632   -0.2279532016
 O    1.1515482085   -0.8293807641   -0.1347761871
 C    0.6209553248   -2.1176847681    0.1927020151
 C   -0.8567942264   -1.9124939892    0.2952397223
 C   -1.1360001081   -0.6265083362    0.0484136350
 C   -2.4676456078    0.0184930935    0.0425823192
 O   -3.4934089835   -0.5797314983    0.2718108130
 H    1.2324592812    1.5574201968   -0.6521767612
 H    0.8960103429   -2.8349674978   -0.5923770805
 H    1.0669403936   -2.4665469279    1.1339201223
 H   -1.5696399621   -2.6909643040    0.5319552130
 H   -2.4530049152    1.0999668729   -0.1896714740