14

 O    0.0157276888   -0.0516124543    0.0145945390
 C    0.0436936208    1.1527212149    0.0188412854
 N   -1.1044722790    1.9477771251    0.0424262167
 C   -1.0526557295    3.3420877940   -0.0221168875
 O   -2.0334202177    4.0405385693   -0.0606977087
 C    0.3986584940    3.8265200172   -0.0551948397
 C    1.1780924321    3.0685438650   -1.1575248355
 C    1.3015195715    2.0235407623   -0.0217577414
 O    1.1340714918    3.0857010757    0.9578616760
 H   -2.0093500241    1.4954310547    0.0841315462
 H    0.4587378747    4.9088626225    0.0504054268
 H    0.6664382421    2.7951973083   -2.0816192847
 H    2.1363634458    3.5445739347   -1.3663802882
 H    2.2023786986    1.4268949606    0.1149532754