17

 C   -0.2671302569    1.5282580404   -0.2121331687
 C   -0.0913950634    0.0531449455   -0.0331686819
 N   -0.1181322663   -0.7565640745   -1.0865957455
 N    0.0622925532   -2.0049575003   -0.5651347209
 C    0.1962909337   -1.9840545227    0.7753336301
 O    0.3989220996   -3.1101158922    1.4797222910
 C    0.1031201013   -0.6633568311    1.1794778604
 C    0.1802712684   -0.2286250533    2.6074782466
 O    1.0337646510   -1.1086476872    3.3704672950
 H    0.5656983364    2.0899382004    0.2270651528
 H   -0.3183040674    1.7647274663   -1.2769403615
 H   -1.1863055368    1.8889204099    0.2638292470
 H    0.1089214454   -2.8048281456   -1.1722453803
 H    0.6027457906   -2.8097284169    2.3837920999
 H    0.5208817478    0.8120239981    2.6936229756
 H   -0.7880827193   -0.2899065532    3.1185846486
 H    1.9313785027   -0.9844149536    3.0404057218