17

 C    0.1063417083    1.5210950812   -0.0934974209
 C    1.3104360963    0.6106073144    0.1144991106
 C   -0.0595847473    0.0386508623   -0.0502208546
 O   -0.7460146592   -0.6172775074    1.0170410914
 C   -1.2980765751   -1.6099950873    0.1127677112
 C   -0.5976008740   -0.9427529753   -1.0661178494
 C   -0.9932076707   -0.7330319052   -2.4705285819
 N    0.1159043551   -1.6475752716   -2.1168677321
 H   -0.2536704112    2.0775122754    0.7651845720
 H   -0.0020414208    2.0328571548   -1.0447820318
 H    2.0260959757    0.5023743427   -0.6957192103
 H    1.7430348177    0.5664102533    1.1081005311
 H   -0.9442983720   -2.6207910422    0.3429865767
 H   -2.3936077662   -1.5868065222    0.1060103562
 H   -1.8766373426   -1.2224690872   -2.8723038474
 H   -0.7613028328    0.2265851691   -2.9272285020
 H    1.0164586888   -1.2065489747   -2.2926939388