17

 O   -0.4399356077    0.6543976870    0.7819661211
 C    0.1496348139    1.0604233254   -0.1868940482
 C    1.4126831387    1.8632176050   -0.1374781422
 C    2.1664826681    1.9019031082    1.1699729163
 C    3.1340843411    3.0448910868    1.2813112132
 C    3.2323102866    4.0425356868    0.4074502863
 C    2.3778565854    4.1816743528   -0.8219829720
 C    1.5244690445    2.9699836368   -1.1222323392
 O    2.1900314903    1.7353126956   -1.3432699465
 H   -0.2021573637    0.8661776086   -1.2245667492
 H    1.4259779166    1.9367638087    1.9794489746
 H    2.6920422015    0.9464169027    1.3024575154
 H    3.7861276722    3.0294234872    2.1506111764
 H    3.9612484252    4.8313889285    0.5720863301
 H    1.7113285655    5.0502524054   -0.7198589713
 H    3.0023631642    4.3951670406   -1.7007676134
 H    0.6872469677    3.1447244340   -1.8007040812