21

 C    0.0048245067    1.5605229816    0.1534033730
 C   -0.0200033800    0.0216044483    0.0333844817
 C    0.7837973596   -0.5765255487    1.1816185741
 O    1.8196988441   -1.1749061873    1.0544192954
 C   -1.4194810826   -0.5424836231    0.0407055806
 C   -1.9139340848   -1.4075819614   -0.8487347740
 C   -3.3607178563   -1.7480237181   -0.5922999613
 C   -3.5984843873   -1.1931412624    0.8351945714
 C   -2.4767468893   -0.1490108328    1.0609734777
 H    1.0292595810    1.9367690280    0.0795520656
 H   -0.5873478219    2.0125863861   -0.6472885877
 H   -0.4109196438    1.8952064263    1.1094975874
 H    0.4895870164   -0.2823051196   -0.8860678917
 H    0.3399561714   -0.4085631527    2.1909539402
 H   -1.3602522159   -1.8000530465   -1.6955624186
 H   -4.0102549683   -1.2632613847   -1.3355824409
 H   -3.5658366014   -2.8220460109   -0.6641856963
 H   -4.5988660913   -0.7745955796    0.9697622483
 H   -3.4873072440   -2.0046085980    1.5612325149
 H   -2.1095171285   -0.1512860215    2.0937104818
 H   -2.8282931039    0.8746128669    0.8683255884