21

 C   -0.8527170156    0.0756116797   -0.1336848130
 C    0.6567742864   -0.0338080793   -0.3323897709
 O    1.2333558422    1.2160151928   -0.6986060813
 C    1.3969868926   -0.4544287807    0.9502838732
 C    1.0585149457   -1.7945951807    1.4107191602
 C    0.7721193222   -2.9074380927    1.7774146541
 C    0.4331653201   -4.2277150211    2.2249687222
 C    0.5201089151   -5.4084915808    1.2697602563
 C    1.5145050542   -5.2853091365    2.3856573208
 H   -1.0819547093    0.8339731729    0.6224041895
 H   -1.3493650470    0.3613041669   -1.0683321304
 H   -1.2697716775   -0.8817092183    0.1908048221
 H    0.8640906636   -0.7898136596   -1.1066414426
 H    0.7414022532    1.5610553159   -1.4500074713
 H    2.4730551464   -0.3813407455    0.7518626133
 H    1.1786709524    0.2857186064    1.7313639670
 H   -0.3746353413   -4.2727428958    2.9501043208
 H   -0.2529128401   -6.1651597299    1.3434378868
 H    0.8572731617   -5.2006213897    0.2613755013
 H    2.5274780855   -4.9933081841    2.1362344862
 H    1.4306675496   -5.9564541399    3.2330153257