20

 C    0.0117918851    1.5163043340    0.0090865299
 C    0.0306239789    0.0127794653    0.0302857483
 N   -0.8360040306   -0.7529855550    0.9573202180
 C    0.6413432555   -0.8245586855    1.0885083901
 C    1.3107293676   -1.9621435390    0.2918882056
 C    0.2536131100   -2.9491242387   -0.2528537793
 C   -0.4019445935   -2.0852111828   -1.3739716727
 C    0.4122591936   -0.7784854131   -1.2506702863
 O    1.7235245441   -1.2700564376   -0.9071857721
 H    0.9187594529    1.9079050006   -0.4635905940
 H   -0.8498058195    1.8990668701   -0.5504713845
 H   -0.0402144447    1.9240535225    1.0246364859
 H   -1.1999593699   -0.1196776873    1.6687022548
 H    1.1208405207   -0.4065446147    1.9674831095
 H    2.1809984155   -2.4069056583    0.7736728732
 H    0.7493499905   -3.8322841249   -0.6614382128
 H   -0.4630572219   -3.2575460826    0.5086070139
 H   -0.2451033021   -2.5221637213   -2.3626876308
 H   -1.4692098141   -1.9329468632   -1.2121478603
 H    0.4769184217   -0.1676282587   -2.1514097562