21

 C   -0.2164488759    1.5130760319    0.0638401258
 C   -0.0892360744    0.0104953483    0.2474703813
 O   -1.2334716636   -0.6007359233   -0.3389032354
 C   -1.3435141958   -1.9816857826   -0.1382773768
 C   -0.3811762228   -2.8288249193   -0.9436432642
 C   -1.8169855562   -2.4374582658    1.2045236512
 C   -2.7757449805   -2.4711010430    0.0074672010
 C   -3.9041229816   -1.5092654353   -0.0134655801
 O   -4.9923600844   -1.7607576732   -0.4718250900
 H    0.6530063319    2.0221033087    0.4902487034
 H   -0.2800969926    1.7651326873   -0.9983348621
 H   -1.1168806737    1.8879154264    0.5586023049
 H    0.8305703432   -0.3554290895   -0.2316155105
 H   -0.0295653252   -0.2508881703    1.3146679494
 H    0.6552193099   -2.6542747529   -0.6370792970
 H   -0.5919182488   -3.8927428127   -0.8069816930
 H   -0.4695000694   -2.5914200812   -2.0081224422
 H   -1.4831454776   -3.3891956950    1.6020142520
 H   -2.0107000287   -1.6721054560    1.9492055159
 H   -3.0127338482   -3.4373251625   -0.4244097469
 H   -3.6791758553   -0.5207829498    0.4386364431