18

 C   -0.2603894410    1.2302820837   -0.0543829533
 O    0.2278177285   -0.0993827339   -0.1176863543
 C    0.8153119887   -0.6153067164    1.0516965748
 C    2.0510345901    0.1817067323    1.5939262068
 O    1.2251618138    0.6962142746    2.7230788224
 C    0.2704482644   -0.2311945656    2.3969898516
 N   -0.5292970280   -0.9708736622    3.0299063430
 C   -0.7350340585   -2.1098746048    2.0707904963
 C    0.5287427741   -2.1191523580    1.1278850301
 H    0.5325541487    1.9636064306    0.1434595721
 H   -0.6961077821    1.4435797761   -1.0325454955
 H   -1.0349563083    1.3393193236    0.7164792187
 H    2.8754191617   -0.4174434343    1.9863623002
 H    2.4116584393    0.9994524258    0.9688839109
 H   -0.8172964097   -3.0313238564    2.6516975910
 H   -1.6663066633   -1.9879338739    1.5058262851
 H    0.3484352685   -2.5610403674    0.1462868205
 H    1.3421890131   -2.6584591238    1.6219626994