17

 C   -0.0226352844    1.5306559181    0.0285936945
 C    0.0026545393    0.0342736803    0.0097137821
 C    0.0495159891   -0.7673142170   -1.0894894862
 N    0.0511079609   -2.0996368288   -0.6653589950
 C   -0.0217951294   -3.2025442289   -1.5037803702
 O    0.0012591888   -3.1341371595   -2.7075344134
 C    0.0344095880   -2.1219964488    0.7345937628
 N   -0.0180893467   -3.3495320273    1.4152709567
 C    0.0003080308   -0.8293397000    1.1683482662
 H    0.8351083314    1.9410662827    0.5745010699
 H    0.0005145030    1.9385347519   -0.9854576803
 H   -0.9251773626    1.9100000286    0.5221094350
 H    0.0754190114   -0.5502237943   -2.1435141920
 H   -0.1123322308   -4.1431915358   -0.9377930931
 H    0.8601277532   -3.8589602978    1.3893850025
 H   -0.2736510780   -3.2084057852    2.3843883273
 H   -0.0078996541   -0.5135973579    2.2015583832