14

 C    0.1774274058    1.5049409995    0.0844760092
 C   -0.0250073238    0.0413470929    0.0147261904
 C   -1.0742269033   -0.7873361807   -0.1880422458
 O   -2.3632788151   -0.4483145063   -0.4036781409
 N   -0.6840795998   -2.1180799274   -0.1610324772
 C    0.5946382893   -2.0444735679    0.0661088624
 N    1.4694343558   -3.0832768927    0.2601867655
 O    1.0872158833   -0.8031810143    0.1846938767
 H    0.8674715927    1.8691029127   -0.6872160329
 H   -0.7861650222    1.9980617837   -0.0667824354
 H    0.5721260803    1.8257849883    1.0566971440
 H   -2.8495200572   -1.2752810811   -0.4999792226
 H    1.1341093775   -3.9591949532   -0.1117745352
 H    2.4268956067   -2.8786429334    0.0145237018