20

 C   -0.1858629984    1.5220413031   -0.1871012127
 C    0.0241177730    0.0435170951    0.0514259398
 N    1.2319709864   -0.7195271216   -0.2966347852
 C    2.4242505451    0.1090151598    0.1097034912
 C    2.0442785546    0.0612909439    1.6122130172
 C    2.0146265670    1.2985008113    2.5015591439
 C    0.7369731347   -0.6255168363    1.1779563405
 C    0.1617460611   -1.7175150180    1.8934350415
 C   -0.3144943300   -2.6150974802    2.5392469602
 H    0.6620231051    2.1457033675    0.0936341524
 H   -0.3909304923    1.6944077590   -1.2496057380
 H   -1.0568675477    1.8670496260    0.3793827567
 H   -0.8456123899   -0.5377551487   -0.2529411025
 H    3.3411064092   -0.4296954440   -0.1338101983
 H    2.4650865723    1.0950483306   -0.3626919381
 H    2.6633064866   -0.6989024848    2.0971199159
 H    1.4190564247    2.1117386457    2.0805200561
 H    1.5920693312    1.0511890618    3.4813718568
 H    3.0297027512    1.6764393224    2.6654621002
 H   -0.7358853240   -3.4138766523    3.0975577424