23

 C   -0.1132778051    1.3602870980    0.1252929956
 O    0.3843831920    0.0526159418   -0.0550151316
 C    0.8197704066   -0.5722600176    1.1388408055
 C   -0.3122717270   -1.2599165653    1.9493601454
 C   -0.0025877695   -2.6158081608    1.2293237159
 C    0.1281458854   -3.8386938436    2.1316205519
 C   -0.9505343235   -2.8906240873    0.0605916746
 C    1.3594891788   -1.9780452043    0.7634524313
 O    1.8155381236   -2.1585349778   -0.5462063523
 H    0.6505638566    2.0201387524    0.5632982088
 H   -0.3910613925    1.7413813455   -0.8602260171
 H   -0.9996926391    1.3768489935    0.7749353930
 H    1.4934480722    0.1021248947    1.6857025068
 H   -0.0956108272   -1.2843910517    3.0213337812
 H   -1.3161642929   -0.8519864491    1.8039543558
 H   -0.8392277210   -4.1201055211    2.5642546703
 H    0.5038002761   -4.7018244218    1.5698841574
 H    0.8209458840   -3.6518920504    2.9599845046
 H   -1.0872086153   -2.0029352052   -0.5620837950
 H   -0.5594867138   -3.6915533811   -0.5746297403
 H   -1.9351902075   -3.1975189533    0.4316035344
 H    2.1654057904   -2.2798018018    1.4420151249
 H    1.3678025586   -1.4879217337   -1.0782581611