17

 C   -0.0294345000    1.4561880865    0.0041013644
 N   -0.0449726169   -0.0018536333   -0.0041740083
 C   -1.1827891440   -0.7082754272   -0.1774973240
 C   -1.1648012476   -2.0688382628   -0.1802589833
 C    0.1002874301   -2.6989887134    0.0067951075
 C    0.1831718721   -4.2024029635    0.0131573654
 N    1.2143705447   -2.0314309021    0.1764075665
 C    1.2157101872   -0.6518869357    0.1820992488
 O    2.2027652617    0.0390593808    0.3327291166
 H    0.6267079168    1.8258847002   -0.7870478157
 H   -1.0447910401    1.8268102765   -0.1467226589
 H    0.3652478493    1.8188298667    0.9558575395
 H   -2.0906717447   -0.1294760306   -0.3112085104
 H   -2.0733132690   -2.6381609541   -0.3186839716
 H   -0.1844378810   -4.6122518219   -0.9344501906
 H    1.2150517198   -4.5174536907    0.1671248972
 H   -0.4465710884   -4.6193852255    0.8072661069