21

 C    0.0322159215    1.4891069694    0.0087288421
 C    0.0155832445    0.0328309826    0.0018804787
 C    0.0148863477   -1.1713713875   -0.0038759121
 C   -0.0282567427   -2.6311530175   -0.0104977212
 C   -1.4434381495   -3.1816957491   -0.0010125193
 C   -2.5584291881   -2.9483534659   -1.0651316612
 C   -3.1905406001   -3.8765309756    0.0106254777
 C   -1.8620529713   -4.6844495706   -0.0039726274
 C   -2.5404433361   -2.9575936248    1.0835872688
 H    1.0574476883    1.8759198129    0.0008709248
 H   -0.4811587319    1.8990665180   -0.8682649035
 H   -0.4644064693    1.8905651746    0.8991996327
 H    0.4991842637   -3.0159475785   -0.8943676595
 H    0.5142230808   -3.0243570257    0.8604749661
 H   -2.9560369741   -1.9328257135   -1.1373274139
 H   -2.3884255496   -3.3851725873   -2.0539302578
 H   -4.2029189941   -4.2806197609    0.0173602388
 H   -1.6408633086   -5.2527617377   -0.9125736542
 H   -1.6257082992   -5.2605239427    0.8958818034
 H   -2.3539511367   -3.4028806052    2.0656127402
 H   -2.9366863451   -1.9427429348    1.1711504769