19

 C    0.0034710170    1.4455851320   -0.0398345250
 C    0.0280124396   -0.0569541901    0.0240420651
 O    0.5861572292   -0.5991534042   -1.1722663520
 C    0.0295672708   -1.9146807157   -1.2846570872
 C   -0.8204389909   -2.0043913480   -0.0034302401
 C    0.1131962703   -2.1380093562    1.2139248542
 C    0.7476527000   -0.7105262360    1.2389291568
 O    2.1455858200   -0.6625829347    1.0453586950
 O   -1.2644377042   -0.6388645182    0.1065844384
 H    1.0294541200    1.8201243930   -0.0645236548
 H   -0.5185636428    1.7726781661   -0.9412081233
 H   -0.5024582074    1.8530265079    0.8389678974
 H   -0.5787572416   -1.9813070251   -2.1943219082
 H    0.8259997288   -2.6658366569   -1.3245556772
 H   -1.6743087973   -2.6790349538   -0.0453863781
 H   -0.4593254298   -2.3464411323    2.1206901115
 H    0.8785646487   -2.9086066391    1.0915696105
 H    0.4610427301   -0.1735887706    2.1529768534
 H    2.5705602494   -0.9158623280    1.8699310836