21

 C    0.0494611920    0.8584556171    1.3102727875
 C   -0.2452883170    0.2868167509   -0.0771890207
 O    0.8197937286   -0.5421478231   -0.5326682881
 C   -1.5896450731   -0.4426301347   -0.1495253814
 C   -2.7911718011    0.3763407162   -0.3654764524
 O   -2.2156600853   -0.3542219472   -1.4446025599
 C   -1.6374759185   -1.7892235433    0.5075783494
 C   -2.1206034708   -1.9602278603    1.9336818762
 C   -2.9232166675   -2.5167838773    0.7883781974
 H    1.0047662378    1.3906532678    1.2973818056
 H   -0.7318159881    1.5550349306    1.6288620030
 H    0.1085863947    0.0601325353    2.0591224625
 H   -0.2996430439    1.1017948924   -0.8074567808
 H    1.1180105906   -1.0771453976    0.2100707620
 H   -3.7670394366    0.0330223503   -0.0266548456
 H   -2.6933160254    1.4611260322   -0.4268202539
 H   -0.8073167873   -2.4215795542    0.2070973274
 H   -1.5877610260   -2.6467029627    2.5826346764
 H   -2.5105250817   -1.0827491659    2.4384348019
 H   -3.8616441332   -2.0369015318    0.5375477637
 H   -2.9272321782   -3.5899985245    0.6355471996