18

 C   -0.1467026833    1.5671335105   -0.0169406065
 C    0.0350802229    0.0510875489   -0.0094846750
 C    0.9469725394   -0.5276801775   -1.0905287336
 C    2.3627300033   -0.6037111261   -0.5016471970
 C    2.2841382298   -0.0789927860    0.9271303975
 C    0.8368073381   -0.5580651909    1.1723872790
 O    0.9052895791   -1.9497530627    0.8106687979
 C    1.4566385042   -1.8130809753   -0.4886477141
 H    0.8084620706    2.0982728308   -0.0563281505
 H   -0.7273974448    1.8789468896   -0.8912127297
 H   -0.6876556934    1.9056239072    0.8738932014
 H   -0.9465547322   -0.4363463938   -0.0421794331
 H    0.7627886384   -0.4069964947   -2.1498483733
 H    3.2524122197   -0.5464158619   -1.1136159765
 H    2.9885312575   -0.5779566715    1.5985924966
 H    2.4060549876    1.0024426880    1.0166626485
 H    0.4216524576   -0.4568430914    2.1733376118
 H    1.6248571256   -2.7443960331   -1.0099899332