17

 N    0.0116017360    1.4848629966    0.1626245082
 C   -0.0177065416    0.0409728983   -0.0138681098
 C   -1.4460193127   -0.5074208514   -0.0065455024
 C   -1.4397148271   -2.0312343859   -0.1501501194
 C   -0.6428990186   -2.5218035094   -1.3463405507
 O   -0.8428032601   -3.5706153070   -1.9115688285
 N    0.3841121389   -1.6743902059   -1.7669629556
 C    0.7411876947   -0.4277459467   -1.2657143805
 O    1.6155721557    0.2259193278   -1.7887505993
 H    0.9612712526    1.8051667143   -0.0142207903
 H   -0.5499129806    1.9190248827   -0.5670834037
 H    0.5209166311   -0.4090687522    0.8353228782
 H   -1.9412202973   -0.2081011586    0.9204438162
 H   -2.0124637689   -0.0566202570   -0.8323479708
 H   -0.9908566212   -2.4911022088    0.7408195368
 H   -2.4450508786   -2.4468796021   -0.2425001471
 H    0.9114956677   -1.9953101948   -2.5714995614