21

 C    0.0519975942    1.5553824132    0.2785272895
 C    1.5395157854    1.5636587015   -0.1870284688
 C    1.3860252623    0.1252010654   -0.7122218586
 C   -0.1004642326    0.0595808525   -0.0712274644
 C    0.4728162967   -0.8898725705    1.0661099715
 C    1.7099917216   -1.0839546695    0.1651538157
 C    3.2139845685   -0.9288295974   -0.2218081172
 C    2.3623522725   -0.7360501371   -1.5635495596
 C    1.5411641628   -1.9606320637   -1.1162320030
 H   -0.1356129534    1.8185932168    1.3236197741
 H   -0.5753854202    2.1896042674   -0.3534822576
 H    1.7398499101    2.2998308133   -0.9709051999
 H    2.2851663749    1.7113037575    0.6028457399
 H   -1.0208568835   -0.2627088267   -0.5600727063
 H    0.6456506642   -0.3460564085    1.9996298391
 H   -0.0925242839   -1.7984404467    1.2902729666
 H    3.7310618169   -0.0464472836    0.1604432843
 H    3.8625995054   -1.8108208520   -0.1911584221
 H    2.7779516348   -0.5431659199   -2.5576346334
 H    2.0529363994   -2.9270693531   -1.1066566862
 H    0.5311144440   -2.0449697791   -1.5239316637