19

 C   -0.0280999469    1.5518956666   -0.0483795305
 C   -0.0465728054    0.0447039651    0.0679165671
 C   -1.2119875507   -0.6448936581   -0.5406278802
 O   -2.1208078961   -0.0972560037   -1.1149890141
 C    1.2758993193   -0.7397461169   -0.0118298775
 O    2.4518538436   -0.0207712726   -0.1697353363
 C    0.5483346207   -0.6842994874    1.2926445953
 C    1.1699066882    0.0946008287    2.4374552792
 O    2.5508361779   -0.2474873816    2.6365882923
 H    0.9937812107    1.9323846945   -0.0069375745
 H   -0.4662812598    1.8371388409   -1.0076953653
 H   -0.6244993626    2.0294246999    0.7356438839
 H   -1.1921725614   -1.7564137910   -0.4343845214
 H    1.2510222126   -1.6751595655   -0.5695394501
 H    2.9103114139   -0.0467085210    0.6848097133
 H    0.0269467216   -1.5929066729    1.5862061704
 H    1.1747557551    1.1666572724    2.2367176575
 H    0.5993671000   -0.0630650585    3.3611728106
 H    2.5951163792   -1.1787276488    2.8790614101