20

 C   -0.1835645137    1.4345364468   -0.0693352607
 N    0.1226383432    0.0191251010    0.0651289842
 C    0.2005568965   -0.5261449952    1.3138193645
 O    0.1118223727    0.0909294980    2.3580620541
 C    0.1211970686   -0.7983679471   -1.1516265511
 C    1.2293027161   -1.8957321429   -1.1731735455
 C    0.4708529103   -3.1883218059   -1.0060418516
 C   -0.8462481426   -3.0162305840   -1.1053071562
 C   -1.2181656174   -1.5779409458   -1.3650662921
 H    0.5517922724    1.9283930764   -0.7146946883
 H   -1.1811044833    1.5892134734   -0.5003310621
 H   -0.1540510124    1.8783063312    0.9253575598
 H    0.3594463318   -1.6183305223    1.2845096686
 H    0.2827217584   -0.0927853533   -1.9685833179
 H    1.7682659258   -1.8800859248   -2.1297583753
 H    1.9828741282   -1.7233535846   -0.3978342239
 H    0.9700571169   -4.1381092459   -0.8510409120
 H   -1.5877587997   -3.8044223821   -1.0386580201
 H   -2.0016367267   -1.2042721767   -0.6960995929
 H   -1.5961084651   -1.4513985064   -2.3884998015