18

 C    0.0097202120    1.5275710527   -0.0275504789
 C   -0.0751394735    0.0075996876   -0.1125609105
 N    0.8152081115   -0.5058529060   -1.1399150607
 C    0.8449066125   -1.8677394803   -1.3600777195
 C    0.4276127246   -2.8994803067   -0.5814193781
 O    0.7568196863   -4.0790628583   -1.2636877626
 C    1.3263569571   -3.6496751166   -2.3977034299
 N    1.6869607464   -4.6074128675   -3.3129495262
 N    1.4195503417   -2.3605852356   -2.5306409983
 H    1.0340135762    1.8483836338    0.1829497048
 H   -0.3056839779    1.9927694706   -0.9686551643
 H   -0.6434668120    1.9057334272    0.7636161768
 H    0.2300333983   -0.4326522133    0.8456961374
 H   -1.1194935135   -0.3074723766   -0.2817682944
 H    0.8054505509    0.0146245720   -2.0068433253
 H   -0.0446309937   -3.0166604152    0.3746695637
 H    1.9255477721   -5.5017821723   -2.9104182426
 H    2.3615744311   -4.2748717254   -3.9855727213