13

 C   -0.0445774324    1.5704237601    0.0110417803
 C    1.4740896832    1.2298426501   -0.0067263896
 C    1.1682993117    0.1443109379    1.0663744852
 C    0.0391253719    0.0162093398    0.0024263012
 C    1.1462118991    0.1542190803   -1.0826776727
 H   -0.4329793990    2.0365230932    0.9212539305
 H   -0.4522920887    2.0457291576   -0.8859162855
 H    2.3071156075    1.9344078755   -0.0121404539
 H    1.8734729739   -0.6889311545    1.1373305611
 H    0.8720963351    0.5020028465    2.0568232459
 H   -0.7939352900   -0.6883164323    0.0076413099
 H    0.8299890169    0.5207143173   -2.0636203760
 H    1.8497119208   -0.6782799316   -1.1756418065