15

 O    0.0522514412   -0.0234266832    0.2275589871
 C   -0.0340068378    1.1752170906    0.0513052115
 C   -1.3064065330    1.9146039653    0.0120871470
 C   -1.3533472089    3.2013757876   -0.3765564468
 C   -0.1587056114    3.9527694803   -0.7882285602
 C    1.0904882557    4.0894596021    0.1124991466
 O    1.2037345133    3.0235645972    1.0279109503
 C    1.2032953716    2.0620944887   -0.0811138281
 C    1.1281787931    3.2148230539   -1.1001720306
 H   -2.2003402962    1.3597431515    0.2754001525
 H   -2.3047052403    3.7265273604   -0.4011507038
 H   -0.3242555897    4.8386936472   -1.3933630068
 H    1.5264895123    5.0455038743    0.3764040732
 H    2.1208982551    1.4721262653   -0.0857994536
 H    1.6607829151    3.2891111489   -2.0383029384