20

 C   -0.2503774926    1.4997527499    0.0424766746
 C    0.0705330874    0.0067976433   -0.0115102495
 C    0.9466083181   -0.4429155656   -1.1978142288
 C    1.5310039905   -1.7878533891   -0.7525264065
 O    2.6611143442   -2.1042517009   -1.5452885668
 C    1.8382443906   -1.5793991551    0.7466860166
 C    0.8466778999   -0.5266488726    1.1848105641
 N    0.6486003880   -0.0789990463    2.3582033095
 O    1.4794748055   -0.7216965581    3.2966015774
 H    0.6694016823    2.0925368150    0.0781564924
 H   -0.8208729748    1.8064828827   -0.8400110028
 H   -0.8355491002    1.7378228236    0.9338698878
 H   -0.8777895268   -0.5506430252   -0.0595074483
 H    0.3980548582   -0.5095239810   -2.1403926098
 H    1.7781645997    0.2585549572   -1.3420801225
 H    0.7592847683   -2.5675043190   -0.8593731502
 H    2.9830318502   -2.9708456654   -1.2783082883
 H    1.7736858055   -2.4857781367    1.3559607278
 H    2.8598001332   -1.1926270711    0.8556200490
 H    1.2281322128   -0.2883670459    4.1190534544