21

 O   -0.0180046028    1.4186889834    0.3020028457
 C    0.0324254664    0.0285568973    0.0227831650
 C   -1.3851751482   -0.5197168293    0.1192838337
 C   -1.4482459135   -2.0342835222   -0.1514840298
 C   -2.8354623407   -2.5974066986   -0.0918071353
 C   -3.5473485585   -3.1601926050   -1.0651556824
 C   -4.8874520045   -3.5971530601   -0.5504189140
 O   -4.8914999426   -3.2389441391    0.8298108470
 C   -3.6598899185   -2.6157364424    1.1741630561
 H    0.8738893916    1.7719816726    0.2369431842
 H    0.4368466542   -0.1625766126   -0.9852104857
 H    0.6842752142   -0.4998861043    0.7384573530
 H   -1.7753940535   -0.2910448117    1.1173316963
 H   -2.0203303268    0.0134078173   -0.5969112842
 H   -1.0157948019   -2.2485729595   -1.1358741432
 H   -0.8156034345   -2.5509340976    0.5853876000
 H   -3.2310300834   -3.3045890194   -2.0911828740
 H   -5.7238841105   -3.0992796380   -1.0674941465
 H   -5.0472307879   -4.6826812747   -0.6549647050
 H   -3.1622540565   -3.1821368191    1.9795352062
 H   -3.8523229920   -1.6047591869    1.5673307428