14

 O   -0.1423128002   -0.0361281697   -0.0322574219
 C   -0.0887709668    1.1547586103   -0.0449278637
 O    1.0624424014    1.8327701732    0.1584551557
 C    1.0261961802    3.2449569814    0.1246050973
 C    1.8420172370    4.0323491469    1.1807276523
 C    3.1581189324    3.5563503243    0.5184959334
 C    2.1746433481    3.9983230978   -0.5926605362
 O    1.8015581158    5.1688027426    0.2331231149
 H   -0.9533186028    1.8228445572   -0.2202562993
 H    0.0250838477    3.6367821502   -0.0706548206
 H    1.6115750080    4.2343677238    2.2260715305
 H    4.0079075273    4.2230876025    0.6650771338
 H    3.4128407788    2.4982984804    0.5865646547
 H    2.3398998130    4.1598467691   -1.6572069709