14

 O    0.2783843975    1.2306942271   -0.5774112142
 C   -0.0102382085   -0.0047976227   -0.0189808277
 C    0.7970988597   -0.2395637312    1.2530561558
 O    1.7699869806    0.4305948096    1.5272459130
 N    0.3683424819   -1.2989273933    2.0270787503
 C   -0.9074726607   -1.8336351108    1.9179809616
 C   -1.8209110819   -1.4025808270    1.0294531845
 C   -1.5225326767   -0.2698142779    0.1409498228
 O   -2.3552784619    0.3637641235   -0.4623439699
 H    1.0818124364    1.5387622024   -0.1307382270
 H    0.3075266876   -0.8397949283   -0.6839853646
 H    0.9262693358   -1.5019931305    2.8444562279
 H   -1.1218129345   -2.6182108107    2.6345531118
 H   -2.8218297452   -1.8134462301    1.0237436057