18

 C   -0.2062500237    1.6213743763   -0.0519760502
 C   -0.0606653657    0.1139009111   -0.0900821036
 C    0.8885923848   -0.5774451571   -1.0713922355
 C    2.0947148282   -0.2223036297   -0.1522977766
 C    2.5951964583   -1.6798286904   -0.0741536793
 C    3.3486281395   -2.1125080579    1.0841148276
 C    3.9975669669   -2.4866228014    2.0244496255
 C    1.0546505648   -1.7350096636   -0.0455689662
 N    0.9612978638   -0.4929186331    0.8780779510
 H    0.7523996894    2.1320966910   -0.1830481368
 H   -0.8800808804    1.9619234980   -0.8454979422
 H   -0.6288939300    1.9370873626    0.9073489372
 H   -1.0384803482   -0.3710601007    0.0272409969
 H    0.8720099404   -0.6441324012   -2.1652566291
 H    2.6869910103    0.6915288892   -0.1152407696
 H    3.0376747959   -2.0498583429   -1.0052137778
 H    4.5587736726   -2.8088067667    2.8661993614
 H    0.3999780530   -2.5932021036    0.1134699773