17

 N   -0.0315814542    1.3125472671   -0.1376286606
 C   -0.0589908650   -0.0532069777   -0.0100149781
 N   -1.1643365842   -0.6894349633   -0.0607689245
 C   -1.2414009148   -2.1282954739    0.0905347832
 C   -0.7088904709   -2.6716529729    1.4210957903
 C    0.7840003229   -2.6551989751    1.5362289373
 C    1.6467357156   -1.8194422069    0.9404777775
 C    1.3636054056   -0.6046460994    0.1620859496
 O    2.2845428933    0.0417976973   -0.3120823845
 H    0.8505406692    1.6909668691   -0.4489134563
 H   -0.8702837672    1.7286099092   -0.5114417789
 H   -2.2986610893   -2.4028513133    0.0110241439
 H   -0.7265515298   -2.6454592102   -0.7342233091
 H   -1.1507484485   -2.0993933400    2.2509292424
 H   -1.0562164568   -3.7035851893    1.5548237505
 H    1.2143956296   -3.4336713326    2.1642071515
 H    2.7142937146   -1.9670584381    1.0780062158