17

 C    0.0920759995    1.5697799779   -0.0925100368
 C   -0.0104128943    0.0567755004    0.0133667880
 O   -1.3558136657   -0.3856941141   -0.0066572749
 C    0.9055973901   -0.7997729873   -0.9331974312
 C    1.3435043850   -1.6335262073    0.2927124448
 O    1.9512763923   -2.6507679633    0.4459792431
 C    0.6711290826   -0.6348522045    1.2202117868
 C    1.2577179413   -0.0384752231    2.4344257042
 O    0.1052527555   -0.8728993792    2.4836111290
 H    1.1311711100    1.9074255331   -0.0332166562
 H   -0.3156427460    1.9175503088   -1.0493378259
 H   -0.4800182839    2.0452698499    0.7100102109
 H   -1.7572696697   -0.0783521938   -0.8269771528
 H    0.3699575078   -1.3644015012   -1.6994824512
 H    1.7374563024   -0.2564420921   -1.3918671892
 H    2.1693031844   -0.4690211864    2.8455461188
 H    1.0854005288    1.0162206421    2.6424625825