12

 N   -0.3017827434    1.3519072159    0.1394028931
 C    0.0110742320    0.1496021240   -0.0394990593
 O    1.3225208905   -0.2741053874   -0.2227138018
 C    1.6272766441   -1.2741936136   -1.1197290213
 O    2.6063025684   -1.9362779893   -0.9788375380
 N    0.7996885896   -1.3645466020   -2.2596277012
 C   -0.4436038451   -1.6162898707   -2.1497110995
 C   -1.1618654619   -1.6862962821   -0.8516078611
 N   -0.9406014136   -0.8796510705    0.1074805524
 H    0.5068094394    1.9582771180    0.0043061506
 H   -1.0207088565   -1.7677952663   -3.0647360181
 H   -1.9366894635   -2.4442293162   -0.7230935358