19

 C    1.1317193981   -0.0252903371    0.4587010705
 C    0.0450799870   -0.0794071328   -0.6167282413
 C   -1.3656277558   -0.3128042551   -0.1016161342
 C   -2.4572744149   -0.2608399125   -1.1517478027
 O   -2.4775401207    1.0108447491   -1.8120556291
 C   -3.2363079614    1.9819551145   -1.2536250984
 O   -3.2730342021    3.0912071647   -1.6911786454
 C   -1.6557094077   -1.0549491846    1.1347425188
 O   -1.7331819992    0.3738808711    1.1065843366
 H    2.0813581728    0.2920028938    0.0198084106
 H    0.8623423565    0.6863714008    1.2432942568
 H    1.2975466701   -1.0020846121    0.9239935114
 H    0.0328639307    0.8615673092   -1.1782257367
 H    0.2714102010   -0.8652482024   -1.3492851598
 H   -2.2836074943   -1.0001072826   -1.9384841573
 H   -3.4301170862   -0.4616998165   -0.6889989857
 H   -3.8079618253    1.6285764070   -0.3763423232
 H   -2.6079019923   -1.5727025686    1.2476123173
 H   -0.8392047462   -1.4636148260    1.7248576119