17

 O   -0.0399836819   -0.0807757674   -0.1500353485
 C   -0.0287927122    1.1167493813   -0.0118801359
 C   -1.3266327811    1.9339897251    0.0885339627
 O   -1.5814271622    2.3222332174    1.4323326037
 C   -0.7285017275    3.2902983666    1.9717912950
 O    0.5468980830    2.7930935783    2.3135270643
 C    1.4785765766    2.8159321247    1.2700057661
 C    2.3085717749    1.5795059831    1.0851889263
 C    1.2458992637    1.9279973037    0.0745964049
 H   -1.2658162689    2.8203353122   -0.5644888198
 H   -2.1649096171    1.3053685083   -0.2174081755
 H   -0.6297468913    4.1471326407    1.2831228426
 H   -1.1946723218    3.6027469098    2.9082924851
 H    1.9429542707    3.7886241746    1.1112165953
 H    3.3513333913    1.6873669375    0.8099313437
 H    2.0904183505    0.7505264653    1.7490122957
 H    1.5614478533    2.3128800088   -0.8931979456