16

 O   -0.0165099307    1.2728641199   -0.1241990909
 N    0.0467759628   -0.1152126419    0.0339001064
 C   -1.1013826985   -0.6423260143   -0.0159880938
 C   -2.5291212146   -0.2072839309   -0.2784143635
 C   -2.8767075895   -1.7159571318   -0.4984444528
 C   -1.4759245663   -2.1134137353    0.0436317357
 O   -0.7578534345   -3.0044712723   -0.7992267972
 C    0.2575999077   -3.7059558957   -0.2508696888
 O    0.9475828189   -4.4396036497   -0.8898677940
 H    0.9131940232    1.5263996859   -0.1043712632
 H   -3.0115046730    0.2434042599    0.5940845026
 H   -2.6665972639    0.4623242056   -1.1302564272
 H   -3.7339844573   -2.1152515457    0.0442835801
 H   -2.9613783285   -1.9744987658   -1.5549498973
 H   -1.5014017311   -2.5037474142    1.0689183529
 H    0.3623291455   -3.5326909837    0.8372665811