17

 C   -0.0031362901    1.5371067592    0.1214457759
 O    1.3663447317    1.9401189129   -0.0200416453
 C    2.0836167406    0.9980768455   -0.8299882445
 C    1.3477750919   -0.3079257996   -0.6662011161
 N    1.0265740822   -0.6683248254    0.7125519547
 C    0.0034793998    0.0393241299   -0.0532863456
 C   -0.6820215777   -0.8423557641   -1.0857295770
 N   -0.3100868634   -0.3122520236   -2.4210871354
 C    0.6419334293   -1.1844003797   -1.6893170359
 H   -0.3310404997    1.8830478397    1.1058050866
 H   -0.6394638574    1.9866879308   -0.6538283372
 H    2.0733822207    1.2859362488   -1.8907067334
 H    3.1146666669    0.9929701868   -0.4652044838
 H    0.8088428833   -1.6580978974    0.7958760297
 H   -1.5638251754   -1.4599353455   -0.9605742405
 H   -0.7789394567   -0.8889343964   -3.1230047464
 H    0.9829874741   -2.1178968620   -2.1216520057