18

 O    0.0536965540    0.0315419207    0.0031638232
 C   -0.0342913794    1.2290879266    0.0102904432
 C   -1.1851876616    2.2722257613    0.0323500411
 C   -0.0573247373    3.3224607438    0.0219406231
 N    0.9061928882    2.2343016971    0.0014461608
 C    0.1414987435    4.5841349816   -0.7508579240
 C   -1.1380424920    5.4280228431   -0.7330470836
 C   -1.1152591471    5.4187552437    0.8328577853
 C    0.1641458743    4.5750009461    0.8034186443
 H   -1.8227475253    2.2502136144   -0.8533439606
 H   -1.7970441034    2.2404524480    0.9357014339
 H    1.9150421111    2.2126691027   -0.0111982185
 H    0.9633934812    4.6888131357   -1.4504131465
 H   -0.9908332339    6.4307035404   -1.1392808793
 H   -2.0125126793    4.9830725896   -1.2187528947
 H   -0.9561311024    6.4165862804    1.2464707331
 H   -1.9752892368    4.9679225616    1.3385199054
 H    1.0060827661    4.6716203929    1.4799253137