21

 C   -0.0075262226    1.5126706217    0.0335098291
 C    0.0217677698   -0.0171288459    0.0613868278
 C   -1.4039995106   -0.5460273486   -0.1100025655
 O    0.8849513514   -0.5288696449   -0.9970845512
 C    1.8836403364   -1.2574571223   -0.2631207205
 C    2.2693134628   -0.3050388544    0.8926021241
 C    0.7805538626   -0.6165971631    1.2774266438
 O    0.1874465267   -0.2989589346    2.4920594503
 C    1.0704626105   -2.0724285038    0.7693953023
 H    0.9878718933    1.9516673676    0.1121362571
 H   -0.4498230894    1.8552095385   -0.9066141507
 H   -0.6172567481    1.8905401093    0.8597028144
 H   -1.8248943047   -0.1722191475   -1.0480364074
 H   -1.4455182523   -1.6356259919   -0.1377357444
 H   -2.0340356356   -0.1978439268    0.7139963607
 H    2.6041117356   -1.6984148324   -0.9480166303
 H    2.9796619237   -0.7516358431    1.5925676353
 H    2.5625195685    0.7139058126    0.6425525367
 H    0.7018438812   -0.6969250453    3.2011274685
 H    0.2520388261   -2.6922775797    0.4050991913
 H    1.7029756649   -2.6337597353    1.4613690487