17

 O   -0.4437135226    0.0810503992   -0.2116833570
 C   -0.2186638915    1.2386771973   -0.0295283273
 C   -1.0102279789    2.4728770915    0.4108973744
 O    0.1882841091    3.2628946133    0.2857068930
 C    1.0174534147    2.1398005583   -0.1411087451
 C    2.2033412677    1.8602122162    0.8150767182
 C    3.4207770244    2.2071693732   -0.0039409604
 C    3.1176028011    2.4658325147   -1.2735393139
 C    1.6397553434    2.3410533834   -1.5450453582
 H   -1.8093638619    2.7874988526   -0.2724897508
 H   -1.4015189611    2.4394664187    1.4357865105
 H    2.0925434207    2.4687727706    1.7191391266
 H    2.2142340562    0.8084299762    1.1312961605
 H    4.4184463730    2.2175967097    0.4198665601
 H    3.8283682916    2.7210413349   -2.0511942846
 H    1.4188796150    1.4870107423   -2.1994029881
 H    1.2013201790    3.2291484280   -2.0130325079