12

 N   -0.0714062797    1.2948896511    0.0117993781
 C    0.0065861140    0.0341278803    0.0037034537
 N    1.1281764070   -0.8080692229   -0.0082219460
 C    0.7455770062   -2.1237205057   -0.0138436133
 C   -0.6090240574   -2.2779197243   -0.0065484565
 C   -1.3125148419   -3.5011401706   -0.0097181479
 N   -1.8967043119   -4.5014990666   -0.0122521525
 C   -1.2075477910   -0.9232614776    0.0053612335
 O   -2.3607051563   -0.5861372565    0.0143390451
 H    0.8456702847    1.7480212756    0.0089368610
 H    2.0839327642   -0.4941377610   -0.0120571295
 H    1.4954819321   -2.9030071517   -0.0231329956