13

 O    0.0368669211    1.3285483854    0.2249328602
 C    0.0580465580   -0.0005839206    0.0113275154
 C    0.0960687329   -0.7544550197   -1.1494497854
 C    0.1018189944   -2.1060632411   -0.7338163605
 O    0.1355830016   -3.1506558849   -1.5848800944
 C    0.0675229641   -2.1463633792    0.6564849461
 N    0.0407378445   -0.8122792901    1.0905256952
 C    0.0595833553   -3.2577493670    1.5044269538
 N    0.0543267299   -4.2121317710    2.1697651807
 H    0.0524786331    1.7816907182   -0.6241302145
 H    0.1171154352   -0.3915711511   -2.1638057710
 H    0.1327229542   -3.9724061995   -1.0785058793
 H    0.0131350558   -0.5035227993    2.0467056136