18

 C   -0.1552727458    1.4881983074   -0.0341003260
 N    0.1164781082    0.0673588575    0.0061829581
 C    0.7699121242   -0.5200817017   -1.1828322636
 C    1.3141593990   -1.9025762417   -0.7171146970
 C    1.5006770296   -1.6529634552    0.7531453670
 C    2.0687991206   -2.1097328319    1.8933186701
 O    1.7542991963   -1.2855776165    2.9322046996
 C    0.9562877895   -0.2705774019    2.4394031901
 C    0.7772771718   -0.4734955836    1.1090265025
 H    0.7624441865    2.1005921489   -0.0837745241
 H   -0.7714238450    1.7209634209   -0.9079413139
 H   -0.7159452933    1.7816467796    0.8581214781
 H    0.0599015884   -0.5955232176   -2.0120740657
 H    1.6088593110    0.1172632928   -1.5125837501
 H    0.5706567538   -2.6887020755   -0.8956227434
 H    2.2231781900   -2.1810603581   -1.2559873517
 H    2.6995485740   -2.9477070677    2.1407261732
 H    0.6420510112    0.4664788541    3.1565693566