21

 C   -0.3270056908    1.4861075622    0.1272113701
 C    0.1650117386    0.0533934456   -0.1145323568
 C    0.7667899525   -0.5788926451    1.1264554267
 O    1.9650522714    0.0460164690    1.5440155630
 C   -0.0138400668   -1.1461118870    2.2849146739
 C   -1.2694242046   -1.8911569334    1.8234234603
 C   -0.3463933386   -2.8572589923    0.9943820016
 O   -0.5448865484   -2.9935552223   -0.3985578883
 C    0.8781081940   -2.0521320792    1.3981167945
 H    0.4902955146    2.1463375423    0.4393529270
 H   -0.7530137171    1.9140140986   -0.7850551157
 H   -1.0995653964    1.5171089201    0.9038763478
 H   -0.6458327803   -0.5696612146   -0.4951919048
 H    0.9391282783    0.0531389223   -0.8909174769
 H    1.7333531099    0.9040590118    1.9142305712
 H    0.1880045881   -0.8177589301    3.2972230052
 H   -1.7967867154   -2.4058915614    2.6300867502
 H   -1.9938959223   -1.3103796440    1.2447264498
 H   -0.3170382391   -3.8439822023    1.4754562032
 H   -1.3075354035   -3.5639358694   -0.5390535962
 H    1.8531901158   -2.4684639808    1.6189832644