12

 C   -0.0210638539    1.4781504509   -0.0296247345
 C   -0.0658671852   -0.0038550579    0.0440156514
 N   -1.0510288174   -0.8084859294   -0.2163061723
 C   -0.4924352935   -2.0427910705    0.0306214774
 C   -1.2741452760   -3.2982654803   -0.1396747278
 O   -0.8418455426   -4.4023010474    0.0600888902
 N    0.7588792505   -2.0110625537    0.4195004409
 O    1.0489136575   -0.6543484449    0.4303613799
 H    0.7479635250    1.8045841736   -0.7359400940
 H   -0.9923524405    1.8500409028   -0.3544419519
 H    0.2231842638    1.9042654402    0.9479049843
 H   -2.3134007776   -3.1073760635   -0.4752846635