19

 C    0.1291162521    1.7155188909    0.2305819656
 C   -0.1007471551    0.2170391525    0.1330212518
 O    0.5935646712   -0.3928382340    1.2196620458
 C    0.7111766205   -1.8153636990    1.1740640680
 C   -0.6244123440   -2.5564088613    1.0394981413
 C    1.6753988649   -2.1652740930    0.0102278129
 O    1.4692091275   -3.0014454227   -0.8254069648
 C    1.4135123946   -2.2099489952    2.3974408603
 C    2.0309061386   -2.5782215871    3.3602402422
 H    1.1936296182    1.9495676764    0.1440626035
 H   -0.4098231211    2.2335588872   -0.5682518971
 H   -0.2276516754    2.0934754716    1.1927204728
 H   -1.1743788626   -0.0095306678    0.1881335246
 H    0.2649825687   -0.1669129075   -0.8316698792
 H   -1.0842525036   -2.3576457487    0.0694929810
 H   -0.4561338047   -3.6321372796    1.1125626606
 H   -1.3003224849   -2.2449320196    1.8388928942
 H    2.5916641645   -1.5363747054    0.0222494892
 H    2.5608553404   -2.8934613877    4.2254081174