16

 O    0.1000477132    1.3851904223    0.1488565764
 C    0.0550504819   -0.0278689637    0.2147568004
 C   -1.3531679314   -0.5562182235   -0.0980531743
 N   -1.4219246214   -2.0019704152   -0.0319794759
 C   -1.9277613689   -2.7743281853    0.9625567646
 C   -1.7020260592   -4.0875139066    0.6055253205
 C   -1.0407299414   -4.0010756876   -0.6358480648
 N   -0.8692930419   -2.7380047554   -1.0193114250
 H    0.0710931490    1.6419782655   -0.7781968289
 H    0.7764219978   -0.5046588196   -0.4615856219
 H    0.3290119699   -0.3006538346    1.2390798987
 H   -2.0717357351   -0.1405993436    0.6127795082
 H   -1.6505749485   -0.2471710827   -1.1053958270
 H   -2.4050636869   -2.3350673484    1.8245094787
 H   -1.9817782020   -4.9708907518    1.1557934526
 H   -0.6889812851   -4.8030179196   -1.2684279425