20

 C   -0.0500433218    1.5515979495    0.0357099495
 C    0.0178683647    0.0231303473   -0.0177482534
 C    0.7311087961   -0.4968061865   -1.2700211975
 C    0.7995916367   -2.0234545858   -1.3245578281
 C    1.4992057989   -2.5696152393   -2.5514592265
 O    1.9673589715   -1.8631803476   -3.4203441463
 C    1.6179573571   -4.0844503521   -2.6963008843
 O    2.2838984214   -4.4313693342   -3.8727319448
 H    0.9531079725    1.9918096510    0.0329379516
 H   -0.5884353439    1.9534850218   -0.8295786905
 H   -0.5635719071    1.8970186506    0.9381584534
 H    0.5314907671   -0.3531496981    0.8772767244
 H   -0.9986299500   -0.3911754356    0.0215150496
 H    0.2241026472   -0.1282561399   -2.1692596301
 H    1.7480145269   -0.0903441106   -1.3171118120
 H    1.3129388777   -2.4262902014   -0.4394333403
 H   -0.2072861126   -2.4641609848   -1.2895679071
 H    2.1414719095   -4.4760684639   -1.8079080429
 H    0.6027109587   -4.5146496994   -2.6676179771
 H    2.4986927094   -3.5831635111   -4.2944478779