23

 C   -0.2611558113    1.6638564526    0.1554176487
 C   -0.2673487410    0.1976539256   -0.2320507275
 C   -0.0862125854   -0.8703003874    0.8182025186
 C   -1.4245311513   -0.6914447058    0.1411334282
 C    1.1428314538    2.2352900780    0.2337560306
 C    1.9480732590    2.7449276315   -0.9353635799
 C    1.0792295237    3.5136951588   -1.9408327809
 C    0.6312776703    4.4795154162   -0.7965019406
 C    1.5074730437    3.6949204056    0.1903139776
 H   -0.8713984244    2.2306511211   -0.5566663676
 H   -0.7523968923    1.7795338832    1.1315114516
 H    0.1971279909   -0.0067611789   -1.1937064080
 H    0.5017689505   -1.7484117672    0.5746611031
 H    0.0014364159   -0.5530362360    1.8528266239
 H   -2.2307069667   -0.2552484243    0.7225630943
 H   -1.7490697300   -1.4466341764   -0.5664086654
 H    1.7723296913    1.6890034601    0.9351938368
 H    2.9387085155    2.3593890678   -1.1477066931
 H    1.6739894669    4.0288767137   -2.6982957667
 H    0.2970575959    2.9431903042   -2.4526724350
 H    0.9933016482    5.4971604256   -0.9585728844
 H   -0.4387778535    4.5298337038   -0.5703720617
 H    2.1090137706    4.1462027585    0.9712919874