23

 C    0.0373845905    1.5518737971   -0.0614351536
 O    1.3896734265    1.6052020039    0.4348765290
 C    1.4783817509    0.1685116141    0.4876358526
 C    0.0273079313    0.0048063023   -0.0434597900
 C   -0.9566808822   -0.6275851205    0.9466642658
 C   -0.7811039396   -2.1506911681    1.0380345941
 C   -0.8954819981   -2.8104975115   -0.3432128507
 C    0.0920789641   -2.1839772729   -1.3374298490
 C   -0.0870517049   -0.6607351994   -1.4191306818
 H   -0.6711697732    2.0372100088    0.6233452325
 H   -0.0547130712    2.0137164690   -1.0537776846
 H    2.2715631579   -0.2177761228   -0.1664841825
 H    1.6556784908   -0.1942766880    1.5089973562
 H   -0.8363102160   -0.1680967463    1.9350592274
 H   -1.9814089323   -0.3991317991    0.6196410774
 H    0.2054474133   -2.3773177601    1.4663698556
 H   -1.5203431058   -2.5723037948    1.7278853812
 H   -0.7248972584   -3.8899393420   -0.2653826498
 H   -1.9194540461   -2.6820448136   -0.7214088723
 H    1.1191150054   -2.4121475765   -1.0192319306
 H   -0.0283201324   -2.6291790137   -2.3311222837
 H   -1.0775549123   -0.4335848311   -1.8392604683
 H    0.6488698417   -0.2247144046   -2.1053147749