19

 C   -0.2598130749    1.4000140016    0.7858262904
 N    0.0019724163    0.0005790473    1.0451329783
 C    0.9064664340   -0.7177913624    0.3392130911
 O    1.5802608131   -0.2804493330   -0.5796583511
 C    1.0356971318   -2.1921776296    0.7630989614
 C    2.5066885331   -2.5524324032    0.9779485564
 O    0.2355591630   -2.4228281017    1.9163254213
 C   -0.1252954522   -3.7704834026    2.1269615606
 H   -1.3087444605    1.5660581682    0.5152274029
 H   -0.0241048742    2.0191492421    1.6589478272
 H    0.3753234971    1.7034853060   -0.0476151320
 H   -0.4768268198   -0.4879998316    1.7850432761
 H    0.6369930133   -2.7803228552   -0.0795967135
 H    2.8943967451   -2.0356052141    1.8610536412
 H    2.6392773451   -3.6287547096    1.1164356363
 H    3.0796011580   -2.2350233197    0.1049201528
 H   -0.6516818571   -4.1875371014    1.2549803123
 H    0.7447281719   -4.4049575735    2.3439617843
 H   -0.7958816533   -3.7935797177    2.9893736541