18

 C   -0.0038336035    1.5078191735    0.0806467909
 C   -0.0507091724    0.0119448607    0.0163293273
 C   -0.0953488600   -0.6889688102   -1.1244681098
 C   -0.0267650864   -2.1528482546   -1.1704312473
 N    0.0658861458   -2.7694336931   -2.2784557988
 O    0.0167139086   -2.8201418281    0.0258074060
 C   -0.5385774405   -2.1442003068    1.1606966637
 C    0.0328706768   -0.7422422610    1.3281636939
 O    1.3684490615   -0.7456501952    1.8278999586
 H    0.8751239777    1.8289077251    0.6516965105
 H    0.0379771148    1.9587358880   -0.9135581965
 H   -0.8819009131    1.9057042630    0.6052637878
 H   -0.1242969094   -0.2090375141   -2.0964253671
 H    0.1215917790   -3.7762852155   -2.1109099711
 H   -1.6312654745   -2.0941773619    1.0612591032
 H   -0.2876438432   -2.7624762780    2.0251109644
 H   -0.5529917280   -0.2254031314    2.0974714451
 H    1.9117288066   -1.2081278604    1.1786869594