21

 C    0.0533920984    1.5560609141    0.0238023401
 C    0.0303519690    0.0218899669    0.0517133976
 C    0.7600951564   -0.5010376397    1.2976201612
 C   -1.4133989617   -0.5360783305   -0.0225729178
 C   -2.1823989582   -0.1494370543   -1.2784695979
 C   -2.6582589018   -1.2058129736   -1.9423320264
 C   -2.2523731973   -2.4674381753   -1.2546753060
 O   -0.8158104193   -2.6515447229   -1.1950524826
 C   -1.4796112808   -2.0668976114   -0.0696529621
 H    1.0813811020    1.9267138953    0.0922033320
 H   -0.3797783579    1.9605481385   -0.8953241212
 H   -0.5043988356    1.9746824793    0.8706652212
 H    0.5558610023   -0.3527954461   -0.8348064909
 H    0.8377359671   -1.5919536001    1.2957693045
 H    1.7766188104   -0.0975977136    1.3480503411
 H    0.2398287811   -0.1998576975    2.2154586769
 H   -1.9560810898   -0.1846548010    0.8692221199
 H   -2.2893965512    0.8809536099   -1.5967032059
 H   -3.2324005525   -1.1790172501   -2.8601254198
 H   -2.8282226143   -3.3852736728   -1.3239107412
 H   -1.4478096563   -2.6533215451    0.8444094872