22

 C   -0.1180721341    1.4910863348    0.0807625174
 C   -0.0834047474   -0.0270452848    0.1306475607
 O   -1.4036044594   -0.5131876847   -0.0038556380
 C   -1.4836908620   -1.9214174146    0.0177064438
 C   -2.9447343334   -2.3269754746   -0.2001760506
 C   -3.4617985390   -1.8490863774   -1.5674641277
 C   -3.0455748698   -3.8505679075   -0.1154730225
 N   -3.9958859760   -4.3307875545    0.7377126439
 O   -2.3287449253   -4.5846954041   -0.7707643164
 H    0.8917135585    1.8994620200    0.1836111442
 H   -0.5363026421    1.8340834561   -0.8698936337
 H   -0.7374892306    1.8878921206    0.8902349009
 H    0.5524329849   -0.4276617141   -0.6766527949
 H    0.3534168438   -0.3732209666    1.0830112268
 H   -0.8610117614   -2.3701069199   -0.7706233708
 H   -1.1189357799   -2.3117273298    0.9831527402
 H   -3.5426886241   -1.8632150634    0.5939074414
 H   -2.9262056925   -2.3668284797   -2.3685485938
 H   -4.5302029890   -2.0563600194   -1.6826793035
 H   -3.2993811520   -0.7745545037   -1.6702971692
 H   -4.6157728530   -3.7277712097    1.2480474085
 H   -4.1353329461   -5.3271132731    0.7856953432