20

 C   -0.3437649798    1.5604495306    0.0766590957
 C    0.0016849919    0.0823896488    0.0700017273
 C   -1.1176878637   -0.7789890063   -0.4845963849
 O    1.2469376299   -0.1381108228   -0.7262112163
 C    1.8858519242   -0.7141937119    0.3336740004
 N    3.0067235771   -1.2716071965    0.4399662582
 C    0.7518234473   -0.5093664448    1.3221836107
 C    1.0508856643    0.4087781558    2.5001770542
 O    0.1790764754   -1.7226013671    1.7757738092
 H    0.5121225190    2.1753632187    0.3608736011
 H   -0.6673675005    1.8717025253   -0.9211889779
 H   -1.1630909766    1.7577994698    0.7751125138
 H   -1.3572704740   -0.4615406745   -1.5039290460
 H   -0.8362609006   -1.8317820296   -0.4905018513
 H   -2.0159924023   -0.6730304356    0.1312948435
 H    3.5115615822   -1.2856055449   -0.4479584902
 H    1.4995954015    1.3560003938    2.1923336358
 H    0.1332631686    0.6123703806    3.0598799632
 H    1.7577325335   -0.0928314947    3.1677797342
 H    0.9097773927   -2.3162772447    1.9851371694