17

 C    0.0807409123    1.3424193884   -0.0857365731
 O   -0.0201752439   -0.0566000697   -0.2235753484
 C   -1.2895914421   -0.5552377950    0.1556114331
 C   -1.2483994915   -2.0421814669    0.0620255038
 C   -2.2361159799   -2.9892411831   -0.1277983942
 O   -3.5588790371   -2.6962636685   -0.2972244657
 C   -1.5731972695   -4.2345269235   -0.0877528854
 N   -0.2622440781   -4.0780159228    0.1059418061
 N   -0.0978588987   -2.7532340087    0.2108475919
 H    1.0907312795    1.6271958684   -0.3889250647
 H   -0.6449220720    1.8662345230   -0.7264788337
 H   -0.0848363927    1.6622314562    0.9548977946
 H   -1.5267187145   -0.2258204402    1.1833770691
 H   -2.0881414222   -0.1636022341   -0.4944251195
 H   -4.0309525612   -3.5092164811   -0.4990425037
 H   -1.9929733076   -5.2246453751   -0.1961156936
 H    0.8239794691   -2.3581122773    0.2878850238