15

 O   -0.8593406222    1.3382099528   -0.3207389189
 C    0.2153769564    0.9250429846    0.0529740225
 C    1.4282462144    1.7528887577    0.1361630972
 C    1.3504637209    3.3011788246    0.1991004845
 C    2.6974764036    3.7874064125    0.7433749984
 C    3.3396120584    2.7170298161   -0.1941118325
 C    1.9767540816    2.7061223595   -0.9963416077
 C    2.8548698075    1.3865828987    0.4126911534
 O    3.3984602899    0.3743190017    0.7538448280
 H    0.3603757897   -0.1326872988    0.3550432011
 H    0.3630876103    3.7352759082    0.2899042477
 H    2.9117261435    4.8029038009    0.4020887886
 H    2.8970671844    3.6987618005    1.8157352141
 H    4.3406592870    2.8188629168   -0.6022329002
 H    1.7143072747    2.6238446943   -2.0397251465