19

 C    0.2291580930    1.1770000977    1.1758842632
 C   -0.2146725842    0.4842331218   -0.1115541135
 O    0.7827887762   -0.4650108485   -0.5473699685
 C   -1.5681683862   -0.1659374475   -0.0130820338
 C   -2.0877069618   -1.0252625445   -0.9673990281
 N   -1.5184436095   -1.5747655663   -2.1301928002
 N   -3.3432637017   -1.3951056949   -0.5650950808
 C   -3.6510715471   -0.7870488880    0.6341617757
 C   -2.5692157046   -0.0284292759    1.0011306609
 H    1.2358274772    1.5829867733    1.0483584411
 H   -0.4473904361    1.9973908606    1.4349751979
 H    0.2412337603    0.4715336927    2.0143471764
 H   -0.2097575739    1.2269812083   -0.9212174255
 H    0.7427565067   -1.2049375455    0.0707696150
 H   -1.9275360846   -1.2004901969   -2.9813964465
 H   -0.5236294435   -1.3699681916   -2.1279577485
 H   -3.8968150232   -2.0911104504   -1.0341178805
 H   -4.6049164551   -0.9457738564    1.1093872568
 H   -2.5031473318    0.5785566318    1.8909333290