16

 C   -0.0257305797    1.4985902173   -0.0284842351
 C   -0.0153567249   -0.0083132982    0.0475163570
 N   -0.0203823357   -0.6932989667    1.1360313998
 O   -0.0369055941    0.1076995485    2.2815046059
 C    0.0017909975   -0.7747045254   -1.1915235681
 C    0.0137944206   -2.1287427160   -1.4626687138
 N    0.0283174348   -2.3626115238   -2.8113056052
 C    0.0254018000   -1.1716886705   -3.3711081573
 N    0.0096401671   -0.1781232930   -2.4418861315
 H    0.8619550512    1.8644246744   -0.5575708633
 H   -0.9085627275    1.8513877324   -0.5742751899
 H   -0.0383258354    1.9358674083    0.9673502909
 H   -0.0385184424   -0.5504718773    2.9842306239
 H    0.0125430958   -2.9326801952   -0.7441240100
 H    0.0341766519   -0.9678591200   -4.4313828347
 H    0.0040879106    0.8104332852   -2.6274129485