17

 C    0.4656001430    1.3403762191   -0.3036291707
 C   -0.0916638662   -0.0080596081    0.1635502995
 O   -0.1010506564   -0.9401200887   -0.9258521009
 C    0.9596113240   -1.7623333652   -1.1367712337
 O    0.9943738309   -2.4387631894   -2.1265493287
 C    2.0375773834   -1.7794231158   -0.0626626997
 N    1.6530978571   -1.3585808658    1.2704102372
 C    0.6685058105   -0.5561788477    1.3578078388
 N    0.1987745690   -0.1494694631    2.5865574410
 H    1.5246351705    1.2563869878   -0.5640643684
 H   -0.0851374899    1.6817860392   -1.1834729854
 H    0.3676270816    2.0938830674    0.4841722204
 H   -1.1477074818    0.1072601330    0.4293544843
 H    2.4230637561   -2.8024523180   -0.0307245681
 H    2.8732848656   -1.1645653687   -0.4315403328
 H    0.8279464006   -0.3174954770    3.3579577951
 H   -0.3209941580    0.7114848207    2.6390653221