16

 C   -0.0570227066    1.5317462344    0.1063658998
 C   -0.0658042394    0.0403471003    0.0173554630
 C    0.0133948081   -0.7670229431   -1.0943410904
 N    0.1239781694   -0.4635442496   -2.4543884194
 C    0.1943627307   -1.3695161023   -3.4675351187
 O    0.1705856647   -2.5800953485   -3.3288192771
 N   -0.0357348484   -2.0644548386   -0.6462775458
 C   -0.1421540920   -1.9969049307    0.7108540307
 N   -0.1628119164   -0.7566285154    1.1391307347
 H    0.0259665217    2.0019263845   -0.8796604506
 H   -0.9743411009    1.9052738043    0.5740212694
 H    0.7830487560    1.8866108218    0.7130334980
 H    0.1533281963    0.5148138899   -2.6948982716
 H    0.2773556476   -0.8787595095   -4.4529525471
 H    0.0052777590   -2.8568541482   -1.2721604101
 H   -0.2000693198   -2.8820109794    1.3256196253