10

 C    0.0585807424   -1.1878672160   -0.0050970979
 C    0.0060576242    0.0138147629    0.0024432608
 C   -0.0610602123    1.4251473819    0.0114509797
 C   -1.1775148863    2.2379486168    0.0311987689
 N   -0.6696596598    3.4872006294    0.0314281738
 N    0.6800274958    3.4750268220    0.0133211393
 N    1.0532129541    2.2349090266    0.0012834516
 H    0.1113486797   -2.2483743053   -0.0118129383
 H   -2.2323073524    2.0251560071    0.0441655841
 H   -1.1553506952    4.3701578546    0.0429494781