17

 C   -0.0025509620    1.4752408771    0.0628758561
 C    0.0077277611   -0.0158267886   -0.0277475961
 C   -0.0806604487   -0.7979373235   -1.1585182111
 N   -0.0255961934   -2.0955579685   -0.6976792761
 C   -0.0474169250   -3.4308403362   -1.1360139958
 C    0.0534583104   -4.2508258870   -0.0809640228
 C    0.1535666171   -3.4381691986    1.2005124229
 C    0.0910129555   -2.0348556062    0.6669479897
 N    0.1150374522   -0.8045049291    1.1113811642
 H    0.9161731049    1.8487721577    0.5283362912
 H   -0.0920214380    1.9290864218   -0.9280205079
 H   -0.8386528271    1.8276162968    0.6769204700
 H   -0.1722981429   -0.5510210094   -2.2027070825
 H   -0.1353117487   -3.6600219558   -2.1876039927
 H    0.0628606205   -5.3293412198   -0.1213522855
 H   -0.6664283035   -3.6574259299    1.8951066461
 H    1.0850898776   -3.6360884810    1.7445981102