19

 C   -0.3951001567    1.5731412594    0.3841225180
 C   -0.0633021214    0.0968592116    0.1960047986
 C    0.4609586739   -0.4208760906   -1.1447273814
 C    1.8360596319    0.0160276264   -1.4941340484
 C    2.4104185591    1.3133375787   -1.2353019188
 N    2.9074121122    2.3509043299   -1.1085628390
 N    1.6697363956   -1.0949102289   -0.5244089918
 C    1.2098323879   -0.5678579924    0.8259884198
 C    2.2045362038    0.1917266215    1.6850568267
 H    0.4389269575    2.2316125286    0.1366491111
 H   -1.2443056049    1.8552544470   -0.2476374134
 H   -0.6803037676    1.7674480537    1.4234166835
 H   -0.9403995252   -0.4938654432    0.4762999520
 H   -0.1416548621   -0.9211066157   -1.8975460341
 H    2.2029178249   -0.3840684844   -2.4371518389
 H    0.9080272860   -1.4671318219    1.3698818348
 H    2.5086918106    1.1496778934    1.2636335238
 H    1.7641785857    0.3808171056    2.6699711633
 H    3.1026734687   -0.4168658987    1.8334141644