19

 C   -0.2361018518    1.4118074805    0.0918164616
 C    1.2218564531    1.4379478675   -0.4410763900
 C    1.5363733066    0.2169101993    0.4670886844
 C   -0.0025498942   -0.0556686293    0.5369805365
 C    2.4544256210   -0.8555461865   -0.0044329111
 C    2.9908542837   -1.0545115155   -1.2528991588
 N    3.7509911089   -2.2011744897   -1.1529824094
 C    3.6454799525   -2.6410134434    0.1314705648
 N    2.8770182967   -1.8581352802    0.8499815856
 H   -0.3627676224    2.0791383299    0.9494170663
 H   -1.0410664750    1.6072130937   -0.6204039274
 H    1.2553647890    1.1664875752   -1.5011624582
 H    1.8134568570    2.3451876702   -0.2959009119
 H    1.8744925916    0.5599542126    1.4505447548
 H   -0.4143303446   -0.3811112479    1.4945772316
 H   -0.3052129704   -0.7664444932   -0.2376492379
 H    2.9177257871   -0.5039871516   -2.1753648451
 H    4.2913574436   -2.6223880997   -1.8893643202
 H    4.1513710575   -3.5295355020    0.4796734546