19

 C   -0.0565235822    1.4299210859    0.0880744984
 O   -0.0236021279    0.0111836071    0.0245880932
 C    0.6158819417   -0.6091564773    1.0428676876
 C    0.7537200681   -1.9707550341    1.1618162652
 C    0.2979676242   -3.1005404297    0.3076590064
 N    1.4685618779   -2.1152554329    2.3466644498
 C    1.7151788803   -0.8788047332    2.8590596439
 C    2.4650713302   -0.6436629891    4.1271560908
 N    1.2033707047    0.0592107590    2.0808933105
 H    0.9533571061    1.8542619372    0.0820509987
 H   -0.6029215826    1.7566019387   -0.7989122735
 H   -0.5686183868    1.7782582878    0.9916174257
 H    1.1313001951   -3.7035644799   -0.0765973660
 H   -0.3829006901   -3.7816331478    0.8351148976
 H   -0.2406025983   -2.6960502452   -0.5523033094
 H    1.7530724650   -2.9915082167    2.7513738021
 H    3.4949907954   -1.0165630311    4.0722325042
 H    2.5004058764    0.4300023327    4.3159303271
 H    1.9847919628   -1.1283904116    4.9855543979