20

 N   -0.1985649511   -0.8860179411   -0.5942353090
 C   -0.1384606023    0.1904889072   -0.1780659544
 C   -0.0429128330    1.5553182315    0.3449786166
 C    1.3578422151    2.1348965602    0.1878979309
 C    1.9651879317    2.6373260850   -1.1011989922
 C    1.0802958426    2.9855664440   -2.2918741031
 C    0.0343612933    4.0116181349   -1.7790232780
 C    0.5882873766    4.5759885364   -0.4423908185
 C    1.6676494508    3.6067432633    0.0267557441
 H   -0.8017147233    2.1638716945   -0.1513525747
 H   -0.3160136814    1.5331772814    1.4069379580
 H    2.0730726717    1.6087896033    0.8149451650
 H    2.9803793013    2.3197575862   -1.3131358767
 H    1.7096049745    3.4356079237   -3.0671639032
 H    0.6066291906    2.1077405339   -2.7439668157
 H   -0.1373458835    4.8079540404   -2.5081578925
 H   -0.9378306686    3.5333694465   -1.6301520659
 H    1.0550743157    5.5534957006   -0.6044697460
 H   -0.2049932057    4.7310400522    0.2978951833
 H    2.4619343052    4.0090911659    0.6467358021