17

 C    0.0016638588    1.4718580796   -0.1936344783
 C   -0.0017946209    0.0196508814   -0.0939561178
 C   -0.0007972033   -1.1806095428   -0.0015923308
 C   -0.0095857979   -2.6419265314    0.0991046550
 N   -1.3423580980   -3.2255509612    0.0591924679
 C   -2.1162396633   -3.0960610360   -1.1625136987
 C   -1.8826253344   -3.8244660729    1.1594851497
 O   -2.9895223572   -4.3145551933    1.2244781752
 H    0.8194394155    1.9050568765    0.3924207532
 H    0.1240417618    1.8016301424   -1.2309208368
 H   -0.9357538343    1.8951305255    0.1829365451
 H    0.5966969171   -3.0693480237   -0.7126047205
 H    0.4640463697   -2.9552897942    1.0370393216
 H   -1.6091598058   -3.5968843125   -1.9963161232
 H   -3.0851676298   -3.5644019614   -0.9910377234
 H   -2.2544400099   -2.0410228550   -1.4219409406
 H   -1.1749791884   -3.8225000510    2.0123812125