13

 N   -0.0164886084    1.1752023505    0.3943725469
 C    0.0021314305   -0.0220275305    0.0119184784
 O    1.1193743658   -0.6998936700   -0.4304137375
 C    0.7591905088   -1.9414087575   -1.0584784288
 C    1.6379407417   -3.0137247758   -0.5785474947
 N    2.3186632260   -3.8815141524   -0.2384408313
 C   -0.7131484942   -2.1642509071   -0.7201702427
 O   -0.9384567016   -2.1552855745    0.6766300280
 C   -1.1712176966   -0.9381847387   -0.0598772547
 H    0.9076217766    1.6044474391    0.3229920721
 H    0.8866033394   -1.8399703116   -2.1438137439
 H   -1.3270520271   -2.8162041475   -1.3325107583
 H   -2.1820477608   -0.5508715242   -0.0717276436