16

 C    0.0515165031    1.5318485795   -0.1380659182
 O    1.3141284017    1.5658762234    0.5591490242
 C    1.4478380821    0.1327056685    0.4854027358
 C    0.0027344311   -0.0094837481   -0.0371217109
 C   -1.0364999515   -0.6572744456    0.8902705891
 O   -2.0021382592   -1.1752639892   -0.0107036053
 C   -1.2448626982   -1.6137708151   -1.1060683905
 O   -0.1758622743   -0.6936480557   -1.2635396684
 H   -0.7282981558    2.0993127462    0.3833016931
 H    0.1365674218    1.8820835871   -1.1742470399
 H    2.2012830554   -0.1840074759   -0.2466542169
 H    1.6720172230   -0.3142554502    1.4623351116
 H   -0.5729073019   -1.4648810068    1.4801227912
 H   -1.5268922420    0.0435783871    1.5677878397
 H   -0.8394093035   -2.6261140854   -0.9291237950
 H   -1.8731477818   -1.6090673298   -2.0014943996