19

 C   -0.0380724112    1.5515827669    0.0730455156
 C    1.5108443088    1.4745682597    0.0128563791
 O    2.0786056557    1.2899023191    1.3049822270
 C    1.6097280459    0.1106800967    1.9209129556
 C    1.8098890148   -1.2021033196    1.2124314850
 C    2.2859252684   -1.0147700152   -0.2209274271
 C    1.3701248702    0.1010864105   -0.7247213804
 C   -0.0123315814    0.0000859098    0.0002929284
 C    0.4082198242   -0.5935042688    1.3415392619
 H   -0.4786730682    2.0262817077    0.9529535265
 H   -0.4476164568    2.0000166138   -0.8363490469
 H    2.0731904984    2.2841866063   -0.4555464965
 H    1.7350622285    0.1656466081    2.9960246827
 H    2.1051560580   -2.0787305424    1.7783512084
 H    3.3436696047   -0.7303411986   -0.2719407612
 H    2.1562312300   -1.9321026321   -0.8062243305
 H    1.3183910279    0.2155454162   -1.8085798080
 H   -0.8393137081   -0.5357032037   -0.4701505897
 H   -0.3393666998   -1.0105243543    2.0069781601