16

 C   -0.0497057765    1.5980618174   -0.0265333185
 C    0.0524758417    0.0883923098   -0.0432863906
 C   -1.0736489990   -0.6199299558    0.6710835229
 O   -2.0711310777   -0.0720411921    1.0591668611
 C    0.5728780190   -0.7302986590   -1.1991433795
 N    1.2950084778   -0.6931303844    0.1389654659
 C    2.4153716697    0.1028212152   -0.4808486972
 C    1.7237253553   -0.0075327388   -1.8538462424
 O    2.0483303983    0.1928608915   -2.9854847784
 H    0.6026096377    2.0860951296   -0.7507683154
 H   -1.0820660269    1.8755681818   -0.2503103230
 H    0.1794576818    1.9818794607    0.9727226863
 H   -0.8953374196   -1.7070307380    0.8124071514
 H    0.0547554624   -1.6046980868   -1.5801865163
 H    2.5955051505    1.0846597810   -0.0397249275
 H    3.3382358956   -0.4834012321   -0.4631490289