21

 C    0.3774967902    1.1097018179   -0.3562357244
 O   -0.0391418449    0.0766650921   -1.2344029072
 C    0.9180696652   -0.9273883963   -1.4759759648
 C    0.6388180607   -2.2499293000   -0.7061329043
 C    0.6832712659   -2.0168447388    0.7495735672
 N    0.7419140206   -1.8192426781    1.8865454165
 N   -0.5674746921   -2.9911262186   -1.0509889185
 C   -1.8396541600   -2.3345292195   -0.7683959093
 C   -0.5224708913   -3.5986893261   -2.3687201007
 H    0.5978709054    0.7353920633    0.6500838784
 H    1.2651456287    1.6285669674   -0.7472904201
 H   -0.4483357360    1.8222948491   -0.2974592725
 H    0.8935952310   -1.1602948751   -2.5474522161
 H    1.9341137748   -0.5829946703   -1.2347905776
 H    1.4883398688   -2.9099328103   -0.9362678982
 H   -2.0773943440   -1.5109160083   -1.4576934569
 H   -2.6359425759   -3.0839069128   -0.8309420047
 H   -1.8311598535   -1.9340051391    0.2482961314
 H    0.4127544859   -4.1547540663   -2.4945598307
 H   -1.3502883698   -4.3091793010   -2.4595514831
 H   -0.6119690295   -2.8815516391   -3.2047703741