15

 C   -0.0428765401    1.4401319017    0.0714038705
 C    0.0259394975   -0.0634462831    0.0309421216
 O    0.1462081038   -0.7511407447    1.0186625328
 C   -0.0449584521   -0.7907035626   -1.3362556023
 O    0.3226525052   -2.1179241370   -1.1854603073
 C   -1.4918957927   -0.6795500473   -1.8910167609
 O   -2.3160276968   -1.5338118336   -1.6778859528
 C   -1.7810777053    0.5033707997   -2.6831818635
 C   -1.9992696072    1.4767861382   -3.3579131766
 H    0.8139071401    1.8631104641   -0.4652022209
 H   -0.9417636440    1.8021880858   -0.4371131285
 H   -0.0327373824    1.7816405557    1.1069111177
 H    0.6262246153   -0.2822231920   -2.0427174429
 H    0.2431991564   -2.3037662295   -0.2352763303
 H   -2.2099914976    2.3305775147   -3.9560094966