22

 C   -2.5392901076   -1.8307571755    2.6894102284
 C   -1.4741046321   -1.6143947328    1.6108175891
 C   -1.6842041985   -0.2898313226    0.8744246823
 N   -0.1619967176   -1.6095888397    2.2672657110
 C    0.4441332644   -2.8936204383    2.5930513453
 C    1.0623886729   -2.0039511883    1.5699905709
 C    1.1317411712   -2.4289956543    0.1102279230
 C    1.4532589144   -1.2712913804   -0.8121079757
 O    0.8537013392   -1.0033352512   -1.8210079734
 H   -2.4977889162   -1.0265236865    3.4305485780
 H   -3.5387882600   -1.8441915341    2.2444472759
 H   -2.3868580749   -2.7806745832    3.2111365084
 H   -1.5596446744   -2.4410323732    0.8836021245
 H   -1.5683519421    0.5487632678    1.5681889553
 H   -0.9712033938   -0.1620697793    0.0561690769
 H   -2.6902674350   -0.2487286741    0.4456988897
 H    0.8752632215   -2.9937711441    3.5862011432
 H   -0.0448212354   -3.7944716420    2.2198212847
 H    1.9245421550   -1.4099075742    1.8762226306
 H    1.9617648456   -3.1455193780    0.0115185296
 H    0.2247321368   -2.9250806886   -0.2402204023
 H    2.3277732665   -0.6593963772   -0.4862451053