25

 C    0.0443780124    1.6336815823    0.1320035812
 C    0.0537582977    0.1031141541    0.0442575551
 C    0.6895597143   -0.4657190659   -1.2329534712
 C    0.8532653148   -1.9920746145   -1.1588660080
 C    1.4310828476   -2.5414884368   -2.4702083880
 C    0.6250035571   -2.0705058664   -3.6928338284
 C   -0.7132936894   -2.7993707236   -3.8693094516
 O    0.4685864421   -0.6506348797   -3.6752626557
 C   -0.1142274307   -0.1222013274   -2.4944732590
 H    1.0577828439    2.0400282608    0.0395134396
 H   -0.5665989059    2.0876570414   -0.6544086465
 H   -0.3604758003    1.9675661511    1.0924858028
 H    0.5985312187   -0.3001842051    0.9077603504
 H   -0.9735906756   -0.2766175992    0.1357483833
 H    1.6891007328   -0.0220665003   -1.3539827607
 H    1.5023707199   -2.2636251028   -0.3181222747
 H   -0.1241087824   -2.4492471671   -0.9508071341
 H    2.4616851211   -2.1835496840   -2.5816671743
 H    1.4724063689   -3.6366392234   -2.4524101118
 H    1.2213214721   -2.2522501649   -4.5942137196
 H   -1.3500043196   -2.7385524547   -2.9821900446
 H   -1.2618494426   -2.3699052723   -4.7123130760
 H   -0.5370590272   -3.8598129893   -4.0767663684
 H   -1.1524364607   -0.4756177710   -2.3713821162
 H   -0.1571873388    0.9581856888   -2.6578941836