21

 C   -0.1506488257    1.5637949076   -0.0071417244
 C    0.0238096459    0.0470742077   -0.0124496721
 O   -1.2634636034   -0.5813556669    0.0171546285
 C    0.8948192784   -0.4963438623   -1.1988056004
 C    1.9905018471   -1.3507654386   -0.4795811867
 C    1.1701206763   -1.9261804486    0.6999964913
 C    0.7842415498   -0.5251627628    1.2338045261
 C    2.1558937340    0.1328566552    1.2820192632
 C    2.8740711071   -0.3594937322    0.2682444210
 H    0.8139959934    2.0769501314    0.0239521618
 H   -0.6723162085    1.8944061254   -0.9143910595
 H   -0.7458775027    1.8760134834    0.8568113712
 H   -1.7605861697   -0.2686035496   -0.7459324463
 H    0.2705482553   -1.1226316840   -1.8434226833
 H    1.3276848928    0.2999875165   -1.8098446738
 H    2.5049413541   -2.0606718900   -1.1283091051
 H    0.3050994199   -2.5166258633    0.3902985554
 H    1.7835842803   -2.4908699344    1.4059845486
 H    0.1824537605   -0.4756090488    2.1413974535
 H    2.4391718293    0.9210322505    1.9682355172
 H    3.8638479059   -0.0541958163   -0.0487559361