15

 N   -0.0421866875   -1.1613971320    0.0299290132
 C   -0.0224757065   -0.0069281168   -0.0130388098
 C    0.0108094859    1.4430582442   -0.0275048700
 C   -0.8938963072    2.2045816441    1.0123134845
 C   -1.2963936447    3.0909773869   -0.1507458269
 C   -0.1603154875    3.4494643953   -1.0756054428
 C    1.2405043182    3.2997911467   -0.6006794396
 C    1.3768435244    2.0988413058   -0.0409810317
 N   -0.7853730356    2.1074571745   -1.1727323184
 H   -1.7344468900    1.5804225158    1.3190383560
 H   -0.3999928476    2.6339642490    1.8871669028
 H   -2.2671851146    3.5643134503   -0.2563689300
 H   -0.3977245066    4.1182442422   -1.8966641345
 H    1.9943603913    4.0704816525   -0.6870572342
 H    2.2394762279    1.6817180516    0.4599764515