17

 C   -0.3732659307    1.0527095824   -0.3173014936
 C    1.0440070041    1.1325515680    0.1902041023
 C    0.3621560473   -0.2029876175    0.0651180745
 N   -0.0077017745   -0.8632920752    1.2861127463
 C   -1.0642196652   -1.7327545269    1.3320935838
 C   -1.4437214170   -2.6814525961    2.2486467087
 C   -2.6580730561   -3.1668397483    1.7100101427
 N   -2.9977270879   -2.5915685056    0.5831289851
 O   -1.9578004933   -1.6608102248    0.3381341428
 H   -1.1645124671    1.3778676910    0.3466797119
 H   -0.5625749627    1.2213904920   -1.3707071664
 H    1.8401205133    1.3606488173   -0.5089192090
 H    1.1944270019    1.5188493095    1.1920821431
 H    0.6788504561   -0.8533411685   -0.7489560528
 H    0.7558805706   -1.1155067900    1.8955940113
 H   -0.9391923627   -2.9743555201    3.1531086348
 H   -3.3083381661   -3.9316682371    2.1132256447