20

 C   -0.1028351926    1.5291725721    0.0384434922
 C    0.0066779420   -0.0019666064   -0.0179032451
 C    0.8828467973   -0.5099365704   -1.2033093698
 N    1.9616289168   -1.2917159670   -0.5705738517
 C    1.7814106179   -1.2892725471    0.8173366148
 C    0.7026157055   -0.5992160818    1.1887443124
 C    2.9473412636   -1.8768878298   -1.3209309710
 C    4.0089732876   -2.6579523309   -0.5631187924
 O    2.9537476406   -1.7661175227   -2.5357087755
 H    0.8884280730    1.9866887130    0.1226032313
 H   -0.5843252198    1.9213906469   -0.8637626120
 H   -0.6961437450    1.8488276888    0.9013154938
 H   -1.0089841311   -0.4089194551   -0.1081712598
 H    0.3335855263   -1.1446189843   -1.9032060061
 H    1.3173923948    0.3098419639   -1.7833720188
 H    2.4862294538   -1.8180891205    1.4419445496
 H    0.3695854151   -0.4628068659    2.2078787521
 H    4.5532641435   -2.0178826776    0.1389665526
 H    3.5695407612   -3.4820469295    0.0081917916
 H    4.7089166595   -3.0625728857   -1.2933133982