19

 O    0.1168899634    1.3475800451    0.1333505117
 C    0.1081775334   -0.0624558828   -0.0101054880
 C    0.2264022826   -0.4354630121   -1.5320570806
 C   -1.3728250868   -0.4589449094   -1.5275059128
 C   -1.2611417868   -0.7477712032    0.0003069505
 C   -1.4054561431   -0.2521572987    1.4870374223
 C    0.1512552941   -0.6417145540    1.4582032628
 O    0.1355488287   -2.0472438490    1.3230895171
 C   -0.8644501564   -2.2121070763    0.2927844303
 H   -0.2299527577    1.7518223145   -0.6693620996
 H    0.7175816385    0.3154741139   -2.1575242252
 H    0.6624063323   -1.4078663780   -1.7553991223
 H   -1.7873620444    0.5249285582   -1.7627704783
 H   -1.8771928983   -1.2002282525   -2.1523761005
 H   -1.5818217554    0.8122511578    1.5989981127
 H   -2.0201125175   -0.8455836951    2.1687343822
 H    0.8656376495   -0.3304153759    2.2205103151
 H   -1.7107137194   -2.7925653748    0.6803085070
 H   -0.4370658267   -2.7543282275   -0.5557152243