21

 C    0.0174552008    1.5492186358   -0.0284918456
 C    0.0211662993    0.0303917299    0.1738205139
 C   -1.3612572303   -0.5935674062    0.0000880477
 C   -2.0196125295   -0.6294560344   -1.4235316653
 C   -2.2181672017   -2.1526243854   -1.2850190931
 C   -0.8715624772   -2.8100318712   -1.0797548986
 C   -1.5040932492   -2.1197467718    0.0895363879
 C   -3.3787601955   -2.8684557827   -1.6886637952
 C   -4.3734504704   -3.4519186108   -2.0361509913
 H    1.0188085309    1.9710069659    0.1012093446
 H   -0.3274880752    1.8154844058   -1.0335778462
 H   -0.6475541139    2.0422992104    0.6893565606
 H    0.7275930960   -0.4310105200   -0.5273689045
 H    0.3928099322   -0.2064423571    1.1795599813
 H   -2.0568009352   -0.1190946673    0.7008164817
 H   -2.9598072494   -0.0788610233   -1.4743361342
 H   -1.3860383095   -0.3248764330   -2.2635447084
 H   -0.8964555191   -3.8936520888   -1.0440774062
 H    0.0045855889   -2.3982990332   -1.5749631544
 H   -1.7784199079   -2.6694713186    0.9821797784
 H   -5.2466607941   -3.9717356339   -2.3424672930