20

 C   -0.1470769310    1.5105735137    0.0064691823
 C   -0.0322017662    0.0023755083    0.0565552257
 C    1.3126880792   -0.6770114412   -0.1504608126
 C    0.6550639472   -0.6866241337    1.1955070594
 C    1.2627577884   -0.1814207685    2.4745749271
 C    0.3964494469   -0.6439157101    3.6066915757
 C   -0.7676630378   -1.4388503097    3.0394556377
 C    0.2742276540   -1.9190697502    2.0068588522
 N    1.4213080967   -1.5770986715    3.0232483925
 H    0.7335612150    1.9883746886    0.4483872677
 H   -0.2342259884    1.8685583491   -1.0253179440
 H   -1.0253665401    1.8636498126    0.5583099189
 H   -0.8853437775   -0.5293540736   -0.3609461858
 H    1.3457439244   -1.6006683676   -0.7200309363
 H    2.1829421633   -0.0409919820   -0.2861893565
 H    2.0418450098    0.5611608751    2.6062510377
 H    0.5093627456   -0.2502957867    4.6110409036
 H   -1.0556108059   -2.2428910596    3.7217645378
 H   -1.6588889524   -0.9175211351    2.6751210580
 H    0.2288117390   -2.9090074680    1.5558403089