18

 C   -0.0942100570    1.5387509094   -0.0224378812
 C    0.0641749549    0.0061323688   -0.0260025689
 C    0.7357175502   -0.5111784050    1.2213792529
 N    2.0570836077   -0.6982683892    1.1746355686
 C    2.6618961197   -1.1491141242    2.2725139159
 N    2.0772905268   -1.4395326264    3.4340686876
 C    0.7616935676   -1.2467622803    3.4846006414
 C    0.0132553421   -0.7754121337    2.4023707235
 N   -1.3728603402   -0.6468864029    2.4775072468
 H    0.8845996668    2.0216169301    0.0468315372
 H   -0.5818209994    1.8809306968   -0.9399965230
 H   -0.6938891928    1.8886453848    0.8255930366
 H   -0.9152616385   -0.4727277310   -0.1460006821
 H    0.6807799845   -0.2900930906   -0.8782420873
 H    3.7368234271   -1.2967378101    2.2130229881
 H    0.2654621584   -1.4781163002    4.4275556076
 H   -1.7389903852   -0.6275885127    3.4191373077
 H   -1.7730693327    0.0885846763    1.9149072987