19

 O    0.0811965916   -0.1239313735   -0.0569374086
 C    0.0789335160    1.0798991428   -0.0941130057
 C    1.3146481157    1.9514056108   -0.0468662849
 C    1.2186289101    3.0748711345   -1.1466506873
 C    0.6911134941    4.2950133420   -0.3970161447
 C    0.8759731258    4.1264486995    0.9064563631
 C    0.3136069775    4.3855034781    2.2856375399
 C    0.3899804484    2.8233221754    2.4807062240
 C    1.4057773343    2.7709338241    1.2746656202
 H   -0.8788098078    1.6455886652   -0.1774156757
 H    2.1765368355    1.2957472693   -0.1874570861
 H    2.1992788119    3.2471821542   -1.6091028540
 H    0.5464500333    2.7829664329   -1.9640519633
 H    0.1798457169    5.1114196124   -0.8933602721
 H    1.0137360989    4.9015235212    2.9511128885
 H   -0.6621941672    4.8710429193    2.3560405470
 H    0.7566001020    2.4636200920    3.4442240332
 H   -0.5662959392    2.3458286006    2.2591904573
 H    2.4315730321    2.7781823191    1.6607317990