20

 C   -0.0442205372    1.5357621827    0.1450430956
 C    0.0464701811    0.0381153037   -0.0656842076
 C    0.4457679649   -0.7992280933   -1.2149773289
 C    1.7336933577   -0.4537762606   -1.9767312700
 C    2.1412109981    1.0337767570   -2.1835094296
 C    3.0392877168    0.9105331021   -0.8987577080
 O    3.0050332179    1.8726746179    0.1275361923
 C    2.4638640145   -0.5045370777   -0.6183716108
 N    1.1922231509   -0.8747940527    0.1419027880
 H    0.8736445733    2.0772480301   -0.0576892476
 H   -0.8572578684    1.9445606386   -0.4662198583
 H   -0.2973734723    1.7226404856    1.1942345913
 H   -0.7957462865   -0.4464806749    0.4340216726
 H   -0.1891973338   -1.6243131728   -1.5310132974
 H    1.9772972824   -1.1517065629   -2.7760141758
 H    2.7061660830    1.2314298811   -3.0980259118
 H    1.3210270892    1.7485650438   -2.1241371160
 H    4.0787645066    0.7446941853   -1.2198619364
 H    3.5258774469    2.6321817928   -0.1528096231
 H    3.2070944549   -1.2623101460   -0.3693262684