20

 C    0.0718994345    1.4195162686    0.0017229068
 C    1.3180867349    0.6339507858    0.0134168265
 N   -0.0950155751   -0.0416984646    0.0445295522
 C    0.2477704107   -0.5643523954   -1.3351499391
 C   -0.1180431496    0.1476156496   -2.6702742993
 C    1.3348945596    0.7694757466   -2.6904266987
 C    1.6464972623    0.0318454790   -1.3501159563
 C    2.2612683059   -1.3958257517   -1.3589697287
 C    0.8105379163   -2.0033665139   -1.3152842601
 H   -0.2162432188    1.8857642887    0.9395489353
 H   -0.2333432148    1.9853496879   -0.8742593362
 H    1.9657071475    0.6126531550    0.8859703269
 H   -0.3362326258   -0.5382142423   -3.4932233115
 H   -0.9348814526    0.8717881203   -2.6135027262
 H    1.9531274444    0.4512565331   -3.5338944492
 H    1.3672150919    1.8610112960   -2.6378285371
 H    2.8199107842   -1.6278355580   -2.2693627517
 H    2.8971311234   -1.6359989517   -0.5026955586
 H    0.5640278545   -2.5474220470   -0.4013455378
 H    0.5404047765   -2.6201729861   -2.1762911372