16

 C   -0.0139617060    1.5437668503    0.1006298027
 C    1.5240685846    1.4435639587   -0.0228023696
 O    2.0775730050    1.0321308566    1.2416381887
 C    1.7913119116   -0.3586155279    1.3069030297
 C    2.2704549727   -0.8854787283   -0.0518525555
 C    1.3537111802    0.0789810467   -0.7867018975
 C   -0.0085964105    0.0010906382   -0.0039471895
 O    0.3850628103   -0.5607812939    1.2624583571
 H   -0.4143088132    1.9811199386    1.0166884525
 H   -0.4629350730    2.0092702597   -0.7824727987
 H    2.1152398932    2.2689929073   -0.4211223234
 H    2.1902379016   -0.7703961271    2.2318385793
 H    3.3340979681   -0.7062079788   -0.2205193903
 H    2.0249890507   -1.9382815394   -0.2044162297
 H    1.3193491549    0.1013005437   -1.8724412297
 H   -0.8734003361   -0.5437752803   -0.3843561061