14

 C    0.0308237032   -1.1485399683   -0.4090148069
 C    0.0155564273   -0.0065840746   -0.0364530390
 C    0.0256870917    1.3779431178    0.4217159572
 C    1.3891190124    2.0268107895    0.2623133907
 O    1.7129809147    2.5601342931   -1.0133837532
 C    1.5460550829    3.4864352809    0.0759120257
 C    0.4227588019    4.3834116301    0.0249110762
 C   -0.4972060587    5.1570337643    0.0043177461
 H    0.0331916040   -2.1554548945   -0.7458323322
 H   -0.7132192006    1.9711240584   -0.1267025863
 H   -0.2579838268    1.4198707965    1.4819611843
 H    2.2092328658    1.4975503393    0.7493068544
 H    2.4774843702    3.9384022023    0.4158634440
 H   -1.3110657081    5.8392199552   -0.0230669511