18

 C    0.0917217041    1.5601853680    0.1381569699
 N    0.0643902239    0.1185957747    0.2260250942
 C   -1.2165592364   -0.6068941005    0.3359408934
 C   -0.5256245094   -1.6166462612    1.2621980896
 C    0.4968846003   -2.5740702940    0.5437188149
 O    0.2921270252   -2.9227788909   -0.7968171133
 C    1.6408706289   -1.5596436099    0.8832590064
 O    2.8257353262   -1.5641113064    0.7284728261
 C    0.6152549337   -0.5577712252    1.4374699091
 H    1.1283077984    1.9110778847    0.1465347931
 H   -0.3629336151    1.8788202451   -0.8058408549
 H   -0.4491772919    2.0551353464    0.9652492645
 H   -1.9941791614   -0.0307181214    0.8619789979
 H   -1.6245914849   -0.9788080293   -0.6106196290
 H   -1.0813484801   -2.0464752348    2.0916971396
 H    0.6289853761   -3.5094350848    1.0994247385
 H    0.4148521834   -2.1238830452   -1.3230465324
 H    0.7918468388    0.0630464146    2.3200486824