21

 C    0.0328240969    1.5110070101    0.0855531889
 C   -0.0167302066    0.0141409007   -0.0347135738
 C   -0.0661939324   -0.6367549139   -1.1970643964
 C   -0.0723681148   -2.1415034770   -1.2811258643
 C    0.3186326649   -2.7376433137    0.0555400458
 C    0.5600664117   -4.1998757737    0.2245749087
 C    1.7253047915   -3.2280852905    0.3056643794
 O   -0.3423041345   -2.1225741567    1.1303021215
 C    0.0038658208   -0.7543366809    1.2652856558
 H    0.9234081569    1.8373269301    0.6387429550
 H    0.0529184917    1.9899231720   -0.8968592530
 H   -0.8343635857    1.8975530774    0.6366154296
 H   -0.1037119623   -0.0799389055   -2.1307145024
 H   -1.0694288345   -2.5013074252   -1.5760207981
 H    0.6181037120   -2.4833136321   -2.0618082965
 H    0.2192667442   -4.6454904874    1.1520791210
 H    0.4745988259   -4.8385952405   -0.6482766595
 H    2.4420591426   -3.2036080856   -0.5081922010
 H    2.1448959862   -3.0457018030    1.2889047441
 H    0.9980151991   -0.6521890896    1.7382064071
 H   -0.7242336035   -0.3303774350    1.9678048681