17

 O    0.1443560919    1.4034216916    0.0921557436
 C    0.0825322674    0.0329727607    0.0152757792
 C   -1.0333652003   -0.9744991190    0.0788501188
 C   -0.5265049877   -1.6754990344   -1.1746931785
 C    0.8333226714   -0.9073301954   -1.0238309801
 O    1.3114978449   -0.3655588108   -2.2202638085
 C    1.7520145788   -1.7551280203   -0.1783646073
 C    1.2767048145   -1.7872687808    1.0734408798
 C    0.0951314519   -0.8892430144    1.1848364732
 H   -0.2392132355    1.7632018876   -0.7163678053
 H   -2.0660379146   -0.8648384827    0.3870589436
 H   -0.4765786267   -2.7681143390   -1.1997529463
 H   -1.0513106551   -1.2994726541   -2.0572194283
 H    2.1358484985    0.0931587178   -2.0229659103
 H    2.5546670994   -2.3529491080   -0.5934448905
 H    1.6433398024   -2.4029119868    1.8853952616
 H   -0.2644696409   -0.5290892821    2.1417381752