23

 C    0.0249442494    1.5556960786    0.1515098523
 C    0.0033107981    0.0253810587    0.1389869147
 O    0.6390448372   -0.5122273480    1.2989919047
 C   -1.3959877131   -0.5392337625   -0.0469353262
 C   -2.4126567768   -0.3981862037    1.1253329047
 C   -2.6883116541   -1.9312886754    1.0764928727
 C   -1.6908513563   -2.0861052481   -0.0996443853
 C   -2.3155392432   -1.9156681329   -1.5085878584
 C   -2.0405703052   -0.3818001946   -1.4549117135
 H    1.0480231910    1.9195844613    0.2804899083
 H   -0.3757697648    1.9671462625   -0.7802349425
 H   -0.5842852915    1.9469981776    0.9759383779
 H    0.6239163088   -0.3309047852   -0.6944233909
 H    0.2467243354   -0.0899325269    2.0703097313
 H   -1.9643366490   -0.0759116906    2.0707379333
 H   -3.2670236102    0.2552279756    0.9257366074
 H   -2.3738421921   -2.4511770806    1.9845219245
 H   -3.7191949916   -2.2245281836    0.8559446531
 H   -0.9064752285   -2.8349674520    0.0145211392
 H   -1.7600043870   -2.4244871189   -2.3002859889
 H   -3.3657522796   -2.2115020293   -1.5914559497
 H   -2.9184300111    0.2695265881   -1.4982716213
 H   -1.3331937757   -0.0428788101   -2.2182530476