16

 N   -0.1816535142    1.4271216796   -0.1046423154
 C   -0.0485216325    0.1778956311   -0.2217966689
 C   -1.2520124197   -0.7378589709   -0.0962644616
 O   -1.1163564058   -1.9638796221   -0.7898723681
 C    0.0843627591   -2.6084171582   -0.4280778831
 C    1.2606481321   -1.7475301105   -0.8794993246
 O    1.1780859506   -0.4145693894   -0.3580242576
 C    2.6001518599   -2.3146032012   -0.4368616474
 O    2.9186635262   -3.4578013186   -0.6297586860
 H    0.7273800105    1.8924513715   -0.1500414059
 H   -1.4202342756   -0.9254283949    0.9779713740
 H   -2.1263160395   -0.2231458039   -0.4936526416
 H    0.1297999442   -2.7782063330    0.6600506142
 H    0.1214391942   -3.5737041180   -0.9353749120
 H    1.2523778085   -1.6962453257   -1.9781296786
 H    3.2548602618   -1.5836664558    0.0848517626