18

 N   -0.0169185055   -1.1515284651   -0.3495078142
 C   -0.0262514174   -0.0111906222   -0.1561068745
 C   -0.0033123466    1.4336338406    0.0600078970
 C   -0.8057305034    2.2072108586   -1.0072328712
 C   -0.0151518842    3.5271772766   -1.1871695819
 N    1.4000196268    3.2011783702   -0.9528283882
 C    1.4116896154    2.1742078750    0.0666622861
 C    1.0316170488    2.6624528681    1.4886347020
 N   -0.1847489323    1.8147345945    1.4766965937
 H   -0.8113843569    1.6365230820   -1.9414573249
 H   -1.8470211542    2.3574266811   -0.7061221502
 H   -0.1484166067    3.9731683356   -2.1749354498
 H   -0.3409606182    4.2709780995   -0.4512701042
 H    1.8119069261    2.8369702173   -1.8059556034
 H    2.3006912249    1.5483941803    0.0049974655
 H    1.7313974407    2.3920739342    2.2856074692
 H    0.8599873513    3.7438542739    1.5265686712
 H   -1.0618681187    2.2762630098    1.6885667178