18

 C    0.1652122147    1.6256745137    0.0172633082
 C    0.2011810217    0.1031376837    0.0850062560
 N    0.4783170254   -0.4650734004   -1.2431675358
 C    0.5589079346   -1.8691407258   -1.2888705156
 C    1.8270500604   -2.6154787899   -0.8278763685
 C    1.3129036680   -2.8189655558   -2.2014241780
 O    0.2283216426   -3.7861076562   -2.1566078145
 C   -0.5489747019   -2.9035995602   -1.4051917398
 O   -1.6939221138   -3.0191827491   -1.1121046371
 H    1.1088697678    2.0195205542   -0.3711749971
 H   -0.6422230135    1.9729383416   -0.6377819167
 H   -0.0101989252    2.0508678484    1.0095167399
 H    1.0051354217   -0.2249183306    0.7540976749
 H   -0.7408168132   -0.2777049878    0.5096426331
 H   -0.1996908944   -0.1216839267   -1.9163458950
 H    2.6785242002   -1.9486737479   -0.7301295249
 H    1.7696939565   -3.4256441791   -0.1085047494
 H    1.8031059985   -2.6594367122   -3.1503533196