13

 N   -0.1823383981    1.2965392611    0.0117084693
 C   -0.0118755636    0.0521513975    0.0030479340
 O   -1.1420442398   -0.7353915467    0.0079398683
 C   -1.0398885351   -2.0759031110    0.0007401123
 N    0.1587344707   -2.6567339306   -0.0099074134
 C    0.1164916167   -3.9885528094   -0.0161804145
 N   -0.9818483965   -4.7392801812   -0.0126401377
 C   -2.1145809295   -4.0282738368   -0.0018098217
 N   -2.2146956603   -2.7040215917    0.0052621045
 H    0.7207095294    1.7681579818    0.0066752107
 H    0.9136139707   -0.5208274881   -0.0080625672
 H    1.0737432436   -4.5048714549   -0.0249561831
 H   -3.0475246981   -4.5870340300    0.0016163984