16

 C    1.0641101680    1.1750736400   -0.6121306669
 C    0.1153176130    0.1424461979   -0.0582705927
 N    0.6781305478   -1.1254970373    0.4153259543
 C    0.0315984082   -0.2331521222    1.3919937290
 C    0.9155966668    0.3318989604    2.4304210284
 N    0.4598771183    1.0323965564    3.4370461277
 O    1.5536475909    1.3679040823    4.1859037719
 N    2.7023013865    0.8663897724    3.6428301125
 C    2.3309377736    0.2275658944    2.5696437611
 H    1.9945528392    1.2138524127   -0.0417731123
 H    1.3159470027    0.9409218102   -1.6515506708
 H    0.6051646329    2.1687009129   -0.5893102278
 H   -0.8401511620    0.0867376472   -0.5791489944
 H    0.0740176782   -1.9112169009    0.1935004361
 H   -0.9596404677   -0.4867520553    1.7582089865
 H    3.0366667336   -0.2899449013    1.9408588972