13

 C   -0.0772767816    1.5256661776   -0.0404044112
 C   -0.0023407228    0.0237804313    0.0342548882
 N    1.2925872882   -0.6003306397   -0.1832315352
 C    0.7058486293   -0.6842586455    1.1780961843
 C    1.3852141232    0.0773439711    2.2043609967
 N    1.9036643711    0.7040634443    3.0244295933
 C    0.1516361052   -1.9461711765    1.6131815519
 N   -0.2914753431   -2.9676165232    1.9241690878
 H    0.8257147034    1.9848094729    0.3665220394
 H   -0.1801502507    1.8346045438   -1.0852252174
 H   -0.9448690165    1.8949762537    0.5138387209
 H   -0.8812685493   -0.5127038407   -0.3190577640
 H    1.2140419536   -1.5058688090   -0.6411580947