19

 C   -0.1379852250    1.5056459243   -0.0075559922
 C   -0.0569194324    0.0158487639    0.0370939850
 O   -0.1225348105   -0.6795484529   -1.2146110139
 C   -0.5746905318   -1.8833654317   -0.5108620826
 C    0.6254360815   -2.8091371912   -0.2784510399
 C    1.9800672552   -2.2906820994   -0.7105797577
 C    1.4945080982   -2.0460852596    0.6987004423
 C    0.6949365193   -0.8129490596    1.0842965057
 C   -0.7818557402   -1.0507177231    0.7925979401
 H    0.7288157885    1.9239869151   -0.5313218250
 H   -1.0426357473    1.8273412666   -0.5333590307
 H   -0.1560144814    1.9201994078    1.0043521882
 H   -1.4351789630   -2.3317826763   -1.0083771144
 H    0.4500360943   -3.8758686298   -0.1904831845
 H    2.7693847833   -3.0270645882   -0.8280648560
 H    2.0054771758   -1.4708734568   -1.4144577172
 H    2.0021143121   -2.5597526750    1.5090388824
 H    0.9645191898   -0.2767161990    1.9879980454
 H   -1.6187141767   -1.0361644950    1.4786298349