18

 C    0.2909790022    0.8554798041   -0.3761205174
 O   -0.3975315004   -0.0357398293    0.4865619610
 C    0.4323890064   -0.6794864357    1.3792878837
 C    0.1129721905   -2.0483689769    1.8482693180
 O   -0.5100242865   -2.8081162667    0.7859173062
 C    0.6445615049   -2.6923596592    0.0182974273
 N    0.9441816290   -3.2038639645   -1.0851912713
 C    1.3776691276   -1.8360269595    1.0061256993
 C    2.8494298269   -1.8834121195    1.2918587205
 H    1.0228439994    0.3231313894   -0.9974212469
 H   -0.4610586879    1.3158890244   -1.0196260160
 H    0.8096508740    1.6436898255    0.1894925321
 H    0.8790655608   -0.0354895445    2.1437205625
 H   -0.0513983771   -2.3910826696    2.8615077414
 H    0.1760139343   -3.7668190924   -1.4543095766
 H    3.4193144213   -1.5060343325    0.4366792534
 H    3.1015492902   -1.2699037534    2.1620103936
 H    3.1835212145   -2.9071702797    1.4872216292