19

 O   -0.5104272775    1.2330001856    0.1652927426
 C    0.0196251192   -0.0795108832    0.0505372822
 C    0.8459978078   -0.2435799562   -1.2337724649
 C    0.0211685853    0.0435892866   -2.4658301105
 O    0.3024325214    0.8569945234   -3.3073495354
 C    0.8203496350   -0.5005880046    1.2826517312
 O    1.2668561816   -1.8315826481    1.2088518098
 C    1.7728260227    0.4510134152    1.9390192479
 C    0.4808764749    0.0612488360    2.6345958914
 H    0.1733858071    1.8600550427   -0.0944968469
 H   -0.8619362479   -0.7350846125   -0.0105674943
 H    1.7177686486    0.4205684078   -1.2236020906
 H    1.2089748226   -1.2780061528   -1.2740142225
 H   -0.9061574056   -0.5706993783   -2.5492383001
 H    0.5237109319   -2.4052090004    1.4278137015
 H    2.6970650629    0.0266239282    2.3124412345
 H    1.8567096345    1.4618199175    1.5542240728
 H   -0.3057697033    0.8037492222    2.6894061456
 H    0.5564480288   -0.6141549889    3.4796259157