13

 C   -0.0778185131    1.4289029330    0.0106356754
 C    1.3867204712    1.8343727778   -0.0011205574
 C    2.1869564057    0.7527954469   -0.0148803775
 C    1.3360382412   -0.4303528041   -0.0133439651
 N    1.3890202937   -1.7524128779   -0.0211182829
 C    0.0612354649   -2.0773859050   -0.0099181692
 N   -0.7972668365   -1.0569516380    0.0036973587
 N    0.0516434654   -0.0119335377    0.0012475524
 H   -0.6051221008    1.7812467870    0.9045790043
 H   -0.6221251127    1.7913055423   -0.8689808521
 H    1.6952393612    2.8701456309    0.0016828889
 H    3.2664243904    0.7367076679   -0.0253570941
 H   -0.2894243206   -3.0987770932   -0.0121377114