18

 C    0.7776619044    1.1457482144   -0.0032554724
 C    0.0661431045   -0.1924116247    0.1306920494
 C    0.8460741621   -1.4213060411    0.5073866646
 N   -0.1087292523   -0.8537881755    1.4417612747
 C    0.3286731180   -0.2084589689    2.6893688589
 C    1.7625009539    0.0164172180    2.8909342430
 C    2.9431552525    0.1610137050    3.0711520748
 C   -1.0763838989   -0.3335322273   -0.7456226672
 C   -2.0083135089   -0.4192821800   -1.5003294478
 H    1.6636991132    1.1976553401    0.6304150052
 H    1.0822789656    1.2975037938   -1.0427919217
 H    0.1039216639    1.9662754382    0.2646647336
 H    0.5769867284   -2.3873117577    0.0893668421
 H    1.9063897700   -1.2752518135    0.7037842133
 H   -0.2124132912    0.7401400014    2.7852098363
 H   -0.0297637627   -0.8458649414    3.5074118652
 H    3.9827657553    0.3023629632    3.2372795709
 H   -2.8385429878   -0.5079167841   -2.1562387929