18

 C   -0.0448921267    1.4769836863   -0.0250644517
 C   -0.0100402767   -0.0268372863    0.0640460978
 C   -1.1960213154   -0.8237103184   -0.4709514650
 C   -1.0336316637   -2.1883665569    0.1828440666
 O   -1.4109577497   -3.2574707199   -0.2267236842
 C   -0.1759455087   -2.0476383097    1.4532835635
 O    0.6118192974   -3.1944820953    1.6546113284
 C    0.6089549968   -0.7792713580    1.2067361050
 N    1.3111728866   -0.6574076053   -0.0772451983
 H    0.8595165947    1.9046509088    0.4137858021
 H   -0.0981947633    1.8037089030   -1.0697133103
 H   -0.9171293306    1.8825815094    0.4993495916
 H   -2.1488118215   -0.3766502063   -0.1550719552
 H   -1.2264557822   -0.9115946285   -1.5616972901
 H   -0.8627712879   -1.8841286367    2.3060307388
 H    0.1220166514   -3.9234989373    1.2459822021
 H    1.0765993221   -0.2750395927    2.0466483158
 H    1.2879064574   -1.5341085165   -0.5957452269