16

 C   -0.0245775018    1.4420542241   -0.0476176317
 N   -0.0225535365   -0.0067035511   -0.0497329468
 C   -1.1018745164   -0.6501267087   -0.0154798135
 O   -2.4113830321   -0.1187502855    0.0603317228
 C   -3.2235328949   -1.2033621111    0.1577750344
 O   -4.5295195577   -0.9850931971    0.2665073415
 N   -2.6485492328   -2.3421363149    0.1238408226
 N   -1.2990341725   -2.0066816597   -0.0486802467
 C   -0.2741883094   -3.0051418258    0.1156503094
 H    0.7580493848    1.8042460130    0.6276347438
 H    0.2151820232    1.8264394259   -1.0478877901
 H   -0.9785895765    1.8872567543    0.2638965578
 H   -4.6775900119   -0.0321899322    0.2956025122
 H   -0.4719703549   -3.8500271761   -0.5486671878
 H    0.6762406467   -2.5406480233   -0.1494885812
 H   -0.2233296373   -3.3682431118    1.1496528136