21

 C   -0.2462644897    1.5336798919    0.0825174506
 C    0.0417455889    0.0543612777   -0.0223926125
 C    0.0656990737   -0.5405980356   -1.2206606974
 C    0.3127253544   -1.9981811852   -1.5521492392
 C   -0.4655650443   -2.9919916799   -0.7172994702
 C   -0.6064195078   -2.9985900147    0.6095588136
 C   -0.0330796077   -2.0636476575    1.6047087341
 C    1.3999874020   -1.5815097361    1.5504816672
 C    0.2826489169   -0.5965315205    1.2970085521
 H    0.5792954886    2.0635659367    0.5753150328
 H   -0.4038671585    1.9862205537   -0.8996935708
 H   -1.1415202602    1.7188805223    0.6905408499
 H   -0.1150036750    0.0949541066   -2.0848732037
 H    0.0418905339   -2.1517499434   -2.6015463124
 H    1.3895948636   -2.2277075733   -1.5124743472
 H   -0.9603085837   -3.7832408831   -1.2752422210
 H   -1.2186194771   -3.7875586446    1.0415136831
 H   -0.4160976501   -2.2198020178    2.6082198487
 H    1.9475190031   -1.5035301752    2.4833487820
 H    2.0011707817   -1.8899665049    0.7042504925
 H    0.0776494575    0.0657028129    2.1330766779