21

 C    0.1790404869    1.5136769189    0.0124215718
 C    0.0162755348   -0.0089599308    0.0160494842
 C   -1.4462770604   -0.4847267498    0.0537700313
 C   -1.5924974617   -2.0258879589   -0.0781208953
 C   -2.7599344316   -2.4477619620    0.8574951010
 C   -2.4449685028   -3.7174225037    1.6249261710
 O   -3.1491261369   -4.6912483283    1.6809344564
 C   -2.8875816414   -1.2455361508    1.7767673055
 C   -2.1859767407   -0.2011187636    1.3418756072
 H    1.2348190209    1.7958531624   -0.0433399176
 H   -0.3310210344    1.9640524916   -0.8464430287
 H   -0.2345499979    1.9686486581    0.9183484657
 H    0.4914747732   -0.4245070053   -0.8818359277
 H    0.5501826943   -0.4395806875    0.8732847330
 H   -1.9762585520    0.0131951372   -0.7736686505
 H   -1.7513886185   -2.3543155119   -1.1076029659
 H   -0.6637629573   -2.4977248361    0.2692733228
 H   -3.6943893736   -2.6273749247    0.3119299941
 H   -1.4686042163   -3.6774757589    2.1658031035
 H   -3.5228353710   -1.2587782898    2.6555639994
 H   -2.1733625834    0.7716250840    1.8216554088