17

 C   -0.1708483311    1.4442717796   -0.0046119984
 C    0.0439701063   -0.0907516046    0.0001797829
 C    0.7859469290   -0.5197357743   -1.2554491548
 O    0.2243482253   -1.0179925885   -2.2000351061
 C    2.2928678365   -0.2730976046   -1.2581642058
 C    2.9254968070   -0.5101338111    0.0825965035
 C    2.2406872175   -0.6029796256    1.2293038011
 C    0.7711977849   -0.4774378265    1.2937121150
 O    0.1526120582   -0.6396038529    2.3250606926
 H    0.7793916022    1.9872846530    0.0127726634
 H   -0.7295519484    1.7472078164   -0.8940395399
 H   -0.7404514497    1.7280279369    0.8836823658
 H   -0.9336006125   -0.5791549768    0.0017455883
 H    2.7454824039   -0.8972778124   -2.0348256400
 H    2.4699121925    0.7683411396   -1.5687805439
 H    4.0069888102   -0.6220498657    0.0923268814
 H    2.7363979281   -0.7921543924    2.1758182348