17

 O    0.6405544701    0.0110128909    0.8298585285
 C   -0.1055777715    0.3198367149   -0.3427872567
 C   -1.4809721902   -0.3131791889   -0.3315907622
 N   -2.2080316122   -0.4859907521    0.9578772143
 C   -1.7720880017   -1.6766890925    0.1845392914
 C   -2.8682432793   -2.2939627716   -0.6772477487
 C   -3.1930027012   -1.1830703063   -1.6575364167
 C   -2.4191579124   -0.1101870126   -1.4806717795
 H    0.5638741570    0.7497450338    1.4388982235
 H   -0.1968454788    1.4077346945   -0.4755921334
 H    0.4631549258   -0.0602677899   -1.2004291655
 H   -1.5158849460   -0.3718966049    1.6998611196
 H   -0.9890595588   -2.2947458684    0.6092579166
 H   -2.5190688747   -3.1999256164   -1.1900211664
 H   -3.7426227645   -2.5810299002   -0.0805433932
 H   -3.9933680139   -1.2641924167   -2.3847800790
 H   -2.4690314477    0.8098370963   -2.0522450827