18

 O    0.0005180332    0.0253950638   -0.1230181976
 C   -0.0353250098    1.2131522211    0.0342588270
 C   -1.1122439879    2.2540030659   -0.0274796959
 C   -0.8868221342    3.2445028588    1.0668306077
 N   -0.0454061692    3.3538614824   -0.1182597150
 C    1.0345394025    2.3200282161    0.0690122276
 C    2.1221497701    2.4238096206    1.1630438769
 C    3.1346303571    1.8316763859    0.1438211736
 C    2.1480602772    2.1944499420   -0.9985331887
 H   -2.0112553839    2.2418406181   -0.6327070054
 H   -1.6274916569    4.0336424625    1.1568078537
 H   -0.4476805981    2.9230492012    2.0081103436
 H    2.3324218940    3.4739702338    1.3884211504
 H    1.9593538230    1.8817655100    2.0971153961
 H    4.1281391160    2.2817112134    0.1098147920
 H    3.2369300752    0.7506212050    0.2592811840
 H    1.9908850927    1.4622088309   -1.7927208655
 H    2.3553598689    3.1733567483   -1.4383318946