17

 O   -0.0741016491    1.4684440338   -0.0530555299
 C    0.0178935846    0.0674855460    0.0009758206
 C   -0.0209247072   -0.6609819827    1.3872803419
 C   -1.4992217193   -0.1735832831    1.5344932511
 C   -1.3619364164   -0.6550095343    0.0383594633
 O   -2.3117474560   -0.7245294385   -0.9517090468
 C   -0.5933689885   -1.8494041848    0.6014198624
 C   -0.1122555605   -3.1213470042    0.0877132932
 O   -1.1270074418   -3.0341437285    1.1238798672
 H    0.7960804955    1.8386428326    0.1230547422
 H    0.7448068197   -0.3227663566   -0.7227599925
 H    0.7521304978   -0.6774346165    2.1507323288
 H   -2.1448028122   -0.7768271481    2.1731126827
 H   -1.6334559398    0.8964893079    1.6819260539
 H   -2.5759604047    0.1740690468   -1.1793876669
 H   -0.4710672710   -3.4925388899   -0.8705494830
 H    0.8443969091   -3.5237664501    0.4173596218