21

 C   -0.4191261110    1.4407675078   -0.1585884268
 C    0.1241378463    0.0078869910   -0.0106348590
 C    0.9117877704   -0.4627843853   -1.1957714283
 C    2.2014246606   -0.7876743282   -1.2621044565
 C    2.5684830315   -1.2441785085   -2.6429911808
 C    3.0191581600   -2.7058728692   -2.7402451034
 O    3.1576632577   -3.1015087292   -4.0889369505
 O    1.3554639085   -1.1030099003   -3.4036419200
 C    0.2970910186   -0.6510866166   -2.5628535188
 H    0.3968909618    2.1539627083   -0.3098732370
 H   -1.1018427505    1.5278013599   -1.0094192306
 H   -0.9687329661    1.7378262494    0.7394602547
 H    0.7518214045   -0.0551222787    0.8845927861
 H   -0.7214293590   -0.6747303173    0.1537506723
 H    2.9101767334   -0.7597301760   -0.4432045557
 H    3.3415860456   -0.6153360978   -3.1121404367
 H    3.9972614305   -2.8332391651   -2.2626109909
 H    2.2925309384   -3.3361944107   -2.2017082228
 H    2.3389974335   -2.8289011059   -4.5217765218
 H   -0.5216109788   -1.3890608230   -2.5476736869
 H   -0.1200718060    0.2815787755   -2.9723560665