18

 C    0.1187491020    1.5383129924   -0.0508090186
 C    0.0271825976    0.0213605595    0.0165068564
 O    0.7033771342   -0.5204588006   -1.1212062998
 C    1.3185262750   -1.7572718282   -0.7874264685
 C    1.5182471566   -1.7158015669    0.7095408826
 O    2.1325289044   -0.4988514912    1.1539846283
 C    0.7001924708   -0.6166314277    1.2288255561
 C    0.0728922908   -0.5456349437    2.5919615346
 H    1.1626645025    1.8489288593    0.0385117423
 H   -0.2740457983    1.8963793496   -1.0058489611
 H   -0.4633477295    1.9993101780    0.7535902403
 H   -1.0310243044   -0.2948059467    0.0124546605
 H    0.6809861184   -2.6182597071   -1.0501881982
 H    2.2532147701   -1.8320518116   -1.3533775831
 H    1.7551124308   -2.6142812841    1.2738740227
 H    0.0102787288    0.4916759289    2.9382337911
 H   -0.9422729922   -0.9557377563    2.5752958931
 H    0.6669831823   -1.1080278236    3.3160359914