16

 C    0.0170773114    1.5563476919    0.0239434860
 C    0.0190715105    0.0257887525   -0.0387039872
 C    0.7802119742   -0.4910536216   -1.2634331310
 N    0.6791484748   -0.4869183061    1.1678688916
 C    0.0718716289   -1.2134143862    1.9688131631
 O   -1.2305996651   -1.6827526187    1.9493217586
 N   -1.3987583079   -2.4620476986    3.0930296706
 N   -0.3516662312   -2.4839977749    3.7452100062
 O    0.6272383005   -1.7301783810    3.1205084498
 H    1.0412152622    1.9349199394    0.0954690435
 H   -0.4480834303    1.9736859743   -0.8745230166
 H   -0.5391445915    1.9130285759    0.8956155973
 H   -1.0209414208   -0.3248185669   -0.0978976751
 H    1.8241699493   -0.1653562831   -1.2271899727
 H    0.7659452687   -1.5840775550   -1.3021539813
 H    0.3264969362   -0.1089584219   -2.1831645629