18

 C    0.0570802074    0.5000589214    1.3211889372
 C   -0.0809235987   -0.5829768377    0.3575083835
 C   -0.1894623183   -1.4670312374   -0.4532737829
 C   -0.3475733825   -2.5384732527   -1.4323156219
 C   -1.5712444824   -3.4126737681   -1.1091717328
 O   -2.6565450476   -3.2306548732   -1.6073387354
 N   -1.2967503733   -4.4777075116   -0.2601557776
 C   -0.8450306814   -4.3847517699    1.1174875069
 C   -2.2019394206   -4.9275730724    0.7679510537
 H    0.9124834215    0.3384356167    1.9863291146
 H    0.2065590262    1.4609549303    0.8167251242
 H   -0.8376152902    0.5923131618    1.9467820536
 H   -0.5091932436   -2.1216342050   -2.4311477339
 H    0.5511470902   -3.1646869544   -1.4633306373
 H   -0.0456456211   -5.0642563906    1.4005900962
 H   -0.7934664610   -3.3958237167    1.5626504801
 H   -3.0695643922   -4.3040505546    0.9654757456
 H   -2.3795821522   -5.9981709659    0.8100987563