20

 C   -0.5494901476    0.9852093041   -1.5072681260
 C    0.2042392270   -0.2048843117   -0.9290976927
 C    1.7073770844   -0.3349381442   -1.2540289023
 O    2.3538715505   -0.1054322182   -2.2360842733
 C    2.0691799216   -0.6926625624    0.1990686294
 C    3.2789835484   -0.0147131269    0.8261187321
 C    0.6336240633   -0.2497212968    0.5561697361
 C    0.2091321592    0.6789393412    1.6253242734
 N   -0.1161111550   -0.7642122285    1.6927266381
 H   -0.0571008457    1.9273057334   -1.2486897850
 H   -0.5850334550    0.9141054383   -2.5982579933
 H   -1.5798219850    1.0257031232   -1.1382591774
 H   -0.2971022853   -1.1454933693   -1.2005447032
 H    2.1472530834   -1.7844750365    0.2942567854
 H    3.2044833384    1.0745529603    0.7513898607
 H    3.3736406519   -0.2803790852    1.8836021543
 H    4.1949554884   -0.3230592939    0.3139220032
 H    0.9224596484    1.0191969339    2.3710635663
 H   -0.5890937323    1.3844576689    1.4087636476
 H   -1.0904841890   -0.9115244095    1.4373879066