21

 C   -0.1049296712    1.5592053459    0.0505117244
 C   -0.0155133832    0.0212239708   -0.0121910253
 C    0.6432685569   -0.4600901374   -1.3387028210
 C    2.1839681246   -0.5908510441   -1.2763070461
 C    2.4497296642   -1.6429878347   -0.2139845052
 O    3.7268675046   -1.6777227057    0.4890136865
 C    3.0522173715   -1.6523876168    1.7808310728
 C    1.7728128645   -1.2792374946    1.0745695768
 C    0.7194637214   -0.4905012924    1.2121386089
 H    0.8883220582    2.0158458091   -0.0166648067
 H   -0.7140845307    1.9472789106   -0.7722999077
 H   -0.5586356907    1.8918332607    0.9899879336
 H   -1.0471482076   -0.3581249819    0.0007689336
 H    0.2306517534   -1.4405029882   -1.6084591997
 H    0.3572159994    0.2224337815   -2.1453175112
 H    2.5846800970   -0.8659401943   -2.2571112958
 H    2.6498693221    0.3527533618   -0.9725693838
 H    2.2150084806   -2.6476055728   -0.5990560185
 H    3.0696336344   -2.6420118213    2.2597098773
 H    3.4833589069   -0.9135285105    2.4661192909
 H    0.4121358338   -0.1023704155    2.1811727162