17

 C    0.0703464463    1.5003920372    0.0632351384
 C   -0.0201647675    0.0104708255   -0.0080680334
 C   -0.1254233307   -0.7397654670   -1.1100410666
 C   -0.0906346643   -2.1945876941   -0.7720594532
 N    1.1945818117   -2.6088239951   -0.1171279453
 C    0.0369853717   -2.2753922702    0.7228007011
 C    0.0371715799   -0.8465907835    1.2484775617
 C   -0.8198614538   -3.1659503257   -1.5363179060
 N   -1.3950782043   -3.9484566439   -2.1656960991
 H    1.0292823628    1.8157771402    0.4927790293
 H   -0.0253154643    1.9569532231   -0.9249375554
 H   -0.7133433806    1.9123817497    0.7113784464
 H   -0.1829046965   -0.3772230937   -2.1282406952
 H    1.2781513244   -3.6239005520   -0.1705703796
 H   -0.4507773988   -3.0667672912    1.2806961052
 H    0.9372902217   -0.6398199406    1.8395138210
 H   -0.8258749277   -0.6582639586    1.9000007408