16

 O    0.7773225469    0.2750375506    0.6719854942
 C   -0.0615234547    0.2688819897   -0.4614780472
 C   -1.4111217441   -0.3579646815   -0.1446220385
 N   -2.0664445930   -1.1789549248   -1.1796205869
 C   -1.5710594507   -1.8376855766    0.0268282554
 C   -0.4308915178   -2.8019816691   -0.1572729453
 O    0.7117362391   -2.5918721579    0.1725944784
 C   -2.3280294680    0.4480739839    0.7265636979
 O   -3.5195900416    0.2529219285    0.7820543597
 H    1.0181193377   -0.6512274243    0.8222026419
 H   -0.2047251438    1.3155581904   -0.7540428966
 H    0.3799202939   -0.2523776464   -1.3197180025
 H   -3.0756544633   -1.0456877053   -1.0900047284
 H   -2.3130798430   -2.1754372009    0.7518080477
 H   -0.7175712680   -3.7687002091   -0.6207559997
 H   -1.8345344297    1.2433412227    1.3189956999