14

 O   -0.1002558998    1.4034045736   -0.0057003998
 C   -0.0272348229    0.0142225421    0.0035703359
 C    1.0350078658   -0.5904365284   -0.7526080164
 C    1.9344606695   -1.1017604415   -1.3666847837
 C   -0.4586348747   -0.7410872705    1.2566517487
 O   -1.1603225605    0.0399075181    2.2036273661
 C   -2.3057291027    0.4245211732    1.5731358962
 N   -2.5245579779    0.0058433709    0.3938124118
 C   -1.3586507981   -0.7527272675    0.0281426556
 H    0.5998625500    1.7413493256    0.5647775110
 H    2.7235536554   -1.5436120147   -1.9237089398
 H    0.1218550420   -1.5451209979    1.6892431554
 H   -2.9536809087    1.0623022907    2.1601572547
 H   -1.4890778473   -1.5812169338   -0.6554616957