17

 C    1.0105760025   -0.7064254305    1.2430477895
 O    0.1860928042   -0.3817377476    0.1329903977
 C    0.7675865632   -0.5042577049   -1.1283338184
 C    2.1497745427    0.1466728735   -1.2801768689
 O    2.1443370732    1.4824473082   -0.8355324821
 C    0.5861498900   -1.8631037264   -1.8611533873
 O   -0.2596770005   -1.2079522711   -2.8665267560
 C   -0.1916403711   -0.0025640937   -2.2265193754
 O   -0.6880367581    1.0338174317   -2.5351006298
 H    1.4401400656   -1.7149505872    1.1567383331
 H    1.8150694090    0.0254602982    1.3731278124
 H    0.3599494485   -0.6800692990    2.1192128233
 H    2.8918682335   -0.3851004858   -0.6756606053
 H    2.4634549045    0.0534435189   -2.3324412026
 H    1.4131440428    1.9386053034   -1.2709649534
 H    1.4631293884   -2.3095040943   -2.3342925457
 H    0.0165244416   -2.6011347932   -1.2948256212