19

 N   -1.1766839993    1.1008461522   -0.1254055618
 C   -0.4092663666   -0.0051265832    0.0102494123
 O    0.8127531953    0.0332422434    0.0352670933
 C   -1.1159149469   -1.3771664997    0.0795127613
 O   -0.1245201272   -2.3664980274    0.1163835204
 C   -2.0626374560   -1.5631143832    1.2871764104
 C   -3.3805143194   -0.8359602834    1.1692814163
 C   -4.2316853865   -0.5366304770    2.3421756144
 N   -3.5358224923    0.5621145295    1.6413137934
 H   -0.7056486475    1.9914150449   -0.1469704892
 H   -2.1792749581    1.0900657153   -0.0099519194
 H   -1.7173144600   -1.4783812185   -0.8409560045
 H    0.7137041276   -1.8704811256    0.0898970547
 H   -2.2468103429   -2.6419037365    1.3485142127
 H   -1.5457383010   -1.2812039518    2.2133059995
 H   -3.8998080793   -1.0067194229    0.2264390494
 H   -5.3131602008   -0.5345443414    2.2451570394
 H   -3.8645615758   -0.8224565533    3.3242461481
 H   -2.7136578833    0.8187490387    2.1846031194