16

 N    0.0244532142    1.3530113007    0.0089112444
 C   -0.0338618342    0.0089454251    0.0014285527
 C   -1.2486191169   -0.6586182019    0.0046517429
 C   -1.5299517474   -2.0325312234   -0.0011721666
 C   -0.6707612653   -3.1073997488   -0.0116895540
 C    0.7363280921   -3.0613089116   -0.0193289265
 C    1.5896035038   -1.9876137217   -0.0185647986
 C    1.3481563816   -0.5708389149   -0.0099267341
 O    2.2867905028    0.2378488891   -0.0114899095
 H    0.9611226971    1.7384366070    0.0037524981
 H   -0.7942168825    1.9332577877    0.0141949349
 H   -2.1244444673   -0.0113306824    0.0131373120
 H   -2.5907793024   -2.2727974433    0.0034627210
 H   -1.1205580057   -4.0953034947   -0.0144315031
 H    1.2263517600   -4.0331426920   -0.0271657188
 H    2.6547879402   -2.2030063249   -0.0257988850