19

 C    0.0049188969    1.4482927887    0.3733150425
 C    0.0101909198    0.0143386682   -0.1764364982
 C   -1.3683996793   -0.5554166251   -0.3023498947
 C   -2.4802105223   -0.1776721959   -1.3014697872
 C   -2.9472424426   -1.6594902531   -1.1792553990
 O   -3.7185731945   -2.3369605878   -1.7915070015
 C   -1.8608811307   -1.9607463030   -0.1483967593
 C   -1.2230422994   -3.2570675228    0.2198527526
 O   -2.0655520909   -0.9573707253    0.8809801305
 H    1.0249977940    1.8324125566    0.4616130875
 H   -0.5528935643    2.1233545272   -0.2836516567
 H   -0.4599713683    1.4801728985    1.3628471736
 H    0.4902311335   -0.0077535075   -1.1625048825
 H    0.5980262502   -0.6341754469    0.4823836737
 H   -3.1726197192    0.5961383778   -0.9644374909
 H   -2.1441857455    0.0351906317   -2.3213118011
 H   -0.9550923283   -3.8201825427   -0.6791514856
 H   -0.3227789877   -3.0900803704    0.8171853306
 H   -1.9142072913   -3.8701661884    0.8071239857