25

 C    0.2098187127    1.4625145449   -0.1122142792
 C   -0.0684609290   -0.0419893628    0.0040641539
 C   -1.5549669870   -0.4923622562    0.0081914038
 C   -2.2738857643    0.0456125200    1.2586066822
 C   -2.2882768492    0.0502458447   -1.2398223404
 O   -1.7322741614   -0.3856706681   -2.4728601512
 C   -1.5520586373   -2.0419353845   -0.0108675853
 C   -2.8958513717   -2.7493367347    0.1894905658
 O   -2.7594984268   -4.1627261471    0.1236723961
 H    1.2876658985    1.6493101251   -0.0767783361
 H   -0.1591883065    1.8868275500   -1.0526136638
 H   -0.2454704725    2.0323362295    0.7032139653
 H    0.4477498467   -0.5624965111   -0.8133852987
 H    0.3970788670   -0.4161997423    0.9242199973
 H   -2.2114076967    1.1362147978    1.3225937581
 H   -3.3370722252   -0.2148122081    1.2567429094
 H   -1.8322632003   -0.3677455232    2.1718708020
 H   -3.3235792298   -0.3046139392   -1.2458032935
 H   -2.3346205631    1.1481352197   -1.1938573735
 H   -0.8866057526    0.0565169106   -2.5924675743
 H   -1.1429119371   -2.3584084927   -0.9792197457
 H   -0.8650515464   -2.4124940361    0.7599181752
 H   -3.2996107956   -2.5475022557    1.1861764751
 H   -3.6401746277   -2.3949838774   -0.5400149837
 H   -2.4243412847   -4.3798974532   -0.7522878487