18

 O    0.1373287088   -0.0093711952    0.6536616649
 C    0.1627337431    1.0706719668    0.1255967514
 O   -0.9365904150    1.4677065187   -0.6017118202
 C   -1.3178276553    2.8456294509   -0.7776640518
 C   -1.1356368430    3.3324236790   -2.2214208339
 C    0.3147729458    3.6610310161   -2.6171847079
 N    1.2503379512    2.6255930808   -2.1516597247
 C    1.7112672530    2.7624198405   -0.8364287627
 C    1.3107680174    2.0043247335    0.1954517865
 H   -2.3812688907    2.8747946947   -0.5213326271
 H   -0.7799717830    3.4836230753   -0.0711036811
 H   -1.5336367650    2.5547900175   -2.8850241223
 H   -1.7644035668    4.2186698447   -2.3711418000
 H    0.3907142660    3.7643690174   -3.7052389201
 H    0.6283207413    4.6151632950   -2.1798495122
 H    0.8345489071    1.7111055271   -2.2893089209
 H    2.4800460911    3.5227888394   -0.7031382247
 H    1.8490380941    2.0145821376    1.1359456668