17

 N   -0.0904095872    1.1681359282   -0.8223325353
 C   -0.0557096258    0.0815403715   -0.1568272367
 C   -1.3563164095   -0.6290217771    0.1251018605
 C   -1.5770820265   -1.1232825833    1.5531545776
 O   -0.7603752417   -2.2377190432    1.8568112685
 C    0.5412829207   -1.9261350802    2.2703044541
 C    1.5418282789   -1.3971121540    1.2393459970
 O    2.7190894651   -1.6657645558    1.3629854498
 N    1.1533698814   -0.5280685343    0.2277539026
 H    0.8458607756    1.5457628429   -0.9869489962
 H   -2.1495518843    0.0640582938   -0.1618705431
 H   -1.4175350271   -1.5040858312   -0.5342480264
 H   -1.4211104481   -0.3156759739    2.2855234508
 H   -2.6102315071   -1.4689320164    1.6517636242
 H    0.5300076681   -1.1868359228    3.0911595357
 H    0.9869083772   -2.8434491073    2.6584651790
 H    1.9755563103   -0.1607897970   -0.2379946620