18

 C   -0.0186763530    1.4951373730    0.1450414136
 C    0.0312148106   -0.0228330072    0.0734466236
 O    1.0750321461   -0.6478510524    0.1631858751
 N   -1.1650097091   -0.6627488907   -0.0986587236
 C   -2.4814922383   -0.0387167016   -0.2272193106
 C   -3.3411479032   -1.1408381916   -0.8098557628
 O   -2.8230668221   -1.6706957022   -2.0315579326
 C   -2.5696079443   -2.3876784756   -0.8170351919
 C   -1.1995579650   -2.1213370082   -0.2388997172
 H    0.9856391139    1.8540732319    0.3669286970
 H   -0.3478270946    1.9235597423   -0.8079487966
 H   -0.7093991040    1.8443414434    0.9191301990
 H   -2.8931816930    0.2793964079    0.7425615387
 H   -2.4470775806    0.8367883931   -0.8836796296
 H   -4.4227497470   -1.0928892131   -0.7231661833
 H   -3.0188638651   -3.3732158160   -0.7402356982
 H   -0.3811624451   -2.4514285809   -0.8838875905
 H   -1.0853930862   -2.6283066122    0.7291347700