19

 O   -1.0220405140    1.0053215518    1.0028933178
 C   -0.4477052791    1.3663659807    0.0100047274
 C    1.0462236731    1.6511714445   -0.0541084362
 N    1.3195471094    2.6057718281   -1.1161693807
 C    1.5522372138    4.0012149034   -0.7528072261
 C    2.6665601994    3.1567325179   -1.2743896508
 C    3.8109994657    2.7594493261   -0.3958470065
 C    4.8717792852    1.8685978390   -0.9368778787
 N    5.1539855548    3.2901413982   -0.6809171769
 H   -0.9696951069    1.5086298111   -0.9620326741
 H    1.3850087107    1.9447377796    0.9500291249
 H    1.5404899524    0.7001336346   -0.3008557189
 H    1.0718479602    4.7464119936   -1.3809459614
 H    1.5839405475    4.2506683976    0.3076271394
 H    2.9543571637    3.2758935094   -2.3207735067
 H    3.5920103882    2.7100445378    0.6676685552
 H    5.3886224082    1.1733733873   -0.2817437702
 H    4.7702324544    1.5326994660   -1.9661905394
 H    5.1421613532    3.8106532534   -1.5558341783