13

 N   -0.0597804041   -1.1873823698   -0.1346888327
 C   -0.0467083193   -0.0359596236   -0.0442710630
 C    0.0111551469    1.4268465872    0.0517562322
 N   -0.5688204894    1.9026309122    1.3331515880
 C    0.3069716652    2.6536453566    1.8693644245
 N    1.5384454476    2.8987666502    1.1943328749
 C    2.3542953857    1.6509089317    1.1299722272
 C    1.4384640597    2.0011022030    0.0220697218
 H   -0.5801433913    1.8390260539   -0.7748089278
 H    0.1473266802    3.1459727996    2.8239652744
 H    3.4199558117    1.8172610262    1.0163304932
 H    2.0733879402    0.8380785733    1.7938640677
 H    1.8286780768    2.3784665595   -0.9156088403