17

 O   -0.2330576761    0.4220495573   -0.6830406634
 C    0.2134254651    1.0953448828    0.2162015761
 C    1.4268536933    1.9321911138    0.1009068827
 O    1.8469851840    2.5523368163    1.2926190971
 C    2.3997580024    3.8284629823    0.9299633703
 C    2.7920512898    3.6562452627   -0.5352161246
 C    3.7253784114    2.4062975859   -0.6910625515
 C    2.4785456941    1.5612715986   -0.9492942645
 C    1.6292515239    2.8039302582   -1.1139066722
 H   -0.2641898349    1.1423956371    1.2180541141
 H    1.6488330126    4.6217283104    1.0629591965
 H    3.2503965847    4.0284585908    1.5886840102
 H    3.0833167935    4.5713807781   -1.0485600646
 H    4.3457022208    2.4778864684   -1.5871020640
 H    4.3504310599    2.1442562612    0.1683322883
 H    2.4009176646    0.6184964392   -1.4771161664
 H    0.8548508909    3.0607190668   -1.8239970941