24

 C    0.1025995273    1.5121484032   -0.1118363849
 C    0.0416515511   -0.0002571395    0.1267667221
 C   -1.3711897706   -0.5644176861    0.0521626935
 C   -2.1042726876   -0.6029040390   -1.3202126507
 C   -2.6859072429   -1.9915424661   -0.9348888982
 C   -2.7925231637   -3.0712761694   -2.0038945036
 C   -3.2618700462   -4.4224836003   -1.4543777174
 C   -1.5761012651   -2.1017504930    0.1506944628
 H    1.1306512043    1.8844559596   -0.0617649716
 H   -0.2982777835    1.7741804506   -1.0970943082
 H   -0.4847993783    2.0545393984    0.6376189840
 H    0.6710358554   -0.5147283441   -0.6123962447
 H    0.4729556842   -0.2351513281    1.1093958876
 H   -2.0054344055   -0.0598153947    0.7919899729
 H   -2.8074347951    0.1999889032   -1.5566905142
 H   -1.3883093584   -0.6913617752   -2.1466336076
 H   -3.6612958145   -1.8608167928   -0.4493360270
 H   -3.4820374839   -2.7344705723   -2.7899546711
 H   -1.8139703349   -3.1914608308   -2.4888243051
 H   -3.3183759053   -5.1782654026   -2.2440683632
 H   -2.5777528443   -4.7963079205   -0.6847443128
 H   -4.2557495177   -4.3407394080   -1.0000316559
 H   -0.7015807365   -2.6410654812   -0.2336922200
 H   -1.8410953282   -2.5225065415    1.1242129535