21

 C   -0.1274010799    1.3496929569    0.0955084585
 O    0.3030377859    0.0219131487   -0.0925365323
 C    0.6957722666   -0.6292836513    1.0883093146
 C   -0.4301665848   -1.0141785239    2.0721468492
 C    0.2341944965   -2.0903428890    2.9538357907
 C    1.1422297461   -2.8835880546    1.9940936554
 C    0.4082407138   -3.7929404886    0.9882569095
 O    0.5437010177   -2.8203863914   -0.0684552233
 C    1.3629751122   -1.9668294220    0.7606954162
 H    0.6434713081    1.9615150498    0.5916854343
 H   -0.3240302534    1.7678805851   -0.8947328202
 H   -1.0500592813    1.4109142649    0.6911264622
 H    1.4429103080   -0.0152367799    1.6274663713
 H   -0.8115794990   -0.1703597863    2.6520029615
 H   -1.2609069195   -1.4334921219    1.4947634724
 H    0.8455671035   -1.6141860833    3.7291194380
 H   -0.4910927672   -2.7296051208    3.4670339156
 H    2.0150934588   -3.3218089664    2.4785643715
 H    0.9262053172   -4.7300158849    0.7455349381
 H   -0.6428952205   -4.0161874640    1.2140936209
 H    2.3705549812   -1.8564071672    0.3465683961