16

 O   -0.0463854704    1.4383907357   -0.0109522724
 C    0.0948961810    0.0307470366   -0.0133698288
 C    0.6201020947   -0.4750904041    1.3351106058
 N    0.6285708193   -1.9289924078    1.3675906720
 C   -0.2630864085   -2.7687735328    0.7565459529
 O   -0.2607282440   -3.9689027304    0.9175999479
 C   -1.2757871602   -2.0861109399   -0.2071698120
 O   -2.0195610028   -2.7736858675   -0.8541150250
 C   -1.2843514802   -0.5678750949   -0.2714408900
 H    0.8298887889    1.8365067629   -0.0318856677
 H    0.7861508805   -0.2968467400   -0.8057435034
 H    1.6431114647   -0.1188720815    1.4992868787
 H   -0.0074191760   -0.0472948662    2.1307270682
 H    1.2531033478   -2.3940843502    2.0116184766
 H   -1.9663320718   -0.2008028200    0.5097277345
 H   -1.6930103331   -0.2519681199   -1.2337128874