23

 C    0.0328526146    1.5577759202   -0.0215087195
 C    0.0066239972    0.0283400932    0.0310808789
 C   -1.4131731582   -0.5467441188   -0.0007487124
 C   -1.4566393746   -2.0710539336    0.0029894069
 C   -2.8780710371   -2.6386627148    0.1093784605
 C   -2.8844165839   -4.1110198206   -0.2080330907
 C   -1.8528946617   -4.6969293023   -0.8101347863
 C   -0.6479498227   -3.9144697470   -1.2535148638
 O   -0.8443147690   -2.5157491977   -1.2055265168
 H    1.0580078297    1.9405221640    0.0041696408
 H   -0.4375805846    1.9300806162   -0.9385190370
 H   -0.5068103444    1.9960636091    0.8259719361
 H    0.5701435439   -0.3859796904   -0.8112209393
 H    0.5148284363   -0.3164584619    0.9418100114
 H   -1.9854588351   -0.1817390766    0.8624296451
 H   -1.9369258478   -0.1925923540   -0.8985180213
 H   -0.8694014353   -2.4493609589    0.8593708115
 H   -3.2655235331   -2.4670541784    1.1220213737
 H   -3.5494602870   -2.0956191730   -0.5713759738
 H   -3.7580202246   -4.6897689700    0.0802909362
 H   -1.8415498285   -5.7657529068   -1.0068482437
 H    0.2321921246   -4.2045863472   -0.6486396989
 H   -0.4012828485   -4.1503822705   -2.2960974576