12

 N   -0.0123670175   -1.1562927244    0.5062616049
 C    0.0043100403   -0.0263334794    0.2692485830
 C    0.0222617194    1.4108504945   -0.0290652188
 C    1.3990959353    1.9783603750   -0.1271565394
 C    2.1281291802    2.5392582115   -1.1212886687
 N    3.3702524831    2.9152008331   -0.6247084900
 C    3.3290794352    2.5662220875    0.6179100157
 O    2.1666332186    1.9912815933    1.0063863602
 H   -0.4939275000    1.5798138915   -0.9792348592
 H   -0.5558689154    1.9302332878    0.7452731374
 H    1.8543635871    2.6991287142   -2.1521596368
 H    4.0912685937    2.6734884755    1.3733774616