19

 O   -0.0203026095    1.4313766072   -0.0540317283
 C    0.0250815868    0.0169988994    0.0066434324
 C    0.6590095260   -0.5558231400    1.3185186100
 C   -0.5081192900   -1.3302881861    1.9675950318
 C   -1.2114183580   -1.9091142983    0.7126722905
 C   -1.4223061373   -0.5360443622    0.0336782686
 C   -2.1589406654    0.2142352274    1.1495733586
 O   -3.0579754560    1.0015730099    1.0346811245
 C   -1.5553295569   -0.3126333772    2.4663729621
 H    0.8825129271    1.7620441576   -0.0903077813
 H    0.5418739024   -0.3862691282   -0.8759249837
 H    1.4975604558   -1.2219564011    1.0938298827
 H    1.0318638858    0.2557725872    1.9507155310
 H   -0.2013479988   -2.0586674534    2.7196826703
 H   -0.5713076718   -2.5797438967    0.1314731058
 H   -2.1496091650   -2.4262264885    0.9350623226
 H   -1.9366311912   -0.4956759320   -0.9248375249
 H   -2.3473742941   -0.7895004001    3.0549455945
 H   -1.1469247098    0.5065099051    3.0650551226