18

 C   -0.0803462215    1.3146014330   -0.3517121571
 C    1.2559500676    0.8891072277    0.1411374494
 N    0.1614969198   -0.0742848805   -0.0066118372
 C   -0.3771520540   -0.6137145591    1.2167039003
 C   -1.5331447498   -0.1590245609    2.0847621946
 C   -2.8424551653    0.1746373488    1.3048505475
 O   -2.6180828308    0.0572388536   -0.1064827811
 C   -2.8466439937   -1.1311429409    0.6589957199
 C   -1.5415335507   -1.5468897256    1.3923912562
 H   -0.6879499197    1.9072712685    0.3279523364
 H   -0.2558866400    1.5117197165   -1.4050043429
 H    2.0928597601    0.7559233967   -0.5391676570
 H    1.5311645708    1.2002417210    1.1482519853
 H    0.4358552902   -0.9605820838    1.8552098850
 H   -1.4303487396    0.0502205166    3.1429230260
 H   -3.6435973095    0.8229743821    1.6383001311
 H   -3.6519373595   -1.7858323051    0.3491655268
 H   -1.4299166144   -2.5179675388    1.8593458568