20

 C    0.8874483781    0.6702566421   -0.5448117056
 C    0.0066180309   -0.5743624103   -0.3274674509
 C   -1.3148789078   -0.2509486900    0.3234572519
 N   -2.3315068745    0.2281635182   -0.2875724348
 O   -2.0951649619    0.4313482213   -1.6542269177
 C   -1.4636215783   -0.4958257108    1.8175299841
 O   -0.3767830317    0.1104348805    2.5172775672
 C   -2.8061046368   -0.0531695058    2.4150973874
 O   -3.9108385085   -0.7407419216    1.8752249844
 H    1.8233620617    0.3908619049   -1.0375502964
 H    0.3753467993    1.4029204005   -1.1729613413
 H    1.1354311137    1.1364014438    0.4121746862
 H   -0.1920871063   -1.0502060701   -1.2926476425
 H    0.5397933703   -1.2905769564    0.3040212783
 H   -2.9423367438    0.7684887971   -1.9647639160
 H   -1.3442589853   -1.5727759661    1.9925519784
 H   -0.4974716904    1.0660620317    2.4662776124
 H   -2.7794966021   -0.2670360303    3.4878913134
 H   -2.9025435843    1.0395885500    2.2947236886
 H   -3.9331268924   -0.4891639987    0.9423918029