23

 C   -0.1224414239    1.5509348458    0.1412878042
 C    0.0169075510    0.0300767151    0.0379196901
 C    0.7055653418   -0.5289832674    1.2950893040
 O   -1.3155884459   -0.4807360408   -0.0296389295
 C    0.7615018854   -0.4354817072   -1.2571274765
 C    2.2656417438   -0.1345283399   -1.2670875290
 O    0.5617642628   -1.8569183528   -1.2916227191
 C    0.0920607637    0.1528619892   -2.5144582827
 O    0.5401348313   -0.6354338287   -3.6220846662
 H    0.8517857963    2.0457275070    0.1733969464
 H   -0.6983258028    1.9573051923   -0.6937949394
 H   -0.6595004633    1.7978694892    1.0614533766
 H    0.0570095696   -0.3510217553    2.1569681817
 H    0.8685663891   -1.6056113523    1.1990509625
 H    1.6701223066   -0.0491980911    1.4848435807
 H   -1.2095813510   -1.4010076519   -0.3091159399
 H    2.7769400172   -0.7026231205   -0.4880797010
 H    2.6879544292   -0.4224728305   -2.2339941166
 H    2.4667944136    0.9307139243   -1.1164360222
 H    0.6071195280   -2.0958927356   -2.2280513897
 H   -0.9953485116    0.0909842277   -2.4002867654
 H    0.3803149972    1.2028411860   -2.6518365204
 H   -0.0681110279   -0.5073202730   -4.3544390187