15

 C   -0.0282546378    1.4900225689    0.0054683375
 C   -0.0114294203   -0.0034370761   -0.0230369432
 N   -0.0310579394   -0.6901988401   -1.0981699636
 C   -0.0045480084   -2.0983029208   -0.7248723716
 C    0.0347289094   -2.1518952833    0.8008466137
 O    0.0659709525   -3.0925332515    1.5372686444
 N    0.0287624713   -0.7671089015    1.1738776396
 C    0.0568531417   -0.2579301047    2.4767795879
 O    0.0901606925   -0.9208639442    3.4752425715
 H    0.8640599971    1.8922339855    0.4966434474
 H   -0.0588324718    1.8456944171   -1.0243370743
 H   -0.9034846851    1.8714249147    0.5419051834
 H   -0.8880564172   -2.6251259036   -1.1021605122
 H    0.8711037917   -2.6038810333   -1.1468986179
 H    0.0438091239    0.8465566129    2.4813413972