15

 N    0.0923559614    1.3461114865   -0.1471821359
 C   -0.0461720736   -0.0071764650   -0.0500334428
 C   -1.2236961057   -0.6901730880    0.0036363574
 C   -1.1162472565   -2.1150644489    0.0408374810
 N   -2.2543233841   -2.8615011509    0.1308285114
 N    0.0215834268   -2.7681620608    0.0275398600
 C    1.1895007016   -2.0885845464   -0.0100933029
 N    2.3458541996   -2.6044408257   -0.0155460490
 O    1.1297015931   -0.6323045331   -0.0534519967
 H    0.9989048769    1.7140510156    0.0953791075
 H   -0.6966451669    1.9133011745    0.1158341260
 H   -2.1740187002   -0.1756643194    0.0206742661
 H   -3.1328716371   -2.4557996482   -0.1418408199
 H   -2.1391218402   -3.8519318643   -0.0167174151
 H    3.0581871147   -1.8787631660   -0.0545761570