21

 C   -0.0886927978    1.4799642410    0.0685492826
 C    0.0025648646   -0.0129965381   -0.0044197801
 C   -0.0350554198   -0.7745294895   -1.1001875030
 C    0.0543501030   -2.2499645261   -0.8081319488
 C    0.4233059841   -2.2821411882    0.6966417805
 C    0.0915593802   -0.8706807471    1.2668677957
 C    1.1031638268   -0.3665599316    2.2999646062
 C   -1.3186435944   -0.8721879871    1.8525484256
 O   -1.6639905013   -0.2830326701    2.8447134891
 H    0.8232033056    1.9158518593    0.4937960959
 H   -0.2416410797    1.9165657236   -0.9217803436
 H   -0.9145379553    1.7976532868    0.7168239250
 H   -0.1311418716   -0.3839019396   -2.1085018692
 H   -0.9013460867   -2.7523396681   -1.0102267775
 H    0.7994024418   -2.7606830578   -1.4293397215
 H   -0.0888827628   -3.0817909735    1.2414097492
 H    1.4970041018   -2.4544629945    0.8159375544
 H    2.0915344845   -0.2528797057    1.8444280852
 H    0.7941784271    0.5923895779    2.7214823516
 H    1.1876362200   -1.0735011535    3.1313063500
 H   -2.0532029800   -1.4553910282    1.2490309126