23

 C    0.0296295054    1.5860103741   -0.0400404361
 C   -0.0260344360    0.0603122727    0.0745063350
 C   -1.4402608611   -0.5077363989   -0.0974017489
 C   -1.4973233613   -2.0280379495    0.0207499604
 C   -1.2648598546   -2.6990499905    1.4252234650
 C   -2.6214785799   -3.4003957201    1.2794972011
 O   -2.8492405534   -4.7262737615    1.6091679427
 C   -3.7297342326   -2.3996696127    1.1317897504
 C   -2.8601356734   -2.7354812395   -0.0657811162
 H    1.0508106189    1.9605089503    0.0830678389
 H   -0.3330132243    1.9232382013   -1.0176105001
 H   -0.5942015925    2.0634111317    0.7240290839
 H    0.6364652884   -0.3883958939   -0.6777684897
 H    0.3732808876   -0.2480792814    1.0496543610
 H   -2.1072757718   -0.0482988231    0.6442658779
 H   -1.8328749529   -0.2115562758   -1.0803849516
 H   -0.8066890029   -2.4683383650   -0.7068520821
 H   -0.4310772758   -3.4041523284    1.4188289278
 H   -1.1566818705   -2.0263851953    2.2840230099
 H   -3.1689351674   -4.7605676578    2.5174321106
 H   -4.7199015035   -2.8427488992    1.0875288757
 H   -3.6923818166   -1.4249792271    1.6130428140
 H   -3.2958786496   -3.1502354603   -0.9669691993