16

 O   -0.1136062064    1.3943272797   -0.0090688330
 C    0.0193185097    0.0308948071   -0.0005710952
 C   -1.0168261542   -1.0188385261   -0.0248131260
 N   -0.4404718206   -1.6917219396   -1.1738690332
 C    0.8141458903   -0.8833400970   -1.0031038852
 C    1.8518618972   -1.6267464723   -0.1656550948
 C    1.1775170745   -1.7730448130    1.2156862074
 O    1.5822009599   -2.4484317345    2.1304749969
 C   -0.0245608979   -0.8939377409    1.2037371111
 H    0.6166508951    1.7818492973    0.4868658686
 H   -2.0821300784   -0.9808611536    0.1687553191
 H   -0.2999672443   -2.6948246389   -1.0570100012
 H    1.1746756615   -0.4315508363   -1.9276289386
 H    2.1468435799   -2.5998118051   -0.5694986732
 H    2.7667110162   -1.0319890066   -0.0450267770
 H   -0.4894399225   -0.5772339502    2.1290558943