20

 C   -0.2284993747    1.5041854248   -0.0912183840
 N    0.0813217462    0.0858564189   -0.0157181523
 C    1.1727871120   -0.4491028832   -0.8774893239
 C    1.8631611742   -1.0759277357    0.3422065745
 C    2.3812059079   -2.4797460591    0.4327358534
 C    2.1826564679   -0.0040337367    1.3312441919
 C    0.7301033256   -0.4213655695    1.1884244033
 C   -0.0210650770   -1.0785993971    2.2655189384
 O    0.4869261444   -1.5838840720    3.2429190685
 H    0.6421645855    2.1672675657    0.0541118749
 H   -0.6641069552    1.7282286452   -1.0702049266
 H   -0.9737919353    1.7514820532    0.6713717925
 H    0.7992831744   -1.1739203771   -1.6087074525
 H    1.7630311025    0.3150951336   -1.4014352461
 H    3.3894881398   -2.5529319031    0.0080935177
 H    2.4306052472   -2.8038306685    1.4764749080
 H    1.7366707540   -3.1786899257   -0.1104340287
 H    2.6408326739   -0.3423655117    2.2546718889
 H    2.4782024113    0.9885223098    1.0021185229
 H   -1.1188493048   -1.1142321016    2.0886044494