16

 C    0.1774717819    1.5685625900   -0.2998960839
 C    0.1157445955    0.1267306206   -0.1123459119
 C    0.0674962669   -1.0677640125    0.0360832598
 C   -0.0349437246   -2.4944971381    0.2317132732
 C    0.0326159845   -3.1075752249    1.6769277669
 C   -1.1796292635   -4.0297926709    1.3601251740
 C   -1.4297262050   -3.1862185322    0.1006013496
 O   -2.3558852891   -3.0354456196   -0.6345717799
 H    0.9585960467    1.8450449353   -1.0166491537
 H   -0.7736427620    1.9592662983   -0.6781909508
 H    0.3951166038    2.0831545755    0.6426385366
 H    0.6579468224   -3.0324768930   -0.4303072271
 H    0.9696406316   -3.6015671711    1.9335422831
 H   -0.2009683455   -2.3590892657    2.4351238948
 H   -0.8966334218   -5.0563369777    1.1046225661
 H   -2.0027895317   -4.0657426140    2.0770845731