16

 N    0.0545762029    1.3816473832    0.0311794409
 C    0.0073145105    0.0101931908    0.0419805825
 N   -1.0733442382   -0.6888563432   -0.0158562005
 C   -0.6606998752   -2.0614871231    0.0898668278
 C    0.5136597373   -2.5449957994   -0.8158081985
 O    1.2421284511   -1.4353058042   -1.3048669448
 C    1.2499697399   -0.8549311666    0.0525267275
 C    0.7361326974   -2.2166563677    0.6426334690
 N    1.1616326422   -2.8828242755    1.8105770202
 H    0.8891225232    1.8003527672   -0.3483590311
 H   -0.7998802850    1.8266118972   -0.2744562824
 H   -1.4172200812   -2.8005585387    0.3316748547
 H    0.5045587811   -3.4503658447   -1.4122961952
 H    2.2207566667   -0.4334132859    0.3134725969
 H    0.3941962246   -3.2367147036    2.3663994151
 H    1.8252386228   -3.6268574956    1.6358483380