15

 N    0.0023209007   -1.1761224284   -0.0036260979
 C   -0.0275972161   -0.0214061761    0.0028675565
 C   -0.0245831430    1.4386055118    0.0109828487
 C    1.4160619950    2.0007042298   -0.0017947592
 N    1.4279962452    3.4504254339    0.0062745449
 C    1.3874543241    4.3021507595   -1.0654818440
 N    1.3565756810    5.5476598480   -0.6720585851
 N    1.3734881109    5.5397996772    0.7099595238
 C    1.4138091235    4.2899055963    1.0883159510
 H   -0.5750795189    1.8060045368   -0.8613588660
 H   -0.5556019285    1.7962455931    0.8993033567
 H    1.9651969279    1.6391389607    0.8706773712
 H    1.9457973151    1.6489435582   -0.8901307688
 H    1.3933353157    3.9588963201   -2.0889942226
 H    1.4446411772    3.9350068390    2.1074004306