19

 C   -0.0749579202    1.3832221492    0.1188452872
 O    0.0132222331   -0.0200908309   -0.0134703784
 C    0.6754600805   -0.5319945101   -1.1790240553
 C   -0.0578575165   -0.1253077166   -2.4750600120
 C    2.1575767335   -0.1031014329   -1.2262514879
 C    0.6072059500   -1.9917050601   -1.0319364849
 C    0.5745346995   -3.1981393045   -0.9525451939
 C    0.5358110740   -4.5555014446   -0.8598323591
 C    0.5030946261   -5.7598879175   -0.7801763353
 H    0.9085152410    1.8683547300    0.1821996501
 H   -0.6452900529    1.8533028469   -0.6937719535
 H   -0.6056779952    1.5618314862    1.0571737704
 H    0.0357996688    0.9491560296   -2.6556229006
 H    0.3738967592   -0.6502506913   -3.3306732472
 H   -1.1165792298   -0.3847778346   -2.4032773982
 H    2.6480760709   -0.3467321810   -0.2810375176
 H    2.6740611864   -0.6275059901   -2.0338971330
 H    2.2472717359    0.9712492772   -1.4094651360
 H    0.4728919356   -6.8185992049   -0.7080136346