16

 O    0.0375497169    1.3310790980   -0.5188171444
 C   -0.0049475001    0.0060663379   -0.0534271707
 C    0.0458971034   -0.2500603324    1.4973280478
 C   -1.1912299729   -1.1870242371    1.3725530633
 C   -1.4278577196   -0.5896839355   -0.0132025866
 C   -2.6154170170    0.0454694407   -0.5810081386
 O   -2.0826769455   -1.1878309269   -1.0982912541
 C    0.9424810992   -0.8455393708   -0.7862951429
 N    1.7224373030   -1.4876518933   -1.3479767949
 H    0.9560968208    1.5930810740   -0.6485483515
 H    0.9656679883   -0.6787373567    1.8944450702
 H   -0.1856066546    0.6848661303    2.0108856488
 H   -0.9115793517   -2.2419867350    1.3133806200
 H   -1.9869374135   -1.0674550945    2.1089134845
 H   -3.5662859199   -0.0422244610   -0.0579111365
 H   -2.4996653169    0.9095372624   -1.2302150445