21

 C   -0.3522852535    1.6000655274    0.3507612980
 C   -0.1698672761    0.0990138656    0.1707399424
 C    0.2740198796   -0.3932172552   -1.2147565675
 O    1.5950633471    0.1258655526   -1.4545747929
 C    1.4612130020   -1.0625878763   -0.6627409811
 C    2.2172913778   -2.2723500612   -1.1105135817
 O    1.6341771922   -3.4049689080   -0.4801472957
 C    1.1135115917   -0.6230661318    0.7712820933
 C    2.1565452956    0.1904756225    1.5243004434
 H    0.5001968343    2.1503995536   -0.0556041713
 H   -1.2537641497    1.9449368239   -0.1679392108
 H   -0.4588167221    1.8647145030    1.4080101622
 H   -1.0697059664   -0.4359857427    0.4910891772
 H   -0.3237899773   -0.6264259049   -2.0895401010
 H    2.1658036333   -2.3330092096   -2.2079941516
 H    3.2789238120   -2.1652240510   -0.8345058190
 H    2.2011891074   -4.1635048384   -0.6457852732
 H    0.8021936570   -1.4918754002    1.3572740535
 H    2.5435468361    1.0019185843    0.9027195896
 H    1.7369017983    0.6281989853    2.4361308290
 H    3.0013435408   -0.4402621189    1.8231784671