21

 C    0.1196844804    1.4812195420    0.0047320487
 C    0.1930172867   -0.0558803251   -0.1065241078
 C    0.8113411610   -0.4869320604   -1.4377138513
 C    0.9583065571   -0.6290874094    1.0797139827
 N    2.1536002302   -1.0350389843    0.9719616098
 N    0.1912555492   -0.6170067764    2.2721301917
 C    0.5940700145   -1.0156939896    3.5320944603
 C   -0.4836870160   -0.8767649224    4.5953860918
 O    1.7065179158   -1.4407057835    3.7748173763
 H    1.1240088222    1.9122583227   -0.0535839817
 H   -0.4786838514    1.8955643930   -0.8122185037
 H   -0.3291012528    1.8083026552    0.9485065178
 H   -0.8345949188   -0.4472797574   -0.0558971718
 H    1.8450891370   -0.1418464579   -1.5084025896
 H    0.8240819358   -1.5753586340   -1.5335602762
 H    0.2394316855   -0.0686554119   -2.2720425941
 H    2.5074656222   -1.3551441122    1.8739636416
 H   -0.7575292802   -0.2860712479    2.1873773139
 H   -1.3587686411   -1.4864790659    4.3465029595
 H   -0.0751934038   -1.2067925327    5.5496142499
 H   -0.8147237035    0.1634210182    4.6833591523