17

 C    0.0511078184    1.4681048410   -0.3209832687
 N    0.0340248631    0.0338364850   -0.0325242663
 C   -1.0453985081   -0.5052224038    0.8923890552
 C   -0.1110875959   -1.7329830648    1.0894640488
 C    0.7874820507   -0.4673517552    1.1890802613
 C   -0.3118483023    0.1308535068    2.0918405889
 C   -0.4795810657    1.2676567531    2.9832126382
 O   -0.5291750543   -0.0953123403    3.4634503991
 H    1.0149078933    1.7147645434   -0.7783857635
 H   -0.7278259056    1.6786430103   -1.0611889366
 H   -0.1019752205    2.1370932841    0.5369098246
 H   -2.1027336794   -0.4851205746    0.6264096046
 H   -0.2464810905   -2.3157837930    2.0002769648
 H    0.0463514231   -2.3331972574    0.1934459139
 H    1.8730329187   -0.4029677625    1.2699623429
 H    0.3869208354    1.8412667397    3.3098559321
 H   -1.4272004905    1.8038238880    3.0162554107