19

 C   -0.1173880905    1.5574793142   -0.1204305135
 C    0.0036398563    0.0413203417   -0.0442064592
 C    1.2487497027   -0.5601494515   -0.8156462632
 C    1.9018253436   -0.6476513219    0.5418620323
 C    2.9577283023   -0.2006001505    1.2280218991
 C    2.4824439387    0.2269359530    2.5838249685
 O    1.6328421169    1.4002802650    2.4960079923
 C    0.9965788437    0.1278094149    2.5966008540
 C    0.6019491652   -0.5608699843    1.2995880391
 H    0.8118932612    2.0468012054    0.1785799201
 H   -0.3690939756    1.8682937455   -1.1402745302
 H   -0.9076429187    1.9193396615    0.5452879591
 H   -0.9423016744   -0.4299424372   -0.3248161743
 H    1.0133867144   -1.5324780550   -1.2598315785
 H    1.7295110546    0.0713012223   -1.5671002019
 H    3.9451990240    0.0259454035    0.8449840520
 H    3.0938107823    0.1853820507    3.4803732426
 H    0.4343502549   -0.0313169474    3.5128160446
 H    0.1331062983   -1.5270678698    1.5172751671