17

 C   -0.0917761910    1.6271334101    0.2222223147
 N   -0.3154274148    0.3314023747   -0.4079421058
 C   -0.2085576657   -0.8336089294    0.4673108801
 C   -1.5355397039   -0.3642554910   -0.0174925969
 C    1.3467652523    2.0232243790    0.1248642021
 C    2.3451596178    1.4765145605   -0.6093310051
 O    3.4881992677    2.1953287936   -0.3746029821
 C    3.1050744456    3.1495866249    0.4995187001
 N    1.8587664047    3.1062911866    0.8379186213
 H   -0.7145979496    2.3697824786   -0.2933930823
 H   -0.3987932359    1.6465522315    1.2834265953
 H    0.2590937711   -1.7119731075    0.0323727329
 H    0.0291612715   -0.6613161917    1.5156924613
 H   -2.1866416270    0.1191070525    0.7093061141
 H   -2.0538072110   -0.8922299468   -0.8126653654
 H    2.4173718303    0.6521550996   -1.2948381036
 H    3.8642623580    3.8425495449    0.8269049692