17

 C    0.0066458364    1.4885774759    0.0167712755
 C   -0.0224214334    0.0333423223    0.0097272167
 C   -0.0346403905   -1.1719006474    0.0152767372
 C   -0.0653734827   -2.6045733659    0.0193384549
 C   -0.5110514345   -3.4485073280    1.2142540044
 O   -1.5017816678   -2.7785521047    1.9804754846
 C   -2.4173759810   -2.7940649690    0.8472524784
 C   -1.3452654485   -3.4425325750   -0.0310376460
 O   -1.5670106656   -4.4355107264   -0.9576129748
 H    1.0245577338    1.8645535560   -0.1356209081
 H   -0.6232378464    1.9099052756   -0.7749443846
 H   -0.3516810296    1.8862472311    0.9727868612
 H    0.7310054429   -3.1057138676   -0.5294745264
 H    0.1174671522   -4.1844155016    1.7015890703
 H   -3.2590010505   -3.4669323884    1.0413933473
 H   -2.7670270518   -1.7916565269    0.5811546001
 H   -1.6228350830   -4.0319560702   -1.8313492406