15

 C   -0.0120520850    1.4819724588   -0.0830249347
 C   -0.0142406503   -0.0059336488    0.2001777886
 N   -0.0450902608   -0.5779973694    1.3322417113
 N    0.0235243440   -0.7576169408   -0.9809961911
 C    0.0341851905   -2.1162496801   -1.1512172675
 C    0.0711584934   -2.8271871220   -2.3318278139
 N    0.0669328104   -4.1436525184   -1.9838510286
 N    0.0321079729   -4.3083088407   -0.7460947135
 O    0.0085075065   -2.9506212692   -0.1353721891
 H    0.8881202645    1.7758920720   -0.6347371016
 H   -0.8807477253    1.7686186733   -0.6865889884
 H   -0.0417468028    2.0436151280    0.8510514899
 H   -0.0698019559    0.1139201352    2.0782376197
 H    0.0464222211   -0.2351506882   -1.8412927023
 H    0.0990471868   -2.4914425996   -3.3538701889