23

 C   -0.0863485378    1.5072052184    0.0966533999
 C    0.0698565172   -0.0175924841    0.0171996942
 C    0.7178765335   -0.4622384548   -1.3019822832
 C    0.8522545323   -0.5446343922    1.1913137840
 C    2.2796801663   -0.1861618776    1.6953549348
 C    1.5681957406   -1.0473672229    2.7588402902
 O    0.3462179192   -0.2352391693    2.5635321373
 C    1.0882361268   -2.0226705029    1.6519179031
 C   -0.1100031089   -2.9136479493    1.9175818135
 H    0.8832292513    2.0060774146   -0.0120278122
 H   -0.7401961367    1.8705895062   -0.7023417603
 H   -0.5125604014    1.8045081848    1.0578954919
 H   -0.9297589656   -0.4695581279    0.0820216192
 H    1.7261570654   -0.0452122395   -1.4040667543
 H    0.7969158226   -1.5521328182   -1.3665256700
 H    0.1270196001   -0.1166363132   -2.1556125293
 H    3.1373778195   -0.6143263313    1.1698783214
 H    2.4241274095    0.8578901270    1.9741750889
 H    1.8642927652   -1.2584350000    3.7870595189
 H    1.8913711665   -2.5452902267    1.1209706356
 H   -0.8840818765   -2.3588858918    2.4519944044
 H   -0.5348267848   -3.2930829346    0.9815570876
 H    0.1758170759   -3.7823352648    2.5207659144