17

 C   -0.0683589584    1.4652279677    0.0451802564
 N   -0.1089885021    0.0117634144    0.0468353558
 C    0.6196284040   -0.6351191104    0.8384946484
 O    1.5146030892   -0.1166622190    1.7391042650
 C    2.0084120373   -1.1918198337    2.5323222806
 O    1.7904860900   -2.3738957438    1.8130551828
 C    0.6577524929   -2.1481392760    0.9688512711
 C   -0.6349421587   -2.7280029680    1.5406918575
 H    0.5116594634    1.9003987215    0.8668432334
 H    0.3566863117    1.8125227669   -0.9038455087
 H   -1.0933000905    1.8485153575    0.0917905037
 H    3.0819739932   -1.0557849374    2.6921807878
 H    1.4770716187   -1.1903756603    3.4978241685
 H    0.8772038000   -2.6037555586   -0.0007983066
 H   -0.8653370169   -2.2947979735    2.5190158774
 H   -1.4627240804   -2.5033738198    0.8629334024
 H   -0.5455071135   -3.8116637477    1.6518619144