18

 C   -0.0922020654    1.5047015671    0.1300484892
 C   -0.0095887177    0.0193004184   -0.0081693732
 C    0.0100443187   -0.7101542608   -1.1407931194
 C   -0.0429047685   -0.2779571118   -2.5709867716
 C    0.0994065217   -2.1526086053   -0.8103493635
 O    0.1359874931   -3.0639850137   -1.6078168918
 C    0.1372173654   -2.2866772497    0.7166086359
 C    0.0644335130   -0.8424156569    1.2374539529
 H    0.7762120299    1.8897346077    0.6797815332
 H   -0.1407761448    2.0166807801   -0.8329300984
 H   -0.9764721679    1.7890394857    0.7146954397
 H    0.8444581916   -0.6297633851   -3.1085737368
 H   -0.9027302031   -0.7328332212   -3.0749188019
 H   -0.1090031803    0.8064600871   -2.6832913308
 H   -0.6997498807   -2.9079189839    1.0485340200
 H    1.0522482509   -2.8071662242    1.0139977081
 H    0.9372493457   -0.5673136974    1.8433623710
 H   -0.8097546817   -0.6677485262    1.8776895573