21

 C    0.0403708451    1.5206671440    0.0830240436
 C   -0.0153883164    0.0213196082    0.0051293912
 C    0.8085740391   -0.7100144722   -1.0813187579
 C    0.5897662713   -2.1716723752   -0.5821275024
 C   -0.2856202961   -1.8304376540    0.6344623330
 O    0.4098540460   -0.6885350218    1.2192004271
 C   -1.3287425177   -0.8174141969    0.0680696180
 C   -2.3596965880   -0.3450558322    1.0799219846
 O   -1.9085677827   -1.0755085872   -1.1919163435
 H    1.0738204376    1.8572586845    0.2148077890
 H   -0.3427385114    1.9576189938   -0.8447297193
 H   -0.5527829266    1.9026889245    0.9182532490
 H    0.4208288897   -0.5371436585   -2.0868109352
 H    1.8548906979   -0.3982666404   -1.0396759744
 H    0.0679849944   -2.7965940155   -1.3095191858
 H    1.5161868115   -2.6639025579   -0.2795636272
 H   -0.5373992340   -2.6100877647    1.3551491654
 H   -1.8920224493   -0.1327528646    2.0423036321
 H   -2.8674388723    0.5568532660    0.7225574402
 H   -3.1207914914   -1.1204155377    1.2374499552
 H   -2.7877096569   -1.4417312423   -1.0553142227