16

 C   -0.0348127987    1.5803180336   -0.0135912360
 C    0.0769611238    0.0682120892   -0.0816378129
 C    0.7487337889   -0.6728883011   -1.2601989207
 C    2.1853389907   -0.0866114709   -1.2980907942
 C    2.3438225486   -0.6904413908    0.0959904176
 C    1.2594156581   -1.6695912466   -0.1469148566
 N    1.0444584771   -0.5977935493    0.8619880821
 H    0.9264842176    2.0777431634   -0.1626238967
 H   -0.7330507407    1.9487459747   -0.7735166499
 H   -0.4145863178    1.8811917631    0.9681710468
 H   -0.8994442968   -0.3833368937    0.1269064878
 H    0.2165157080   -0.9093472485   -2.1801138781
 H    2.8101019334   -0.6266856049   -2.0144898591
 H    2.3107026087    0.9904599193   -1.4452244462
 H    3.2364567596   -0.7904370003    0.6990187453
 H    1.1462578795   -2.7279049674    0.0467814610