17

 C    0.0042021328    1.5026543324    0.0457674561
 C    1.5285720407    1.6917435988   -0.0009486559
 O    1.9155106632    1.0698033284   -1.3042617171
 C    1.5890311751   -0.1372697961   -0.6226280250
 C    1.8757405283   -1.6226646678   -0.5986213169
 C    1.4077439799   -1.9156668817    0.6265261212
 C    0.8586515115   -0.5784077784    1.2134695805
 C    0.0968242632   -0.0224358992   -0.0303630222
 C    1.9874094041    0.4013223408    0.7545897179
 H   -0.4489555483    1.8855981179    0.9647923533
 H   -0.4884146334    1.9508491497   -0.8205147424
 H    1.9788404928    2.6728805039    0.1370793924
 H    2.3131256623   -2.2554469979   -1.3551450646
 H    1.3630662327   -2.8756497101    1.1203085238
 H    0.4250670441   -0.6069184503    2.2140798663
 H   -0.7169135004   -0.5997942917   -0.4658728332
 H    3.0176658616    0.3199542212    1.0957565859