15

 O   -0.2089146788    0.0543303200   -0.2024505491
 C   -0.0094222749    1.1682967158    0.2077624302
 C    1.2927601427    1.9392565729    0.0371693066
 C    1.6406248897    2.5688638486    1.2943747978
 C    1.8354470182    3.0424798979    2.3822962584
 C    2.4536666961    1.3520657868   -0.8314885352
 C    1.6188036925    1.5300413249   -2.1213111259
 C    1.5205914234    2.8142250998   -1.2718331045
 O    2.9653766869    2.7329331113   -1.0211334672
 H   -0.7830238707    1.7279465812    0.7755838137
 H    2.0427593105    3.4769103875    3.3292114728
 H    3.1664671027    0.5787218216   -0.5506492599
 H    2.2216059243    1.6519508675   -3.0203257699
 H    0.7394065303    0.9056584014   -2.2653860383
 H    1.0933895872    3.7920965230   -1.4923382192