20

 C    0.1560010375    1.5977391022    0.0623719346
 C    0.0495037015    0.0812904230    0.1256897263
 C    0.8276249979   -0.7465607273   -0.9467399159
 C    1.3071903112   -1.6814639531    0.1664131976
 C    1.2952144689   -3.1593015072    0.1623156832
 N    2.5684634802   -2.4140517947    0.2512907828
 C    0.7991914050   -0.7235683402    1.2532089675
 C    1.8730054105   -0.0154336229    2.0531086871
 O    1.7248814380    1.0548734984    2.5905789441
 H    1.1971512683    1.9287253687    0.0104712430
 H   -0.3612269830    1.9700210832   -0.8291874552
 H   -0.2894585832    2.0675659053    0.9427253186
 H   -1.0048489370   -0.2100012264    0.1309198535
 H    0.2417986358   -1.1917570746   -1.7552262186
 H    1.6484110027   -0.1670560816   -1.3860095771
 H    1.0269927146   -3.7106840302    1.0602750109
 H    1.0500380465   -3.6638796192   -0.7692700415
 H    3.0392964815   -2.4099490629   -0.6506433624
 H    0.1294880655   -1.1841783273    1.9905608738
 H    2.8268995475   -0.5783996830    2.1372037776