21

 C   -0.1490070002    1.5265729059   -0.2924767015
 C   -0.0374925010    0.0528952585    0.0585657288
 O   -1.3251231698   -0.5274566534   -0.0181585844
 C   -1.3338517360   -1.9031488030    0.2931272823
 C   -2.7655529141   -2.3753540953    0.2328944628
 C   -3.3713614577   -2.8811705486   -1.0292632436
 C   -3.1396666804   -3.8547681242    0.1229125880
 C   -2.1136265495   -4.9102335188   -0.0320203281
 O   -2.1773782564   -6.0003549882    0.4816537967
 H    0.8334286989    2.0053620058   -0.2429236193
 H   -0.5458840292    1.6509044695   -1.3039358849
 H   -0.8202019368    2.0370862859    0.4038864731
 H    0.6514566358   -0.4593507379   -0.6347113070
 H    0.3763806131   -0.0746741564    1.0733163201
 H   -0.6981393736   -2.4601639569   -0.4145210884
 H   -0.9173255715   -2.0725172900    1.3009719062
 H   -3.4202550677   -1.8098130477    0.8895430687
 H   -4.3982596444   -2.6322584895   -1.2692015578
 H   -2.7196892184   -2.9849014000   -1.8917816016
 H   -4.0019149728   -4.1766631758    0.6966239049
 H   -1.2561828882   -4.6396790896   -0.6906507950