16

 N   -0.0384731272    1.4888687563    0.0299821863
 C    1.4349161609    1.4978660291   -0.0315042712
 C    2.0707219262    0.7907967959    1.2400441276
 O    1.0199386518    0.3996375924    2.1187140275
 C    0.4148941361   -0.6379688374    1.3487931563
 O    1.4869593097   -1.5086181859    1.0428741334
 C    2.3021992442   -0.5357444582    0.4002707535
 C    1.4327053732    0.0970060093   -0.7018906537
 C    0.0182499845    0.0033898313   -0.0303958721
 H   -0.4108774427    1.8363831067    0.9134929161
 H    1.9166613029    2.3976909712   -0.4164203534
 H    2.8727114247    1.2701118160    1.7981409745
 H   -0.3544221716   -1.1408331169    1.9315420133
 H    3.3021571138   -0.9147601518    0.2070322680
 H    1.5464845091   -0.1130372992   -1.7621970535
 H   -0.8130661956   -0.4958297188   -0.5305010827