20

 O    0.0530175818    1.4640091661    0.0349604188
 C    0.0949304393    0.0518458591   -0.0007104895
 C    0.8741567444   -0.5300542189    1.1864471223
 C    1.0416988129   -2.0484404911    1.0464827902
 C   -0.2739750762   -2.7464324408    0.7676300020
 N   -1.4254245767   -2.3637738395    1.6031358502
 C   -1.4192372874   -2.0082930130    0.1672142248
 C   -1.3471581513   -0.4987184640   -0.0662290139
 O   -2.1569479449    0.1868970797    0.8864873473
 H   -0.7127905866    1.6732567508    0.5891529734
 H    0.6112686965   -0.2275706902   -0.9300378777
 H    1.8504174836   -0.0402127984    1.2400963704
 H    0.3464081888   -0.2915358321    2.1166319044
 H    1.7217380231   -2.2697419489    0.2129175002
 H    1.5016427188   -2.4741228447    1.9461164470
 H   -0.1923153911   -3.8019951099    0.5137470892
 H   -2.0326519029   -3.1589017022    1.7750573277
 H   -2.0952523928   -2.5591234866   -0.4808396052
 H   -1.7633078062   -0.2554210974   -1.0492087325
 H   -2.1041327931   -0.3552605877    1.6893077610