14

 C   -0.0603650281    1.5682158251    0.0412548164
 C    0.1163810686    0.0837515416    0.0046436111
 N   -0.7912920935   -0.8564678756    0.7559018652
 C    0.6580227541   -0.9283750699    0.9865710698
 C    1.1962295963   -1.8440859212   -0.1198247609
 C    0.6904678620   -0.7597624841   -1.1182492654
 O    0.8854020285   -0.5534892320   -2.2803164749
 H    0.8134339416    2.0725033772   -0.3825945954
 H   -0.9354626747    1.8721140614   -0.5428483881
 H   -0.1972440335    1.9248894882    1.0677725816
 H   -1.1991641927   -0.2912590514    1.5027229393
 H    1.0973451639   -0.7354307886    1.9566946256
 H    2.2860202891   -1.9231099288   -0.1649498895
 H    0.7397104684   -2.8338972021   -0.1806969648