20

 C   -0.1920050383    1.4295367077   -0.0591230227
 N    0.0385816367   -0.0035949499    0.0613099677
 C    1.3819335181   -0.4909918177   -0.1910398902
 C    0.8184615972   -0.5218065917    1.2058496657
 C    1.3815275414    0.4052375590    2.1582762307
 C    1.8225233605    1.1634179960    2.9825680618
 C    0.3012960055   -1.8223612820    1.7647408620
 C    1.0096564223   -2.5386615047    2.8863526898
 C   -0.3368266370   -1.9035759945    3.1279362290
 H    0.6569619644    2.0478930311    0.2667882747
 H   -0.4075683737    1.6553390722   -1.1081493398
 H   -1.0665079127    1.7046826364    0.5379409874
 H    1.4599059716   -1.4200655317   -0.7511404134
 H    2.1681606157    0.2360583097   -0.3885026991
 H    2.2261098728    1.8345955627    3.6999903879
 H   -0.1397394898   -2.4401245021    0.9894941309
 H    1.0777912006   -3.6196692418    2.8365735901
 H    1.8736297760   -2.0521393940    3.3253890952
 H   -0.3597722102   -1.0000475084    3.7268247039
 H   -1.2035730712   -2.5445291962    3.2434587682