15

 O    0.0251819486   -0.0220161866   -0.0044997936
 C    0.0161858288    1.2089860979    0.0067653917
 O    0.8756346892    2.1106027674    0.0137127395
 C   -1.4161058549    1.8161975841    0.0147838468
 C   -2.5462062329    1.9011410856   -1.0606665097
 C   -2.9362161656    2.9275445712    0.0275924389
 C   -2.5429039751    1.8808080474    1.0951039388
 N   -1.4780433692    3.3920728970    0.0297303940
 H   -1.0734406410    3.7999193192    0.8708662947
 H   -1.0759562181    3.8156609141   -0.8048074474
 H   -2.2683584461    2.2914509842   -2.0427328500
 H   -3.1796794254    1.0208767926   -1.1357658093
 H   -3.7266087372    3.6776231361    0.0358790737
 H   -3.1761735735    0.9992692928    1.1555307517
 H   -2.2620408475    2.2525349170    2.0835025503