18

 C   -0.1055626440    1.3862899893   -0.0330754089
 N    0.2163894520   -0.0307452442   -0.0500772148
 C    0.0128701260   -0.7664699858    1.1839560350
 C    0.0919124655   -0.7083038878   -1.2296257417
 N    0.0532478864   -2.0410902058   -1.3297251971
 N   -0.0058393905   -2.1940495766   -2.6580215812
 C   -0.0623252862   -3.4897681190   -3.2969647292
 N   -0.0193361151   -1.0633496801   -3.3326539191
 N    0.0379577842   -0.0970742459   -2.4474259409
 H    0.4318006194    1.8642965936    0.7915552639
 H    0.2050347459    1.8413952777   -0.9731078412
 H   -1.1828442837    1.5708329451    0.1028710474
 H   -1.0532831644   -0.9187965836    1.4155536154
 H    0.4892470722   -1.7451530297    1.1122726399
 H    0.4679836423   -0.2097308949    2.0082487563
 H   -0.9459390602   -4.0348455433   -2.9562171849
 H   -0.1162287990   -3.3196878682   -4.3715619214
 H    0.8326055393   -4.0663021406   -3.0506699675