19

 C   -0.1048213551    1.4782557839   -0.0435955560
 C   -0.2214863631   -0.0236080717   -0.2804475824
 N    1.0122546778   -0.5453711307   -0.8795522831
 C    0.9752407423   -1.9511528755   -1.1142425776
 C    0.3769036372   -2.5533525502   -2.3597033794
 O   -0.1390574959   -1.6390580524   -3.2657400204
 C    1.9046933511   -2.5842200233   -2.1466685147
 C    2.7079250710   -1.7546643247   -2.9929617269
 N    3.3330959884   -1.0853128754   -3.7012295851
 H    0.7544045069    1.7041045650    0.5941816903
 H    0.0254301491    2.0152942881   -0.9898738460
 H   -1.0091594879    1.8648804006    0.4351974406
 H   -0.3691080407   -0.5401273884    0.6769357377
 H   -1.1080758116   -0.2407411445   -0.8985477812
 H    1.1977760275   -0.0554840471   -1.7493925748
 H    0.8645660040   -2.5320901622   -0.2020296323
 H   -0.1327081480   -3.5150320618   -2.3057934204
 H    0.1499985509   -1.8720325725   -4.1554634534
 H    2.3564748461   -3.5359466074   -1.8885619648