12

 O    0.0915883671    1.3327897429    0.0083213886
 C    0.0558790084   -0.0196092684    0.0045623373
 C    0.0240146178   -0.8125239772   -1.1145837062
 N   -0.0062652337   -2.1261266911   -0.6792364655
 C    0.0051633848   -2.1894782902    0.6723514174
 C    0.0442556173   -0.8856934644    1.1490987292
 C    0.0691170195   -0.4390657746    2.4869752425
 N    0.0912933031    0.0026296382    3.5595101055
 H    0.1085722005    1.6414860144    0.9220253698
 H    0.0205454733   -0.5560782658   -2.1593000476
 H   -0.0332162170   -2.9251579478   -1.2879668544
 H   -0.0143029310   -3.1244435059    1.2062912735