18

 C   -0.0873576938    1.5027711710    0.0330279081
 C   -0.0083975159    0.0018285007   -0.0230088262
 C    0.1385646848   -0.6796607308   -1.2168263038
 C    0.1986265240   -2.0827165322   -1.1482986574
 N    0.3853743094   -2.8543084778   -2.2641901052
 N    0.1142914395   -2.7286072405    0.0186132058
 C   -0.0210094917   -1.9735058467    1.1162917099
 C   -0.1065665075   -2.7120733136    2.4250443431
 N   -0.0885460205   -0.6430745229    1.1580855308
 H   -0.0216985419    1.9534555368   -0.9601319218
 H   -1.0267985128    1.8115862388    0.5024082883
 H    0.7217611930    1.8973498101    0.6558910710
 H    0.2083972836   -0.1572146951   -2.1643237509
 H    0.1526774230   -2.4654234143   -3.1625396578
 H    0.2028403873   -3.8381741423   -2.1426039662
 H    0.8094044332   -3.2875776667    2.5946347221
 H   -0.2518784031   -2.0105335902    3.2465570263
 H   -0.9323639005   -3.4300638143    2.4025293639