18

 C    0.1187703862    1.1695746676    0.3385491340
 O    0.0630792596   -0.2076693105    0.0333181863
 C    0.5801795743   -0.5443441166   -1.2337513779
 C    2.1160599031   -0.7211991632   -1.2190744252
 O    2.3847900138   -2.1153747953   -1.0653860403
 C    1.1768014618   -2.8031487804   -0.7967801977
 C    0.1127758113   -1.9823683071   -1.5560886995
 C   -1.2682707515   -2.2685517639   -1.1970757476
 N   -2.3625249757   -2.5307898482   -0.9354843512
 H    1.1514940734    1.5447035928    0.3905782842
 H   -0.4318278889    1.7663611315   -0.4038439335
 H   -0.3496740364    1.2972266408    1.3163218669
 H    0.2492961017    0.1801218490   -1.9900147427
 H    2.5819038497   -0.3816852775   -2.1515443703
 H    2.5488357446   -0.1530904147   -0.3862348872
 H    1.2737451217   -3.8275780251   -1.1626120847
 H    0.9419332985   -2.8208155695    0.2760349152
 H    0.2409766829   -2.1580369899   -2.6297857388