16

 C   -0.1223506931    1.5932347265    0.1888752017
 C    0.0106906077    0.1208735550    0.0135673632
 C    0.1393576706   -0.6443906749   -1.1173779262
 O    0.1670492319   -0.1811116627   -2.4032858905
 C    0.2119661048   -2.0194620912   -0.7328789684
 O    0.4097775519   -3.1023128838   -1.5737435228
 C    0.1432966681   -2.0530828255    0.6383517873
 O    0.1944709887   -3.0840168117    1.5182410721
 N    0.0063653442   -0.7762850576    1.0891730047
 H    0.6489102094    2.0085359197    0.8514750649
 H   -0.0148741049    2.0772284402   -0.7847884803
 H   -1.0978292466    1.8894089657    0.5986188354
 H    0.5137831735   -0.8956205786   -2.9496055074
 H   -0.4447064321   -3.3824835030   -1.9224537548
 H    0.4285786632   -3.8702154664    1.0112935839
 H   -0.0186714973   -0.5218385719    2.0605275573