16

 O    0.1199460920    1.3726041277    0.0789317111
 C    0.0515077325   -0.0094295000    0.0338513782
 C   -0.3266300163   -0.7703771731   -1.2020944482
 C   -1.2431241898   -0.8226067396    0.0256155040
 O   -1.0937027030   -1.9425725531    0.8475891706
 C   -0.0533325293   -1.6410312128    1.7960846928
 C    0.9341689900   -0.7093643084    1.0654967374
 C   -2.5283476460   -0.1871885651   -0.0089662133
 N   -3.5397956074    0.3735326133   -0.0598680608
 H   -0.5215256387    1.7505950842   -0.5331972643
 H   -0.6885631467   -0.2003636222   -2.0530577348
 H    0.1892365939   -1.6930885346   -1.4467762275
 H   -0.4859052192   -1.1387526249    2.6716090858
 H    0.3803921565   -2.5917263663    2.1127090486
 H    1.7437909570   -1.2682409350    0.5880984032
 H    1.3720507844    0.0349704599    1.7329433074