17

 O   -0.6288453848    0.3564972122    0.1466144258
 C    0.4651794205    0.5346862380   -0.3152168832
 C    1.3256633565    1.7622820058   -0.0287066785
 O    2.6458273056    1.3082471519    0.2382367645
 C    3.5881041893    1.9913150795   -0.5880266971
 C    2.8136636376    2.3839715955   -1.8415288209
 C    1.4303640440    2.7457225056   -1.2491768152
 C    0.3259584521    2.6791033446   -2.1920734163
 C   -0.5836737066    2.6152274745   -2.9747769283
 H    0.9609696429   -0.2077970377   -0.9798931744
 H    0.9036632872    2.2735496380    0.8439651454
 H    3.9790981147    2.8790475538   -0.0675000200
 H    4.4216785729    1.3105584111   -0.7797299327
 H    3.2597114955    3.2173304278   -2.3882005622
 H    2.7188947848    1.5336092640   -2.5225068014
 H    1.4832262604    3.7617249722   -0.8404965458
 H   -1.3941871026    2.5578027131   -3.6587393898