20

 C   -0.0145830201    1.5705904861   -0.0549045440
 C    0.0714887946    0.0466310806   -0.0118517577
 C    0.8180383450   -0.5625434954   -1.2218245925
 C    1.4322233451   -1.8456586994   -0.6649958601
 O    2.6323648643   -2.2300315024   -1.2842860716
 C    1.6529649190   -1.5060878382    0.8093374268
 O    2.4331911309   -2.0937277612    1.5378187247
 N    0.8483072519   -0.4567650004    1.1276804671
 C    0.6598935586   -0.0119669783    2.4909336474
 H    0.9855588570    2.0157383586   -0.0642781714
 H   -0.5368319376    1.8820971452   -0.9647250263
 H   -0.5670346518    1.9748075838    0.7985235130
 H   -0.9522137026   -0.3584429128    0.0405862112
 H    0.1585414445   -0.7179364471   -2.0776782166
 H    1.6332794879    0.1016640796   -1.5276739938
 H    0.6928634864   -2.6663300488   -0.6989727959
 H    3.1713305074   -2.6128182299   -0.5760294218
 H    1.3126780360   -0.6161545175    3.1236255519
 H    0.9246391266    1.0434098113    2.6121892621
 H   -0.3810036631   -0.1477019237    2.8117821876