16

 N    0.1541251923    1.2630398697   -0.4302172644
 C   -0.0522129720   -0.0741330467   -0.1329822960
 C   -1.1197063003   -0.7821765443    0.3396593023
 C   -0.6999933956   -2.1532089473    0.3358026072
 C    0.5743607250   -2.1833094480   -0.1334035207
 O    0.9787965818   -0.8966911979   -0.4307476805
 C    1.5259635182   -3.2681148111   -0.3650437754
 C    2.7031044921   -3.1438788414   -1.2386784006
 O    2.8580371543   -3.1374651342    0.1786911169
 H    1.1229626623    1.5400538620   -0.3357788152
 H   -0.4512497542    1.8808925373    0.0918134272
 H   -2.0711165203   -0.3834264663    0.6518251871
 H   -1.2768976648   -3.0088447259    0.6520519893
 H    1.0884992907   -4.2562528098   -0.2283947678
 H    3.0851976760   -4.0251103553   -1.7539720069
 H    2.8936745945   -2.1933995409   -1.7335934823