23

 C   -0.1379728179    1.5338208271    0.1630739940
 C   -0.2050950727    0.0151331747   -0.0530460749
 C    0.6565624022   -0.4466515700   -1.1981986267
 C    0.3471192396   -0.1775952337   -2.6821126713
 C    0.8626324173   -1.6028253603   -3.0487285779
 C    1.1876227520   -1.8612767148   -1.5731931364
 C    2.0991447949   -0.7853542720   -1.0461540228
 O    3.0615301017   -0.1583226922   -1.8375410496
 C    4.2437909606   -0.9210705442   -1.9682243199
 H    0.8846071009    1.8526082833    0.3895515223
 H   -0.4615915878    2.0742719580   -0.7326945561
 H   -0.7824766924    1.8443140613    0.9913784653
 H    0.1010622290   -0.5016667870    0.8653725925
 H   -1.2460190924   -0.2824996443   -0.2387553554
 H   -0.7248261617   -0.0644392303   -2.8640353007
 H    0.8775574120    0.6642314078   -3.1329580925
 H    0.0660365596   -2.2491157486   -3.4229928147
 H    1.7078940373   -1.6509587808   -3.7412971318
 H    1.0564260200   -2.8040281628   -1.0523298377
 H    2.4193489531   -0.9418888929   -0.0124967601
 H    4.7365719833   -1.0735962998   -0.9954390832
 H    4.0448862452   -1.9074413967   -2.4111229267
 H    4.9191056564   -0.3630698118   -2.6213197758