17

 O   -0.1361376813    0.0246727101    0.0416724671
 C    0.0069396583    1.2215180102   -0.0478424287
 C    1.3005934134    1.9086250593   -0.0025757744
 C    1.4383708285    3.3779367978    0.3210374634
 C    1.7965533790    2.9562177590   -1.0628718255
 C    3.1214375350    2.2295351809   -1.0779777091
 C    4.0234391568    2.0190378814   -2.2068392841
 O    4.3775281729    2.8830443304   -1.1144554098
 C    2.6725838447    1.2236946115   -0.0013737024
 H   -0.8659906119    1.9004648236   -0.1909957754
 H    0.5061045155    3.9279746367    0.4094567715
 H    2.2087341567    3.6815467191    1.0243583682
 H    1.2573741617    3.3165883489   -1.9307543483
 H    4.5924775716    1.0928248426   -2.2759450743
 H    3.8364606641    2.5217639182   -3.1552540144
 H    3.2204888318    1.2613062412    0.9440737425
 H    2.6268743632    0.1927870693   -0.3569762163