18

 C    0.0566505324    1.5117536475   -0.1460516475
 C   -0.0151049705    0.0190169818    0.1088257402
 C   -1.1774057562   -0.6666613030   -0.5848879667
 N    1.2874023440   -0.6813124973    0.1203236102
 C    0.4912380452   -0.6010906674    1.3675688028
 C    1.1767730965    0.1240326111    2.5037514988
 O    2.3211737326   -0.5936005990    2.9363467260
 H    0.9695264819    1.9478518099    0.2610674183
 H    0.0489458468    1.7081161388   -1.2242610401
 H   -0.8053138076    2.0265828547    0.2927219302
 H   -1.1018149438   -0.5513715410   -1.6726285111
 H   -1.2064700962   -1.7370171602   -0.3563697114
 H   -2.1337311611   -0.2314364898   -0.2741889296
 H    1.1940893428   -1.6047957089   -0.2956388958
 H   -0.0097441877   -1.5172299704    1.6785986922
 H    1.4417558329    1.1479288331    2.2068860385
 H    0.5080223817    0.1925068650    3.3685364515
 H    2.8512133960   -0.7333884349    2.1419917734