12

 C    0.0660991751    1.4160878416    0.0284602510
 N   -0.1184331559   -0.0188637018   -0.1230810039
 C    0.5617093799   -0.6906509393   -1.0976023999
 N    0.7125598024   -2.0169175820   -1.1200870607
 N    1.3772666561   -2.1596031933   -2.2701569450
 N    1.6315012933   -1.0418644650   -2.9137877180
 N    1.1214592894   -0.0802743236   -2.1809255635
 H    1.0784439254    1.6917872512    0.3560293095
 H   -0.1238984968    1.9084660587   -0.9270271194
 H   -0.6556729375    1.7850913128    0.7603035994
 H   -0.2397556942   -0.5483049411    0.7260057941
 H    1.6673080528   -3.0596558582   -2.6199151634