15

 C    0.1373062552    1.3698375556    0.1462677901
 C   -0.0129289098   -0.0955591347   -0.0461222975
 N   -0.3151309923   -0.7418891822   -1.1273639054
 C   -0.3098262320   -2.0792783150   -0.7485228149
 C   -0.0070226389   -2.1807039416    0.5665710219
 C    0.1660279627   -3.2880324004    1.5440512598
 O    1.5074648925   -3.4444292554    1.9914614241
 O    0.1862127042   -0.8995085582    1.0338790308
 H    1.1494576893    1.6226996595    0.4790010204
 H   -0.0612283590    1.8714936245   -0.8009179219
 H   -0.5612145409    1.7426202819    0.9025475260
 H   -0.5259921713   -2.8696830437   -1.4499411763
 H   -0.5165969598   -3.1440847530    2.3962436479
 H   -0.1088097568   -4.2276068404    1.0574095008
 H    1.7727067268   -2.6133638471    2.3991862941