19

 O    0.0688917239    1.2533227697    0.5014441537
 C   -0.0321523480    0.1169631439   -0.3431912769
 C   -1.3865225386   -0.5576071861   -0.2076076988
 C   -1.5655465259   -2.0641804682   -0.1238183724
 C   -0.4167091586   -3.0578255796   -0.1099334673
 O    0.5432166249   -2.7823625979    0.9101136715
 C   -0.0728965323   -2.4845701854    2.1290889232
 O   -0.7468836465   -1.2454048825    2.0925208346
 C   -1.7518437902   -1.2052365534    1.1047732435
 H    0.0206118907    0.9108027558    1.4018854921
 H    0.0954168889    0.4838834881   -1.3667633754
 H    0.7749092966   -0.5969342296   -0.1442871499
 H   -2.2014987849   -0.0243629020   -0.6894252397
 H   -2.4695104270   -2.4623915098   -0.5750800224
 H   -0.8293894054   -4.0672573169    0.0474541174
 H    0.1385782035   -3.0640495580   -1.0522440486
 H   -0.7790160386   -3.2868261369    2.4072047626
 H    0.7146461367   -2.3895339956    2.8783741274
 H   -2.7428061793   -1.0552073256    1.5247821954