18

 C   -0.0795082456    1.4163934519   -0.0141318147
 C   -0.0224319579   -0.0367096711   -0.0072319495
 C    0.0247126902   -1.2411633476   -0.0069892510
 C    0.0966701141   -2.6693350083   -0.0165412302
 C    0.5956547563   -3.6353788308    1.0969203765
 C    0.0375987636   -4.5242018357   -0.0354306229
 N   -1.1347634902   -3.5705361571   -0.2317664763
 C    0.7984340259   -3.6288291294   -1.0578398982
 O    0.3840804061   -3.6010056633   -2.3741692645
 H    0.5314603542    1.8339312312   -0.8219971267
 H   -1.1066942311    1.7689386253   -0.1588466961
 H    0.2851010776    1.8342271104    0.9307599311
 H    1.6706594362   -3.6619606788    1.3029643896
 H    0.0065500797   -3.6179587831    2.0169307684
 H   -0.1027566964   -5.6046431639   -0.0526605598
 H   -1.7161432208   -3.5521524195    0.6111257463
 H    1.8884941265   -3.6541210370   -1.0261712901
 H   -0.5842367083   -3.5646080234   -2.3298427719