18

 C   -0.1070913041    1.5535388017    0.0086444356
 C    0.0893847910    0.0420118295    0.0236177025
 C    0.9007626400   -0.5136159202   -1.1900758024
 N    1.6929031050   -1.5599163273   -0.5414413340
 C    1.6869241233   -1.2719045518    0.7992922742
 N    0.8347398758   -0.4111685168    1.2202535205
 C    2.6793074437   -1.9827284723    1.6801620117
 N    2.4872636543   -1.7455381393    2.9966440987
 O    3.5555372649   -2.6830760962    1.2025299382
 H    0.8595705266    2.0675637242   -0.0014717355
 H   -0.6721514124    1.8651376742   -0.8763904868
 H   -0.6547226660    1.8770722379    0.8978041061
 H   -0.8976977738   -0.4421558715    0.0521508598
 H    0.2630635203   -0.9175910838   -1.9803525011
 H    1.5418713787    0.2662763971   -1.6286288798
 H    2.5462946116   -1.9242350885   -0.9383146047
 H    1.7643881644   -1.0992085700    3.2716059354
 H    3.1364170765   -2.1183021571    3.6680797015