14

 O    0.0020575837    1.4306275710    0.1363866560
 C    0.0531534839    0.0279500076   -0.0142518739
 C   -1.4206239330   -0.4946596065   -0.1375766567
 N   -1.4089556422   -1.5479360648   -1.1828881644
 C   -0.2788658468   -1.3599343717   -1.9406019894
 N    0.2080486915   -1.7954271997   -3.0649285333
 O    1.4721819507   -1.1730923803   -3.1223438366
 N    1.7051598507   -0.3767180248   -2.0232904137
 C    0.6343836679   -0.4825953476   -1.3062500873
 H    0.9052109397    1.7638300254    0.1703250584
 H    0.5567122908   -0.4418693810    0.8430676875
 H   -1.7945925286   -0.8985324610    0.8053493099
 H   -2.0387266150    0.3641306452   -0.4257855337
 H   -2.2807213632   -1.7695179419   -1.6396054129