19

 C   -0.0124442326    1.4509755901    0.0255735448
 C    0.0418615208   -0.0576802922   -0.0115880104
 C   -0.1164055796   -0.7674104127   -1.3549354506
 C    0.0447790754   -2.2390222349   -0.9884730781
 O   -1.1627205034   -2.6800912647   -0.3016437309
 C   -0.5525906466   -2.3155213363    0.9495742037
 C   -0.4577579425   -0.7971146320    1.2258317202
 C    1.0308971097   -0.8004814486    0.8430105824
 C    0.8661057874   -2.2577116106    0.3553243827
 H    0.7311532069    1.8859672817   -0.6523165375
 H   -0.9980588800    1.8188387155   -0.2808577404
 H    0.1878399618    1.8341333716    1.0314487365
 H   -1.0879172498   -0.5971819654   -1.8293279032
 H    0.6698620446   -0.4334470686   -2.0451872816
 H    0.3099167381   -2.9109975391   -1.8072842801
 H   -0.8565826866   -2.9457579630    1.7874740857
 H   -0.9593769789   -0.2576186003    2.0209902055
 H    1.8822363048   -0.3617378416    1.3467422586
 H    1.6224766606   -3.0196231888    0.5222433527