18

 C   -0.2105760848    1.4902084237    0.0453312209
 C    0.0132912336   -0.0318312783   -0.0108621989
 C    0.8257389097   -0.4587152366   -1.2397365149
 N    2.2084821386   -0.0274583800   -1.0838053391
 C    2.9018932147   -0.2391704412    0.0777855350
 O    4.1103755077   -0.1809806968    0.1792246852
 N    2.0925219175   -0.5203650847    1.1845396602
 C    0.7013107797   -0.5084493083    1.2557558972
 N    0.0111539917   -0.8185347099    2.2799602295
 H    0.7391353122    2.0322722855    0.0542027747
 H   -0.7815288624    1.8211871042   -0.8281167352
 H   -0.7707804457    1.7541706586    0.9449814354
 H   -0.9577422600   -0.5311054982   -0.0374465468
 H    0.7592386278   -1.5490047568   -1.3732377677
 H    0.4171623658    0.0090072839   -2.1399101877
 H    2.8021554630    0.0268214025   -1.8964727562
 H    2.6226099394   -0.7062459815    2.0240911874
 H    0.6019278016   -1.0823937462    3.0718574211