16

 O    0.3362940125    0.0696939311   -0.5638470320
 C    0.1507261311    1.1679384148   -0.1392698053
 C   -1.0495590134    1.9354137695    0.4459808530
 N   -0.2256802798    3.1858735359    0.5146916705
 C    0.4588199253    3.3505326669    1.8429137461
 C    1.7197589962    2.6738960523    1.2982046989
 C    3.1370065388    2.9113064436    1.5677780838
 O    2.4794955460    1.7004541802    1.9755802497
 C    0.9951487893    2.4513345406   -0.0348574952
 H   -1.8894308784    2.0257924445   -0.2515139637
 H   -1.4307368523    1.5678935796    1.4053816108
 H    0.5741266150    4.4023322270    2.1192741960
 H   -0.0214705399    2.8154853549    2.6694296641
 H    3.8668063433    2.7974294726    0.7677157480
 H    3.4265466044    3.5796374632    2.3775664809
 H    1.4711238319    2.8109806032   -0.9508188656