23

 C    0.1254774338    1.1205155160   -0.6397470058
 C    0.6022227330   -0.2290814040   -0.1481333725
 C    1.9370739916   -0.4136380614    0.5320523996
 C    0.6599060019   -0.6220213076    1.3173261851
 C    0.3267013767    0.3911144726    2.4022042946
 C    0.1902707114   -2.0186453379    1.6637635510
 C   -1.3093126798   -2.2403435629    1.5973375765
 C    1.0749429382   -3.1915905246    1.5623170330
 O    0.8091329585   -2.5943386806    2.8310918347
 H    0.4472401153    1.9341636744    0.0158143810
 H    0.5250431704    1.3289328126   -1.6384823247
 H   -0.9677079362    1.1602234614   -0.7065368365
 H    0.3261921768   -1.0484890139   -0.8095228468
 H    2.5513937103   -1.2602414987    0.2494038117
 H    2.5080560968    0.4793519316    0.7683297396
 H    0.7517473173    1.3732938218    2.1839747277
 H   -0.7539575036    0.5196108457    2.5278067476
 H    0.7380907142    0.0522166501    3.3580214038
 H   -1.6808220106   -2.0883413187    0.5789613635
 H   -1.5594859513   -3.2556362304    1.9144925400
 H   -1.8375664251   -1.5426806691    2.2544135738
 H    0.6322055730   -4.1758063164    1.4058779829
 H    2.0980205772   -3.0915728400    1.2079929102