17

 C    0.0656806798    1.4989890866   -0.0861166892
 C   -0.0608107140    0.0027503727    0.0706817047
 C   -1.2907712184   -0.6528155621   -0.5565964277
 O   -1.8412821991   -1.7130778382    0.2005094953
 C   -0.8887376096   -2.6683661238    0.6432655248
 C    0.0390085255   -2.0123618431    1.6633030474
 O    0.2920344257   -2.4816074249    2.7466324723
 C    0.5923661048   -0.6933195187    1.2063129122
 O    1.1477232672   -0.7360927727   -0.1236008884
 H    1.0216482328    1.8439855158    0.3143717820
 H    0.0183014554    1.7780345752   -1.1446148434
 H   -0.7463064463    2.0144234676    0.4362492754
 H   -2.0941424892    0.0821660668   -0.6588816418
 H   -1.0082704960   -0.9969979162   -1.5652644034
 H   -1.4385530545   -3.4762178820    1.1285544615
 H   -0.3017204417   -3.0756537822   -0.1947110191
 H    1.1689179576   -0.1375106807    1.9434503576