20

 O   -0.1238077408    1.4884526706   -0.1991556751
 C    0.0039887521    0.0846469615    0.0074060016
 C   -1.4194450401   -0.4679347244    0.1022354761
 C   -1.5357533052   -1.8457264493    0.7793072659
 C   -0.3415310041   -2.7979472231    0.5514005564
 C    0.1950341716   -2.8366389257   -0.8588925392
 N   -0.0827071936   -3.7810641224   -1.6534669484
 O    1.1247166137   -1.8699934355   -1.1805309703
 C    0.7772684693   -0.4857858670   -1.1953523326
 H    0.7571449943    1.8772974285   -0.2057366385
 H    0.5542227772   -0.1180599345    0.9396510064
 H   -2.0224958215    0.2641707106    0.6472036600
 H   -1.8327604420   -0.5100801217   -0.9130083828
 H   -1.6517775212   -1.7172966394    1.8610666590
 H   -2.4506976509   -2.3324296673    0.4276892848
 H    0.4879320292   -2.5125798013    1.2071406449
 H   -0.6388411620   -3.8144890744    0.8157006077
 H    0.3994063159   -3.6341568243   -2.5435004578
 H    0.1902774212   -0.2610183027   -2.0973862686
 H    1.7382795468    0.0324212220   -1.2849895794