21

 C    0.0234140690    1.5614399128   -0.0105909889
 C    0.0296462640    0.0225026838    0.0033007380
 C    0.7350612956   -0.4528263858    1.2584793537
 O    1.7177118875   -1.1475947263    1.2902166237
 C   -1.3931543516   -0.5703616522   -0.0377862319
 C   -2.2203409136   -0.1788166324   -1.2963386858
 C   -3.0463840377   -1.4136038872   -1.5667185690
 C   -2.6232189635   -2.4639446385   -0.8668172054
 C   -1.4371667530   -2.1258417844    0.0020350631
 H    1.0417306010    1.9618015306   -0.0085518590
 H   -0.4853011971    1.9393669512   -0.9012730540
 H   -0.4982311001    1.9614857289    0.8666946752
 H    0.6039394184   -0.3574458442   -0.8497655647
 H    0.2561074877   -0.0962372450    2.2038457285
 H   -1.9392622360   -0.2006714031    0.8402433169
 H   -2.8287045949    0.7176127710   -1.1331116073
 H   -1.5693671905    0.0441505826   -2.1553016573
 H   -3.8584658485   -1.4232319299   -2.2853894774
 H   -3.0370225467   -3.4645789464   -0.9250291711
 H   -0.5154355303   -2.5659949556   -0.4057802440
 H   -1.5281674296   -2.5119987201    1.0239050767