21

 O   -0.1082718247    1.4977047854   -0.2648397443
 C    0.0301838077    0.1173019630    0.0400390664
 C   -1.3656019358   -0.4864022072    0.0312986961
 C   -1.9747804823   -0.5990730560   -1.3960242664
 C   -1.5863369756   -2.1021047712   -1.4211402700
 C   -1.4254767743   -2.0462946338    0.1246463450
 C   -0.2916176959   -2.8320145005    0.7926239734
 C   -0.5596052100   -4.3193920485    0.7487648292
 O    0.1612777096   -5.1396149878    0.2420529210
 H    0.7695536719    1.8887161187   -0.2983026430
 H    0.6715333817   -0.3870237334   -0.7011045839
 H    0.4976877812   -0.0262978346    1.0276621565
 H   -1.9705206925    0.0508618763    0.7675555328
 H   -3.0577016973   -0.4520162580   -1.3937725432
 H   -1.5376431076    0.0525014761   -2.1549572723
 H   -2.3134702349   -2.8104699883   -1.8250427931
 H   -0.6289271048   -2.2749052071   -1.9221108992
 H   -2.3734352586   -2.3274424494    0.5988262359
 H    0.6767134825   -2.6431829467    0.3206622376
 H   -0.2238497175   -2.5417880899    1.8517765189
 H   -1.5206218228   -4.6222660670    1.2297800025