12

 N   -0.2231832450    1.3044242800    0.0109161870
 C   -0.0349726249    0.0642400323    0.0028378488
 O   -1.1523216517   -0.7486033592    0.0090842008
 C   -0.9596895885   -2.0857571042    0.0004075331
 O    0.0977684681   -2.6524837870   -0.0122452535
 C   -2.3174717304   -2.8214659973    0.0092575796
 O   -3.3666047433   -2.2282496956    0.0219507626
 C   -2.2025126955   -4.2598042094    0.0009570562
 C   -2.1563833042   -5.4621498118   -0.0055623134
 H    0.6714431299    1.7925772474    0.0047276438
 H    0.8985657337   -0.4979964277   -0.0091272346
 H   -2.1084020583   -6.5245634674   -0.0116338904