18

 O   -0.2704197277    1.5099127551    0.0191957398
 C   -0.0573650349    0.1290815512   -0.0103584594
 C   -0.3914326438   -0.7290356010    1.1911162745
 C   -1.1841482117   -0.0654266103    2.3154042670
 C   -2.6741023647   -0.1180095641    1.8558304919
 C   -2.6122854287   -0.1098796219    0.2971410265
 C   -1.2702838844   -0.7520916011   -0.0540538441
 C   -3.3216403382   -1.3379121749    2.3442422060
 N   -3.8268273033   -2.3051535570    2.7268457955
 H    0.4643996654    1.9181887760    0.4892845862
 H    0.7944875357   -0.1826836657   -0.6140038967
 H    0.2624151283   -1.5586878166    1.4334901378
 H   -1.0364321262   -0.5712121912    3.2709102974
 H   -0.8943230020    0.9821899959    2.4420612378
 H   -3.2444023819    0.7335370398    2.2404847546
 H   -3.4483307184   -0.6563432053   -0.1421557264
 H   -2.6582711088    0.9225778171   -0.0572625149
 H   -1.2632499147   -1.5990391059   -0.7295814434