21

 C    0.0473191373    1.3761858204   -0.2289902798
 C    0.0550383408   -0.1311155081    0.0820041379
 C    0.7371822509   -0.4729439514    1.3739228655
 C    0.1816072544   -0.9640367043    2.4864030454
 C    1.1647403912   -1.2206695882    3.6060680265
 C    2.5248784108   -0.9427258982    2.9410870526
 C    3.1733306641   -2.0852527326    2.1260612145
 O    2.9818741651   -1.3874020370    0.8752999617
 C    2.2326422874   -0.3360165182    1.5472929424
 H    1.0631189038    1.7780813590   -0.2979068035
 H   -0.4508920305    1.5715237852   -1.1834675905
 H   -0.4805558650    1.9339970842    0.5509527622
 H   -0.9747921456   -0.5048463449    0.1029260059
 H    0.5661174538   -0.6617180293   -0.7321802487
 H   -0.8789287167   -1.1726094452    2.5959114938
 H    0.9835906850   -0.5590241876    4.4636608908
 H    1.0939987089   -2.2457876568    3.9940570452
 H    3.2244191710   -0.3981264062    3.5752418713
 H    4.2350573364   -2.2775700656    2.3192557936
 H    2.6260601724   -3.0372072219    2.1570225584
 H    2.6344253647    0.6487140967    1.2819170049