17

 C   -0.0416109623    1.5841683380    0.1367707933
 N    0.1173678160    0.1484232915    0.1682034350
 C   -1.0853333299   -0.7164262766    0.2127565169
 C   -0.3989533921   -1.5841140685    1.2831251663
 O    0.5448196850   -2.5484151026    0.7605695590
 C    1.6634539490   -1.6534405077    0.9690712507
 C    2.5042113651   -1.4680947497   -0.2120723319
 N    3.2042998926   -1.3171250386   -1.1185234423
 C    0.6991975570   -0.4971543585    1.3498664441
 H    0.9391851964    2.0669623159    0.1847524410
 H   -0.5083289868    1.8764934854   -0.8090708166
 H   -0.6657338665    1.9785295119    0.9607542995
 H   -1.9744347861   -0.2061224053    0.6164201473
 H   -1.3399186814   -1.2054808123   -0.7324636984
 H   -0.9833820066   -1.9816685949    2.1129987189
 H    2.2861209286   -2.0026836773    1.8033121657
 H    0.9478865319    0.1325923195    2.2062342613