18

 C   -0.0826698515    1.5368899744    0.0265441490
 C    0.1101876893    0.0528679056   -0.0029633843
 N   -0.7608921604   -0.8712378790    0.7605049951
 C    0.7011411253   -0.9069494752    0.9839874383
 C    1.3122264357   -1.7685835276   -0.1422227821
 O    2.6614573745   -2.0236022891    0.0691336187
 C    0.3947337805   -2.8115610479   -0.8346912732
 O   -0.1102133101   -1.8074577160   -1.7522762300
 C    0.7127255302   -0.7805551725   -1.1779232593
 H    0.7921869771    2.0570608144   -0.3778322811
 H   -0.9536700923    1.8331997800   -0.5697374131
 H   -0.2384312079    1.8935715305    1.0510075264
 H   -1.1683995720   -0.3290681728    1.5224426595
 H    1.1385668877   -0.7467019390    1.9623024741
 H    3.0335298039   -2.3955329677   -0.7380262748
 H    0.9541458505   -3.5936306062   -1.3680047632
 H   -0.3989326888   -3.2562736312   -0.2297530784
 H    1.3004667484   -0.2142185408   -1.9065994217