20

 C   -0.4630960142    1.5500411269    0.0249104128
 C   -0.0126701058    0.0872053683   -0.0180448199
 C    0.5762551443   -0.3202176052   -1.3839410799
 C    2.0659740002    0.0421421957   -1.5172043773
 C    2.8461041343   -0.7218873717   -0.4588716757
 O    3.8480408892   -1.3574995126   -0.6995576847
 C    2.2469698198   -0.7007846410    0.9128271985
 C    1.9511884672    0.6462938446    1.5102655591
 N    0.8698602562   -0.2359314269    1.1334541697
 H    0.3340747388    2.2436587712   -0.2613408684
 H   -1.2976226923    1.7026400714   -0.6658737512
 H   -0.7993210123    1.8178207920    1.0306786916
 H   -0.9071249567   -0.5267416023    0.1415646026
 H    0.4739529908   -1.4047533948   -1.5088261436
 H   -0.0082904210    0.1402999863   -2.1879027565
 H    2.4694920728   -0.2274241911   -2.4957530283
 H    2.2128964666    1.1216020064   -1.3881285426
 H    2.5894613129   -1.5050656036    1.5584955734
 H    2.0959459701    0.7893175432    2.5782526686
 H    2.1780823692    1.5213304333    0.9061452321