16

 O    0.0243542151    1.3618885114   -0.0853498711
 C    0.0753948126   -0.0128494951   -0.0126349325
 C   -0.9014309417   -0.7998398708    0.7820453671
 C    0.5893603466   -0.9818561623    1.0460773025
 C    1.3368385236   -1.7805098500   -0.0641069492
 C    0.4569329858   -2.2796124383   -1.2032325852
 C    0.8367785642   -0.8300745850   -1.1126507932
 O    1.5922593211   -0.1442445233   -2.0514181966
 H    0.8710174923    1.6502296244   -0.4499568428
 H   -1.3877040867   -0.2069992511    1.5523950494
 H   -1.5381009298   -1.5755366300    0.3671203303
 H    1.0116487765   -0.7990649844    2.0256001538
 H    2.3408445693   -2.1616595599    0.0680222790
 H    1.0158820869   -2.8216454964   -1.9615636127
 H   -0.5536539171   -2.6461690826   -1.0568840453
 H    1.0342409613    0.0259714133   -2.8196806635