17

 C    0.0651100849    1.5460304856    0.1212726137
 C    0.0043759795    0.0225657845   -0.0115231883
 C   -1.4282627272   -0.5223476850   -0.0344081064
 O   -2.1995066712    0.0479561058   -1.0897775665
 C   -1.4602961648   -2.0613461007   -0.1018045846
 C   -2.8645244554   -2.6212125997   -0.0089138733
 O   -3.1777105996   -3.5547401087    0.6858488972
 H    1.0976444541    1.9044675773    0.0794947006
 H   -0.5009806923    2.0282883268   -0.6798323204
 H   -0.3650280030    1.8741435618    1.0737070281
 H    0.5126071757   -0.2972770736   -0.9337681876
 H    0.5485545764   -0.4521939463    0.8139339194
 H   -1.9426375943   -0.1970670568    0.8793765715
 H   -1.7409009906   -0.1316052268   -1.9189927125
 H   -1.0370655167   -2.3741105557   -1.0694340208
 H   -0.8514121043   -2.5141209759    0.6863411115
 H   -3.6099700714   -2.0951783723   -0.6425729216