15

 O    0.3881323869    1.3559040077    0.0812539824
 C    0.0839964955   -0.0004684470    0.0102653060
 C    0.1694206963   -0.8310390723    1.3237174597
 O   -0.6969711921   -0.0572795294    2.2172649664
 C   -1.7871284238   -0.5678909357    1.4585400712
 C   -1.0508769320   -1.6852492976    0.8503527917
 C   -1.3760859457   -0.4696794324   -0.0491850049
 C   -2.3996104131   -0.3977393754   -1.0965877167
 O   -3.4249766875   -1.0434678258   -1.0781848231
 H    0.0007896474    1.6693442550    0.9102191156
 H    0.6791290327   -0.4478037681   -0.7898409737
 H    1.0999893697   -1.1516057581    1.7843548741
 H   -2.8061526074   -0.4385844762    1.7944926092
 H   -1.2534398446   -2.7329013268    0.6881998276
 H   -2.1778163224    0.3115061921   -1.9234597056