18

 O    0.0946598665    1.4468963360   -0.0035255592
 C    0.0854527627    0.0398856181    0.1146477707
 C   -1.3342033268   -0.5241110235   -0.0061242754
 O   -1.7867074780   -0.0683713650   -1.2875705668
 C   -1.3837027914   -2.0179974885    0.1127289118
 C   -1.2341192624   -2.9163689585   -0.9238248858
 N   -1.3095637097   -4.1807569178   -0.3996147664
 C   -1.5039646078   -4.1131130171    0.9563941656
 C   -1.5564954480   -2.7844463479    1.3040815429
 H   -0.4331622146    1.6419147202   -0.7873010947
 H    0.7128767624   -0.4422898574   -0.6525883548
 H    0.4992727942   -0.2115072158    1.0958055194
 H   -1.9414310564   -0.0658978108    0.7902095135
 H   -2.6902336250   -0.3776855252   -1.4057643324
 H   -1.0861628509   -2.7493228060   -1.9778652055
 H   -1.2486971137   -5.0301307325   -0.9328241596
 H   -1.5959721905   -5.0075963977    1.5510706568
 H   -1.7037926605   -2.3955073706    2.3005344501