18

 O   -0.0494079778    0.0003448454    0.7480618801
 C    0.0276937126    1.2102322186    0.6621265623
 N    1.0785801368    1.8759176800    0.1418108737
 C    2.3116303786    1.3763050943   -0.4661109418
 C    2.7632265604    2.8524540020   -0.6892017300
 C    2.8527675623    3.3632863151   -2.1399450609
 C    1.4658714037    3.9019124150   -2.4117702049
 C    0.6700612335    3.8795399732   -1.3426791966
 C    1.3639163406    3.2957593923   -0.1375290821
 H   -0.7639109125    1.9018070547    1.0202771345
 H    2.9261170139    0.7835153305    0.2178236639
 H    2.1442839184    0.7973955425   -1.3816549043
 H    3.6179108432    3.1353707618   -0.0761391260
 H    3.6117803026    4.1477848662   -2.2541087848
 H    3.1305621985    2.5672772304   -2.8425632268
 H    1.1758686592    4.2712678617   -3.3899683537
 H   -0.3577705270    4.2232364048   -1.3167780688
 H    1.3226863329    3.9311628617    0.7537843562