23

 C   -0.8432686733    1.1061540858   -0.0552653962
 C    0.1064253511   -0.0819362027   -0.0752834211
 C    1.4835998612    0.0972819801   -0.7927783894
 C    2.1673657287   -0.5579740922    0.4160661728
 C    3.0882244844   -1.7438822400    0.3623524045
 C    3.5834605709   -0.4116676508    0.8818867978
 C    0.8763087707   -0.4522816147    1.2119702419
 C    0.7167598527    0.1953950005    2.5590313676
 C    0.4160749091   -1.2755127301    2.3749516701
 H   -0.3450579051    2.0037535637    0.3267636021
 H   -1.2093327788    1.3288012974   -1.0637041452
 H   -1.7183134405    0.9139986732    0.5765269168
 H   -0.4129578274   -0.9635701370   -0.4685966237
 H    1.6017894942   -0.4048640134   -1.7568101239
 H    1.7504783316    1.1531102867   -0.9112733947
 H    2.9358328706   -2.5447713751    1.0794682596
 H    3.4361133818   -2.0774873516   -0.6105701874
 H    4.2691053492    0.1605112876    0.2644005113
 H    3.7681405698   -0.3189749682    1.9483017443
 H    1.6169507828    0.4691355566    3.1006636223
 H   -0.1167928707    0.8734433163    2.7124458304
 H   -0.6222617288   -1.5931568890    2.3981429513
 H    1.1068571559   -1.9971015032    2.8015733286