18

 N    0.0965612287    1.3525069055    0.2454637424
 C    0.0078412555   -0.0029584278    0.0531047291
 C   -1.1798461295   -0.6626872989   -0.0172865095
 C   -1.2933233897   -2.1081140103   -0.0712450474
 O   -2.3591705361   -2.6809582891   -0.2386037480
 C   -0.0203032964   -2.9355778029    0.1621078703
 C    1.2939325147   -2.2196628674   -0.0660955389
 C    1.5852489429   -1.4877546853   -1.3414229731
 C    1.3064434574   -0.7053069264   -0.0620489166
 H    0.9274713455    1.8202227661   -0.0804795742
 H   -0.7509372941    1.8920021672    0.1582769425
 H   -2.1160825956   -0.1122981435   -0.0316037960
 H   -0.0717343964   -3.2742375067    1.2052078940
 H   -0.0956276375   -3.8374657367   -0.4533647124
 H    2.1530566034   -2.6842177613    0.4082851912
 H    2.6030713249   -1.4897744352   -1.7160863712
 H    0.8153820934   -1.4549677476   -2.1048042493
 H    2.1467023790   -0.2014636897    0.4054601173