18

 C   -0.0964838740    1.3487015399    0.1019944069
 O    0.0324554523   -0.0561970142    0.0540494026
 C    0.6082861501   -0.5259200339   -1.1392398893
 C    0.5542723014   -2.0501582463   -1.1184448577
 N   -0.8114515626   -2.5750566247   -1.1353173353
 C   -1.3688210386   -2.9371967870   -2.3675906473
 O   -2.4811509432   -3.3379216562   -2.5646761452
 C   -1.5092562549   -2.6469589748    0.0861086812
 O   -2.6529339487   -2.9761284374    0.2252381149
 H    0.8828153275    1.8468924008    0.0386226886
 H   -0.7313624970    1.7239283080   -0.7144279473
 H   -0.5615419637    1.5984125473    1.0577413184
 H    0.0615121009   -0.1426506581   -2.0173408063
 H    1.6573471971   -0.1967756080   -1.2316688318
 H    1.0931179302   -2.4457815422   -1.9836254687
 H    1.0642446402   -2.4157833733   -0.2223993981
 H   -0.6202825521   -2.8131366330   -3.1778564851
 H   -0.8482335449   -2.3602549467    0.9228816395