18

 C    0.0036849432    1.5391387617    0.0404957870
 C   -0.0717921178    0.0194768360    0.0656540645
 C   -1.4846510986   -0.5057130717   -0.1933610340
 O   -1.9351271142   -0.2033998941   -1.5041542807
 N    0.9300358429   -0.6492769619   -0.8208504671
 C    1.7267217672   -1.0855495076    0.2103819788
 O    2.8442462789   -1.5268717642    0.2726891016
 C    0.6776419639   -0.6646586861    1.2653457504
 O    1.1617947610    0.1851987226    2.2698600530
 H    1.0313932788    1.8849965504    0.1672072076
 H   -0.3938883475    1.9144256540   -0.9067617883
 H   -0.5942899556    1.9606813773    0.8536005103
 H   -1.5141208217   -1.5887587401   -0.0043263386
 H   -2.1881841471   -0.0248247813    0.4946783442
 H   -1.4545526395   -0.7774381556   -2.1097403044
 H    1.2234120532   -0.3907097890   -1.7543325986
 H    0.1139408798   -1.5078199116    1.6883365647
 H    2.0806882632   -0.0606265090    2.4314021496