17

 C   -0.0336963050    1.5321077935   -0.0048219967
 C    0.0891779495    0.0132127323    0.0144000427
 C    1.0441181508   -0.6187420660   -1.0234696242
 N    2.3371001983    0.0727875468   -0.6712506472
 C    2.2943037793   -0.7987194878    0.5308884788
 C    1.4792317920   -1.9029893683   -0.1519055590
 O    0.5878416368   -2.0538923021    0.9543985902
 C    0.8583270931   -0.6358806588    1.1907444819
 H    0.9472306922    2.0087026629    0.0263383380
 H   -0.5444222236    1.8682377132   -0.9136933558
 H   -0.6228518583    1.8788461645    0.8511857974
 H   -0.8971263905   -0.4576818337   -0.0269036941
 H    0.7544223774   -0.6527305693   -2.0725599001
 H    3.0719867753   -0.2916648938   -1.2774518668
 H    3.1737190993   -0.9241339058    1.1603238032
 H    1.8327337618   -2.8224559072   -0.6190291917
 H    0.6825923416   -0.3148700104    2.2161807035