17

 C    0.0784080559    1.4227682522   -0.0401466047
 C    0.0179003058   -0.0621623154    0.0993637808
 O    0.6245416121   -0.9098738249   -0.9783562228
 C    0.0854760775   -1.8771358436    0.0087401578
 C    0.7201561691   -1.0092950209    1.1281053200
 O    2.1024051760   -0.9517481923    1.2086584540
 C   -1.2142756279   -1.0253865759    0.0747781194
 C   -2.1197595757   -1.1048163612    1.1997690931
 C   -2.8809927546   -1.1615441740    2.1292578173
 H    1.1141138263    1.7674818870    0.0386710296
 H   -0.3278729834    1.7421509999   -1.0042183242
 H   -0.5036722396    1.8927599926    0.7584692083
 H    0.1927701061   -2.9375026849   -0.2185389719
 H    0.3018861819   -1.0749197615    2.1325565478
 H    2.4073066225   -0.9132540813    0.2899206227
 H   -1.7279426768   -1.0001000980   -0.8884542877
 H   -3.5528134351   -1.2156255678    2.9501739606