17

 N   -0.0351531829    1.4899258590    0.0295261477
 C    1.4481033338    1.4471269605    0.0167840533
 C    1.9832938091    1.2824217519    1.4439248446
 O    0.9821308458    1.3603170069    2.4783660917
 C    1.4617698891    0.0706996831    2.0894282042
 C    0.7022618665   -0.8032470167    1.0981777802
 N    1.7005729930   -1.1891098143    0.0469230552
 C    1.3274747531    0.0071865515   -0.7063067118
 C   -0.0554435076    0.0307327150   -0.0379898609
 H   -0.4119316420    1.8891885964    0.8850065882
 H    1.9318278947    2.2581261186   -0.5323628767
 H    2.9458240736    1.7096122703    1.7123840878
 H    2.0235217754   -0.4497917218    2.8650530782
 H    0.1768051173   -1.6449071876    1.5549480991
 H    2.6652510432   -1.2439332612    0.3723348587
 H    1.5127766645    0.0081815803   -1.7800986665
 H   -0.9511503366   -0.4497005918   -0.4332165731