17

 C   -0.1927144390    1.4399181870   -0.0104435229
 C    0.0690962578   -0.0449976359   -0.0088565577
 O    1.1458544898   -0.5784933584   -0.0315253081
 O   -1.1002177590   -0.7371076081    0.0245191838
 C   -0.9779693381   -2.1648469709    0.0343168638
 C   -2.4192332459   -2.7032125235   -0.0273828348
 N   -3.1890412938   -2.3049049040   -1.2051654266
 C   -2.3858138251   -4.1691600654    0.0762243643
 N   -2.3241025731   -5.3197638495    0.1528085858
 H    0.7558682229    1.9736238155   -0.0459909615
 H   -0.8080320983    1.7136722504   -0.8721563335
 H   -0.7471487245    1.7233807682    0.8886871639
 H   -0.3941414546   -2.4987382641   -0.8289972984
 H   -0.4621630461   -2.4917385381    0.9425504920
 H   -2.9509975739   -2.3242193788    0.8548334940
 H   -3.1578268234   -1.2918942338   -1.2723035916
 H   -2.7515146756   -2.6722960707   -2.0460163026