18

 C    0.1545782405    1.2881552252    0.2319054282
 O   -0.2288376271   -0.0278226554   -0.1516454266
 C    0.4919950153   -0.5593819483   -1.2046837097
 C    1.8886800577   -1.1304223184   -0.9284466114
 C    0.7410245868   -2.0638796177   -1.1550589887
 C    0.1501784346   -2.8773761547   -0.0260572690
 C    0.2698013632    0.0260333918   -2.5516162206
 O   -0.4515395870    0.9617666210   -2.7931296189
 H    1.2192384785    1.3293936369    0.5019693573
 H   -0.0470205316    2.0087445022   -0.5658335223
 H   -0.4445383028    1.5390156888    1.1098072327
 H    2.6567940852   -1.0280064123   -1.6875843332
 H    2.2324543201   -0.9984182850    0.0918935981
 H    0.7213962491   -2.5529649769   -2.1262165048
 H    0.1206219407   -2.2972306458    0.8979363915
 H   -0.8734794132   -3.1859710919   -0.2597268643
 H    0.7458720207   -3.7800778788    0.1447099096
 H    0.8478196892   -0.4870406706   -3.3570997277