17

 O    0.4791247667    0.8741000741   -0.8646903153
 C    0.1072369246   -0.1858364437   -0.0364375609
 C    0.0422021562   -0.0143222392    1.5204823596
 C   -1.3318703656   -0.7248740192    1.5165784226
 O   -2.4327198524    0.2088891501    1.5708787698
 C   -2.5258317400    0.2544068910    0.1228082489
 C   -2.4343084653    1.6032557571   -0.4244098892
 C   -2.3964522649    2.7246471796   -0.8601077535
 C   -1.3469557835   -0.7462295627   -0.0393897157
 H   -0.1617510168    1.5873507473   -0.7523199532
 H    0.7870386773   -1.0067783318   -0.2855694385
 H    0.8473374856   -0.5065541869    2.0708351825
 H   -0.0446482265    1.0211646715    1.8580153903
 H   -1.4893211985   -1.5920259252    2.1598904171
 H   -3.4760972291   -0.1895950191   -0.2025256913
 H   -2.3698627457    3.7127786447   -1.2503813044
 H   -1.5585391222   -1.6148581976   -0.6611417789