17

 C   -0.0218876744    1.5493464969   -0.0518211332
 C    0.0011124015    0.0201225000   -0.0387914051
 O    0.6554596759   -0.4656807639   -1.2499152047
 C   -0.1311817630   -0.6857644976   -2.3079539809
 O   -1.3271102188   -0.5060354188   -2.3428705624
 C    0.6494104901   -1.2063591667   -3.5016286054
 O   -0.1945643733   -1.4069360980   -4.5988270962
 C    0.7332361498   -0.5273722051    1.0953180671
 C    1.3189671187   -0.9502428799    2.0543122119
 H    0.9947552363    1.9441136883   -0.1155476296
 H   -0.6062108359    1.9014407875   -0.9050170203
 H   -0.4838461667    1.9184281610    0.8673918487
 H   -1.0235572493   -0.3627689479   -0.0487245071
 H    1.4448590148   -0.4832964682   -3.7346112114
 H    1.1502225664   -2.1385912355   -3.1994926441
 H   -1.0844457021   -1.1811390966   -4.2903719216
 H    1.8350874600   -1.3342841757    2.8996758743