19

 C   -0.0381974576    1.3897645430   -0.4550094302
 C    0.0070362604   -0.0328980066    0.0531942368
 O    1.0305547570   -0.5728335915    0.4076326774
 C   -1.3357787921   -0.8097870120    0.1384034334
 C   -1.6688500638   -1.0044600668    1.6226401994
 O   -2.4001636740   -0.1013138424   -0.4667704701
 C   -1.1459893697   -2.1569860734   -0.5584277233
 C   -2.2938538487   -2.9357641037   -1.0263474279
 O   -1.5115640761   -2.1530880177   -1.9469077693
 H    0.9436291720    1.8493286875   -0.3365904354
 H   -0.3229502727    1.3966494322   -1.5131646833
 H   -0.8066103394    1.9650908260    0.0688551274
 H   -1.8184233242   -0.0343227012    2.1055892851
 H   -2.5907534898   -1.5827189623    1.7226315689
 H   -0.8523894826   -1.5242304916    2.1285966170
 H   -2.3785297123   -0.3452032816   -1.4046980456
 H   -0.2071746552   -2.6563453862   -0.3331885394
 H   -2.2010186596   -4.0127364704   -1.1478729937
 H   -3.2993925517   -2.5613239715   -0.8497694471