20

 C   -0.0986801324    1.2106039452   -0.4861040776
 N   -0.1184842808   -0.1807425905   -0.0712867147
 C   -1.4633650567   -0.6923954800    0.2320161169
 C   -1.2180113467   -1.9539649903    1.0936241643
 C    0.3133520356   -1.9903379181    1.3015456379
 O    0.9660841908   -2.8259822602    0.3585364236
 C    0.7031632275   -0.5066538399    1.0915856140
 C    2.1887537925   -0.3398458521    0.8243071050
 O    2.9823285628    0.0101051961    1.6579818916
 H    0.9228294766    1.5242425260   -0.7219361841
 H   -0.7040077364    1.3346313037   -1.3895014443
 H   -0.4959367071    1.8922014158    0.2883749717
 H   -2.0504357125    0.0516297504    0.7984775467
 H   -2.0078780572   -0.8939287080   -0.6963534992
 H   -1.7420329314   -1.8811149850    2.0499110967
 H   -1.5380192305   -2.8782519528    0.6078088139
 H    0.6071665407   -2.3604700471    2.2849650951
 H    0.7690074030   -2.4553672914   -0.5114189137
 H    0.4523374091    0.0831117101    1.9926662283
 H    2.4979863031   -0.5847208820   -0.2147131519