13

 C   -0.0212412253    1.4768175164   -0.0763800950
 C   -0.0251017890   -0.0254085895    0.0436813613
 O   -0.0445194895   -0.6486139999    1.0651962328
 N   -0.0021708517   -0.7162516481   -1.2183023612
 N    0.0204137635   -0.0641983409   -2.3936477227
 C    0.0361746549   -1.0369222169   -3.2886538666
 C    0.0223776631   -2.2771583596   -2.6094920689
 N   -0.0016803986   -2.0535962788   -1.3068978707
 H    0.8664810571    1.8188253181   -0.6141310489
 H   -0.8875558640    1.8207163842   -0.6468366938
 H   -0.0395537554    1.8922906679    0.9304449196
 H    0.0560656755   -0.8228065015   -4.3457799414
 H    0.0287438592   -3.2823718313   -3.0011803544