21

 C    0.0145235869    1.4970289115   -0.0312280818
 C    0.0389737014   -0.0168855708    0.0854884817
 O   -1.2874062685   -0.5003381526   -0.0344038177
 C   -1.3844029156   -1.9034195970    0.0548240739
 C   -2.8648621704   -2.2928625017   -0.0282463448
 C   -3.0751886710   -3.8094311154   -0.1685076395
 O   -4.4258781219   -4.1501092463   -0.3822109650
 C   -3.6270494458   -1.7245374935    1.1540917607
 O   -4.5049354832   -2.3113197553    1.7466305019
 H    1.0272959920    1.9009164796    0.0567197880
 H   -0.3983710669    1.8011828114   -0.9970461215
 H   -0.6028586850    1.9336013590    0.7589539553
 H    0.6713169837   -0.4580340578   -0.7027341686
 H    0.4670585753   -0.3264690147    1.0534226988
 H   -0.8283856040   -2.3875963105   -0.7652085182
 H   -0.9404395081   -2.2634168542    0.9995134063
 H   -3.2766854657   -1.7964365448   -0.9199036932
 H   -2.5146380417   -4.1742622030   -1.0361706708
 H   -2.6639863632   -4.3147736077    0.7211775253
 H   -4.8958908143   -3.8448146571    0.4054362973
 H   -3.3242291939   -0.7025451792    1.4583639620