15

 N   -0.0452023405    1.2019515795    0.3687999254
 C   -0.0171602577   -0.0079900270    0.0156560320
 O    1.1062774018   -0.6882254318   -0.3815335720
 C    0.7675751736   -1.9473146725   -1.0171112222
 C    1.6570937442   -3.0048467274   -0.5603390167
 C    2.3828890819   -3.9008736846   -0.2266348045
 C   -0.7099340712   -2.1687030430   -0.7017220737
 N   -0.9630663520   -2.1549527330    0.7390995941
 C   -1.1893381989   -0.9219411943   -0.0642330288
 H    0.8844948274    1.6197210887    0.2994982597
 H    0.8869581110   -1.8101636861   -2.1004686032
 H    3.0233684120   -4.6885202378    0.0859006395
 H   -1.3096045356   -2.7689915591   -1.3752953192
 H   -1.8653084386   -2.5868974647    0.9266634645
 H   -2.1827667976   -0.5104817970   -0.1803130550