19

 O   -0.4852609376    0.1507782885    0.4469275797
 C   -0.1734436450    1.1683901869   -0.1138232951
 C    1.2425927506    1.7402514761   -0.1040452156
 C    1.5219283024    2.7518324696   -1.2181799713
 C    1.6371624760    2.1113683897   -2.5858173663
 C    0.4265635717    1.9130912066   -3.4697551506
 C    1.4739720334    2.9371385531   -3.8339619483
 C    1.4831312009    2.3060317394    1.3002973468
 O    1.8647855874    3.4233126050    1.5221667271
 H   -0.9235411637    1.7962189343   -0.6424573518
 H    1.9093040922    0.8678374073   -0.1704595018
 H    0.7272846261    3.5092581587   -1.2254302435
 H    2.4404499515    3.2934758094   -0.9698022129
 H    2.3864963222    1.3244998942   -2.6412932915
 H    0.3602957860    1.0071966732   -4.0617651308
 H   -0.5315519830    2.2819730823   -3.1183257995
 H    1.2171230418    3.9848005372   -3.7159361890
 H    2.1244810758    2.7330102763   -4.6769001101
 H    1.2728436414    1.5805476122    2.1141816646