22

 C   -0.0432970946    1.5144738897   -0.0138803471
 N   -0.0190832291    0.0733533751    0.0768785639
 C   -1.2567674347   -0.6320991643    0.4653541309
 C   -0.3982674218   -1.6412104353    1.2531193267
 O   -0.1485519141   -2.7816074650    0.4590119599
 C    1.1793920229   -3.2777559917    0.5434018248
 C    2.1837844812   -2.2410030163    0.0421740699
 C    2.1448599058   -1.0022156069    0.9471144308
 C    0.7112423817   -0.5505653624    1.2013193370
 H    0.9654874505    1.8945693459   -0.2082802906
 H   -0.6815663069    1.8256551648   -0.8478721874
 H   -0.4210847915    2.0026028332    0.9063592241
 H   -1.9076031379   -0.0381912297    1.1283580084
 H   -1.8448197012   -1.0400369901   -0.3621854397
 H   -0.7457288206   -1.9359746691    2.2510941720
 H    1.4204463229   -3.5753863605    1.5795483523
 H    1.1948662516   -4.1811809679   -0.0730371510
 H    3.1908671672   -2.6720211067    0.0201710550
 H    1.9118672381   -1.9671161068   -0.9825007742
 H    2.6086223939   -1.2433355711    1.9131608342
 H    2.7254689781   -0.1767790855    0.5183656977
 H    0.6583886886    0.0726823007    2.1118546524