14

 N    0.1167500638    1.3582870188    0.1899337675
 C   -0.0640476218   -0.0063668927    0.0587844503
 C   -1.2257552164   -0.7004191759    0.0057392299
 N   -1.2523689853   -2.0738336574   -0.0078333020
 C   -0.1252358506   -2.7131590652    0.0231598189
 N   -0.0578078346   -4.0816028021    0.0840054889
 C    1.1871953979   -2.0399268863    0.0211915348
 O    2.2600355608   -2.5866703588   -0.0273782940
 O    1.1247698958   -0.6662710804    0.0567401499
 H    0.9585275057    1.6999632034   -0.2552544691
 H   -0.6954870865    1.9049654157   -0.0570215873
 H   -2.1784049983   -0.1859075988   -0.0171273682
 H   -0.8926173645   -4.5785330603   -0.1829113683
 H    0.8254216340   -4.4846767400   -0.1876799013