14

 C   -0.0338836935    1.4905107021    0.0128955123
 N   -0.0109642163    0.0295952457    0.0417232925
 C   -0.0258887095   -0.7694233760   -1.0684260396
 C    0.0048972905   -2.0726040194   -0.6180799089
 N    0.0384778911   -2.1013694511    0.7405270726
 C    0.0281121446   -0.8395794694    1.1017156021
 N    0.0550229721   -0.4040560531    2.4758704350
 O    0.0888797711   -1.2598401874    3.3409682539
 O    0.0411827611    0.8145177432    2.6731592275
 H    0.8555108386    1.8962293340    0.4945945791
 H   -0.0641758091    1.7991433724   -1.0329918273
 H   -0.9105703062    1.8693740885    0.5378195844
 H   -0.0565015044   -0.3450165895   -2.0589129254
 H    0.0043811698   -2.9787293700   -1.2038864782