17

 C    0.4129086921    1.4233871849   -0.1987243203
 C   -0.1016886378    0.0229072264    0.1466200658
 O    0.0517976723   -0.9071907480   -0.9280711670
 C    1.2643069549   -1.6450119807   -0.7666971311
 C    1.4672199284   -1.7373651181    0.7321363519
 C    1.7208595686   -2.9560373563    1.5183075573
 O    2.7515250781   -2.0023146150    1.2808164941
 C    0.6713839376   -0.5870853138    1.3151453320
 O    0.6708849527   -0.2271679239    2.4623368970
 H    1.4800638550    1.4066317620   -0.4414716727
 H   -0.1314668243    1.8167037739   -1.0607598891
 H    0.2656054824    2.0915447229    0.6545153693
 H   -1.1687514629    0.0677176457    0.3904646452
 H    1.1341125101   -2.6108683451   -1.2603663130
 H    2.1202685237   -1.1297395127   -1.2285304919
 H    1.3618870834   -3.0032366144    2.5448110012
 H    1.8226230058   -3.9049756680    0.9934931911