17

 O   -0.1232341898    1.3313448535    0.0461579032
 C    0.0097253093   -0.0420596128    0.0253849142
 C    0.6119952524   -0.9635672343   -1.0919135221
 C    0.0344930516   -1.9247982077   -0.0068297559
 C    0.6705008104   -0.9974107718    1.0746355910
 C   -1.1885469767   -0.9915724053    0.0423641168
 C   -2.4810633580   -0.9629488532    0.7314063432
 N   -2.3851567136   -1.0098405527   -0.7641569894
 H    0.7495322809    1.7315868137   -0.0274491413
 H    0.1054425506   -0.9583084884   -2.0588931553
 H    1.7011244575   -0.9549821926   -1.1943359920
 H    0.0435572202   -3.0107098177   -0.0250672050
 H    1.7633187622   -0.9932164881    1.1122517707
 H    0.2231857805   -1.0174468547    2.0708552902
 H   -2.8975654553   -1.8602030748    1.1811440352
 H   -2.7979782926   -0.0316366500    1.1942053514
 H   -2.5668476594   -0.0822199629   -1.1434737549