15

 O   -0.1460489871    1.3174612329   -0.0448163763
 N    0.0136027345   -0.0726016440    0.0449905962
 C   -1.1016308929   -0.6625936979   -0.0405402314
 C   -2.5696066514   -0.2531854260   -0.0790895061
 C   -2.9295980218   -1.7450268927    0.0552151250
 C   -2.3433759316   -2.5280058840   -1.0643187589
 C   -1.4109220880   -2.1206817158    0.0774055169
 C   -0.7174107648   -3.0829267125    0.8679451698
 N   -0.1623359721   -3.8673093957    1.5126932816
 H    0.7582394208    1.6335473216    0.0591827260
 H   -2.8297911393    0.3472696827    0.7965926310
 H   -2.9297208575    0.2537735667   -0.9784423607
 H   -3.6867000295   -2.1493467527    0.7129711158
 H   -2.5772946215   -3.5869818700   -1.0817783807
 H   -2.1949551377   -2.0773615725   -2.0414172081