18

 C   -0.1299951128    1.5865478353    0.0121997344
 C   -0.0127359871    0.0511550191   -0.0013958254
 C    0.6917354426   -0.4507370222   -1.2416355562
 C    2.0099149984   -0.6560601297   -1.2436900483
 N    2.7944464162   -0.4581907343   -0.0936203804
 C    2.2477583005   -0.2327660336    1.1379447517
 O    2.8933550005    0.1069370414    2.1141490840
 C    0.7413594730   -0.4960797647    1.2271161917
 O    0.2509440756    0.0194090454    2.4330800604
 H    0.8564099827    2.0590444692   -0.0472979793
 H   -0.7180429352    1.9346499899   -0.8419096122
 H   -0.6134933589    1.9170055982    0.9339520066
 H   -1.0255761692   -0.3655191205    0.0362256559
 H    0.1299797654   -0.6066281043   -2.1547884432
 H    2.5640480490   -0.9817619133   -2.1157104772
 H    3.7953867500   -0.3563627367   -0.1713870845
 H    0.6398264822   -1.5976696189    1.2031877788
 H    1.0404720975    0.2306882796    2.9578148431