14

 C   -0.0867507899    1.4563180476    0.1431769237
 C    0.0097611310   -0.0578744708    0.0521589035
 O    1.0051126988   -0.6704724231    0.3924217842
 N   -1.1086031535   -0.6800994556   -0.4328527978
 C   -1.2149795981   -2.1317010271   -0.4762884079
 C   -2.4266097794   -2.6209891435    0.1746482376
 C   -3.4403925423   -3.0100842634    0.6889115966
 H   -0.1901058770    1.7399512463    1.1951270969
 H    0.8453597232    1.8892269884   -0.2247694667
 H   -0.9273054909    1.8750919279   -0.4162653430
 H   -1.9315876037   -0.1395181560   -0.6405357715
 H   -1.1847961751   -2.4914165309   -1.5139009827
 H   -0.3163356338   -2.5119489751    0.0203506147
 H   -4.3255350794   -3.3660699947    1.1553686724