18

 O    0.0054184216    0.0175733603   -0.4990283711
 C   -0.0177978727    1.1541935562   -0.1313941814
 C   -1.1544186406    2.1529116507    0.1874590625
 C   -0.0788788400    3.2222854874    0.5259453518
 C    0.3489712675    3.4254680122    1.9907811435
 C    1.8872487773    3.5668836305    1.7936165399
 N    1.8628590448    2.0887236622    1.4085236780
 C    0.7482495553    1.9979152407    2.4392890883
 C    1.0787860751    2.2146752716    0.1453989039
 H   -1.7511363585    2.3824307650   -0.7010529607
 H   -1.8377848398    1.8489218762    0.9862496933
 H   -0.1522863749    4.1557548176   -0.0322749928
 H   -0.2419506360    4.1005249248    2.6120715444
 H    2.2628934991    4.2403846299    1.0180001030
 H    2.4504239968    3.6991080727    2.7202450031
 H    1.1860125208    1.9675218629    3.4387616608
 H    0.0587550468    1.1589339613    2.3217378165
 H    1.7401084675    2.4346493977   -0.6953403629