22

 C    0.0480488105    1.5369931854   -0.3194425255
 C    0.0248452480    0.0400085948    0.0424093213
 C    0.6132478724   -0.2822804520    1.4256195995
 C    2.1060634274   -0.0444803122    1.5311166288
 C    2.9367864195   -0.7972646581    2.5148047531
 N    3.1223174245   -1.0052767159    1.0834839276
 C    2.7298274940   -2.2964132278    0.5388921159
 C   -1.3919229427   -0.4867236644   -0.1011202882
 O   -1.9874859254   -1.1244917427    0.7288119669
 H    1.0730375913    1.9101651170   -0.3810241904
 H   -0.4278231653    1.7172400991   -1.2891473095
 H   -0.4846244806    2.1287191560    0.4328729521
 H    0.6015338497   -0.4906776587   -0.7327883689
 H    0.1078664989    0.3394971011    2.1758642695
 H    0.3589247974   -1.3124624431    1.6857039351
 H    2.4056271268    0.9828215740    1.3250863979
 H    3.7565150814   -0.3170016362    3.0435165987
 H    2.4319342621   -1.5814501650    3.0796927617
 H    1.8610629730   -2.7639472503    1.0275460307
 H    2.5100351284   -2.1927465298   -0.5291861345
 H    3.5755302938   -2.9844685020    0.6394093464
 H   -1.8707278852   -0.2340447292   -1.0769468479