17

 O   -0.8105022116    0.8795362246    0.6796038771
 C    0.1144194296    1.0157808864   -0.0809075806
 C    1.1615575822    2.0667581995    0.0703672427
 O    2.3937305117    1.8171950469   -0.6156643864
 C    1.5797271600    2.8820392225   -1.1070195428
 C    0.9855378398    2.7768623646   -2.5207732381
 C    1.1195570762    4.2014937976   -3.1250745019
 C    1.8352528648    4.9897824733   -2.0560616347
 C    2.0764662231    4.2738197887   -0.9588291657
 H    0.2607686961    0.3591224821   -0.9666387191
 H    1.2428300567    2.5001167325    1.0668245500
 H    1.5583999391    2.0384700996   -3.0877173290
 H   -0.0540863762    2.4435470977   -2.5085854029
 H    1.6763006461    4.2063653785   -4.0695221128
 H    0.1397390710    4.6401374160   -3.3487947296
 H    2.1094772543    6.0299656214   -2.1921304270
 H    2.5758583771    4.6116408781   -0.0592348093