14

 N    0.1709478629    1.0893290475   -0.6227107941
 C    0.0607480383   -0.0583890338   -0.1462488442
 O    1.0060320323   -0.9515212329    0.3421985370
 C   -0.0038983233   -1.9622925278    0.6060253620
 C   -0.6509532806   -1.8129892128    1.9871167148
 O   -1.6272618981   -0.8663411857    1.4712657825
 C   -1.1159707307   -0.9950574593    0.1308802578
 C   -2.1706216955   -1.2387856691   -0.9149323755
 O   -1.9125449693   -1.6187416999   -2.0257956575
 H    1.1399371489    1.4122059332   -0.6329803013
 H    0.2509360744   -2.9298468693    0.1813286696
 H   -1.1431144630   -2.7159945676    2.3643443166
 H   -0.0057289857   -1.3786649467    2.7559989947
 H   -3.2068297208   -1.0556880757   -0.5594166826