22

 O    0.0726835338    1.4584076986    0.2070006090
 C    0.0222158791    0.0408325132    0.2603489003
 C   -1.2842368747   -0.5259394712   -0.3060395428
 C   -1.3499172898   -2.0344250134   -0.2402861546
 C   -0.4088446815   -2.8686899327   -1.1077554524
 C   -0.9910418228   -4.3015002592   -1.0838395511
 C   -2.5074656283   -4.1187469855   -0.8335684924
 C   -2.6125911251   -2.8093035588   -0.0698043626
 N   -1.7124918864   -2.5978062495    1.0769075977
 H   -0.6279030595    1.7951109710    0.7747337799
 H    0.8763276736   -0.3027090143   -0.3330973687
 H    0.1651396756   -0.3311862615    1.2862539084
 H   -2.1232976559   -0.1147304704    0.2688163001
 H   -1.3999236042   -0.1857462573   -1.3427360327
 H   -0.4199226955   -2.4620621186   -2.1270315512
 H    0.6319924893   -2.8386735533   -0.7665715304
 H   -0.7843953410   -4.8490955048   -2.0064565716
 H   -0.5376487710   -4.8853197849   -0.2761958201
 H   -3.0510748427   -4.0202674738   -1.7812713525
 H   -2.9498170489   -4.9660029659   -0.2978628373
 H   -3.5816794424   -2.3249597776    0.0168209929
 H   -1.1811063719   -3.4395495400    1.2863918418