16

 C   -0.1222165821    1.4652490727    0.0725607409
 C    0.1237355415   -0.0037565953    0.0138648428
 O   -0.8026825607   -0.8862633935    0.7013642411
 C    0.6184194660   -0.9882666992    0.9713246368
 C    1.3080520741   -1.8162662028   -0.1433897323
 C    0.3741986037   -2.2331415143   -1.2524663272
 O   -0.8918183434   -2.7815061286   -1.1422011037
 C    0.7713476422   -0.7795241802   -1.1744412007
 H    0.7873559211    2.0169627476   -0.1859890302
 H   -0.9047126933    1.7553190035   -0.6378123601
 H   -0.4394585179    1.7586940476    1.0764983979
 H    0.9245881667   -0.9022674717    2.0072287906
 H    2.3166731827   -2.1970067095   -0.0386358195
 H    0.9153573473   -2.7414853039   -2.0485669714
 H   -1.3231895909   -2.2913937181   -0.4284781958
 H    1.3185579130   -0.2711134244   -1.9597111390