12

 N    0.0874536967    1.2109301592   -0.5930757202
 C   -0.0171290213    0.1097920849    0.0187735102
 O    1.0344031434   -0.7266676255    0.2535856757
 N    1.3252128438   -1.0558425389    1.7550753853
 N    0.5550878909   -1.8185041935    2.2773917079
 C   -0.6164088982   -2.3933313375    1.7553436762
 C   -1.4949949067   -1.7885331640    0.9470602959
 C   -1.4004748111   -0.4172892710    0.3757113026
 O   -2.4057685264    0.2141639365    0.1542904185
 H    1.0737227684    1.4157110073   -0.7728315338
 H   -0.8283325342   -3.3541816771    2.2094006413
 H   -2.4425559752   -2.2831909903    0.7561544804