18

 C    0.2691641318    1.4992440915    0.0461330055
 O    1.1813537606    0.4492170143   -0.2699187138
 C   -0.1824859856    0.0999690708    0.0013312895
 C   -0.4481039791   -0.6938651730    1.2303053691
 C    0.3419916236   -0.4686689254    2.5501072291
 C   -0.0001403475   -1.9205937897    2.8711590180
 C   -0.2363715029   -2.2538020393    1.4502319649
 N   -1.3937529862   -2.2399457596    2.3867147100
 C   -1.8717702877   -0.9664999557    1.7576465511
 H    0.4282952293    1.9828601190    1.0085086092
 H    0.0208680356    2.1693288387   -0.7757254814
 H   -0.7343044929   -0.2191196081   -0.8850126182
 H    1.4098951863   -0.3524445972    2.3533371782
 H   -0.0106434371    0.3222993208    3.2217007133
 H    0.3787707527   -2.5478980816    3.6666662706
 H    0.0397430028   -3.0860437285    0.8163874872
 H   -2.3155749653   -0.2344535672    2.4432719127
 H   -2.5877587485   -1.2209831599    0.9710740850