15

 C   -0.0233708694    1.4733593195    0.1437033269
 N    0.2535898645    0.0549733165   -0.0445516505
 C    0.5827170585   -0.6416670056    0.9365931397
 O    0.7481393141   -0.3320172474    2.2737325768
 C    1.1113918729   -1.7142333302    2.5960838182
 C    0.9236289493   -2.1170489697    1.1254624533
 C   -0.2192307445   -3.0565332230    0.8040470887
 O   -0.8634791240   -3.6435026634    1.6337220088
 H    0.6645324115    2.0561958354   -0.4781708767
 H   -1.0364809477    1.6873425601   -0.2126221995
 H    0.0656181014    1.8124676669    1.1818910478
 H    2.1288794278   -1.7678819984    2.9873988218
 H    0.3959678504   -2.1627843596    3.2865734674
 H    1.8204294944   -2.4247258478    0.5799165304
 H   -0.4359807493   -3.1513066730   -0.2803455031