24

 C   -0.0077633410    1.5653724484    0.1332238442
 C    0.0099369827    0.0310431219    0.0164582487
 C    0.7677250738   -0.5803153454    1.2084516822
 C   -1.4321283110   -0.5038524181    0.0006991610
 O   -2.0837783694   -0.1226495072    1.2039564608
 C    0.6533487369   -0.3865581606   -1.3236147712
 N    2.0393043390    0.0541733109   -1.4497284585
 C    3.0820614233   -0.9325817338   -1.1891048274
 C    2.7837982577   -0.4910452481   -2.5780469333
 H    1.0096415135    1.9602379600    0.0886631809
 H   -0.5774156619    2.0135010772   -0.6895058632
 H   -0.4744045752    1.8746771049    1.0711862389
 H    0.2423766306   -0.3600036255    2.1405635604
 H    0.8419250234   -1.6705673474    1.1157403527
 H    1.7807676467   -0.1759593818    1.2774604709
 H   -1.9618225814   -0.0965814731   -0.8764913530
 H   -1.4152716935   -1.6015283860   -0.1034014353
 H   -2.9811538071   -0.4657269212    1.1813718948
 H    0.5653839133   -1.4825493224   -1.4520721900
 H    0.0904744328    0.0769319494   -2.1443263534
 H    3.9627234782   -0.5679266489   -0.6678583547
 H    2.7740559755   -1.9396844711   -0.9120103921
 H    2.2771271842   -1.2055344893   -3.2259128345
 H    3.4403134689    0.2040131773   -3.0941276789