17

 C    0.0287975875    1.5963541707   -0.0158043192
 C   -0.0297910941    0.0661329230   -0.0264359800
 C    0.6654115809   -0.4985133769   -1.2843644806
 C    0.7056945089   -1.9554575440   -1.3313455948
 C    0.7467412851   -3.1571439192   -1.3310245785
 N    0.6025279856   -0.5056355669    1.1636463675
 C    0.0666319517   -0.3794838429    2.4065688148
 O   -0.8808565610    0.3231867735    2.6931548004
 H    1.0674585721    1.9433912070   -0.0020813833
 H   -0.4613545785    2.0003786972   -0.9075599763
 H   -0.4814623870    1.9781629047    0.8688367943
 H   -1.0821725814   -0.2449899843   -0.0397888861
 H    0.1423949595   -0.1099544925   -2.1653224666
 H    1.6886218250   -0.1021888001   -1.3341903624
 H    0.7748997833   -4.2186380548   -1.3534086667
 H    1.2516652189   -1.2653426965    1.0202041964
 H    0.6116474436   -0.9911298681    3.1537881410