17

 C   -0.3463360853    1.2905213746    0.1401830404
 N    0.2453595210   -0.0147987758   -0.1217215927
 C    0.7221401708   -0.7566174732    0.9467982479
 C    0.7743268544   -2.1312960370    1.1028219174
 O    0.2227935256   -3.0634293774    0.2470313115
 C    1.4088661687   -2.3415564370    2.3506010100
 N    1.7321033600   -3.5822754932    2.9015899071
 N    1.7333200396   -1.1981293091    2.9385772775
 N    1.2912247843   -0.2357445890    2.0597584162
 H    0.4233500372    1.9950677876    0.4747005953
 H   -0.7548816723    1.6848024272   -0.7927510175
 H   -1.1458519121    1.2707217461    0.8964008041
 H   -0.3230308943   -0.6001194747   -0.7194191688
 H    0.9363335486   -3.5050331217   -0.2278577590
 H    0.9955345011   -4.2629523944    2.7626202709
 H    1.9563815310   -3.5008678957    3.8855274166
 H    1.4964618317    0.7258957727    2.2568382329