13

 O   -0.6155599566    1.2535935981    1.3773217440
 C   -0.3210867923    1.6777900183    0.2911971665
 C    1.1119246834    1.7156425070   -0.1973796649
 C    2.1809250180    1.9181150692    0.8213042633
 O    1.9458973584    0.6487740500    0.2616834412
 C    1.3349641111    2.2078134799   -1.6020957997
 O    0.5046798173    2.9000339910   -2.1534829568
 C    2.5778271273    1.8208154585   -2.2372990803
 C    3.6097904404    1.5301092474   -2.7837313798
 H   -1.0655395158    2.0703205575   -0.4249813073
 H    3.1057178456    2.4079633199    0.5214935588
 H    1.8532181577    2.0465556853    1.8511226631
 H    4.5178181855    1.2672630880   -3.2709120381