16

 N    0.0817836500   -1.1711458808   -0.1892762961
 C    0.0284536787   -0.0198849686   -0.1183233182
 C   -0.0400669779    1.4394734104    0.0045565660
 N    1.2866438672    2.0143001711    0.1120063618
 C    2.0976745701    1.7832629597    1.3296710656
 C    2.6218611400    3.2336311667    1.2058244975
 C    1.3884529664    3.4763851717    0.2883607722
 C    1.5498522778    4.2512794672   -0.9405489706
 N    1.6761995848    4.8730365021   -1.9062634863
 H   -0.5291692903    1.8443241533   -0.8893138143
 H   -0.6876677755    1.6789536002    0.8698397333
 H    1.4860736102    1.6384243874    2.2336724500
 H    2.8142742541    0.9638381719    1.2453597746
 H    2.6714331670    3.8346980167    2.1119618409
 H    3.5597644026    3.3022284084    0.6556911948
 H    0.5490491648    3.9033663127    0.8620606290