19

 C    0.2285301622    1.5907100787   -0.0111618411
 C    0.5718006130    0.1041727406   -0.0042921947
 N    0.0545835943   -0.5415678971    1.2008642329
 C    0.3066966124   -1.9485543398    1.2895451676
 C    1.7048905626   -2.5034300349    1.6931337224
 N    1.9514653717   -1.9477213844    3.0270239921
 C    1.1430276139   -3.2149189173    2.8907954280
 C   -0.2455562432   -2.7299802903    2.5384958310
 O   -1.3443962329   -2.9665421125    2.9406507767
 H    0.6994134268    2.1064406087    0.8335791518
 H    0.5832562328    2.0673733835   -0.9298247081
 H   -0.8525983002    1.7355575113    0.0659213539
 H    0.1071353696   -0.3880881186   -0.8686925867
 H    1.6636347771   -0.0223936995   -0.1241996564
 H    0.4300900313   -0.0890712524    2.0295758660
 H   -0.0702891919   -2.4533505540    0.3907725148
 H    2.5103344574   -2.8403291333    1.0531408841
 H    2.8793940021   -2.2396161493    3.3331600847
 H    1.4571740210   -4.1241616394    3.3863364009