14

 O   -0.1475599432    1.4090029936    0.0012670681
 C   -0.0719394487    0.0234635794    0.0391481233
 C   -0.4303929987   -0.7890555412    1.2704766924
 C   -1.5550006434   -0.1074123617    2.0099185252
 O   -1.7332740420    0.1335708161    3.1664403978
 C   -2.4541323108   -0.0081130619    0.7577904443
 C   -1.3444641251   -0.7507281536   -0.0197762038
 C   -1.5710409268   -1.8060574319   -0.9514232132
 N   -1.7595017427   -2.6621880335   -1.7067497559
 H    0.5773591522    1.7722218165    0.5222226944
 H    0.7465056316   -0.4142437429   -0.5325367715
 H    0.2138862310   -1.5782707568    1.6385392926
 H   -3.3589103775   -0.6069083750    0.8864349095
 H   -2.7062698459    0.9888961229    0.3959966368