18

 C   -0.1076806342    1.5183553036    0.0154304501
 C   -0.0150341619    0.0036981917   -0.0065671655
 C   -0.8082671983   -0.7742421043    1.0386371464
 C    0.6960355671   -0.7008068633    1.1171157569
 O    1.3997758853   -1.8788736617    0.8435570179
 C    2.0710243957   -1.9055138881   -0.4096315811
 C    1.1942276376   -1.4624840614   -1.5538865119
 C    0.2003099966   -0.6012495543   -1.3493353779
 H    0.7859555782    1.9772224500   -0.4216427824
 H   -0.9761774831    1.8652743179   -0.5569622337
 H   -0.2150407383    1.8932776325    1.0381648538
 H   -1.3984869257   -0.2106731240    1.7543680573
 H   -1.2186061368   -1.7345677459    0.7487671059
 H    1.1492536305   -0.0970254769    1.9026728578
 H    2.9884874853   -1.2918487631   -0.3732683421
 H    2.3891787636   -2.9440270941   -0.5472450729
 H    1.3992686045   -1.8775012111   -2.5363089287
 H   -0.4548265162   -0.2878224876   -2.1590067399