18

 C   -0.1850479146    1.4827031677    0.1637032554
 N    0.3998419529    0.1547028955   -0.0317263573
 C    0.8222698060   -0.4865870779    1.1848217923
 C   -0.2059420846   -1.1856992230    2.1147383701
 O   -1.2036687986   -0.9219178473    2.7057046305
 O    0.4179305381   -2.4125411181    2.0239489600
 C    1.3907868118   -1.8987491535    1.0792778575
 C    1.7926866012   -2.6697408056   -0.1264364856
 C    2.7774425631   -2.4204416193    1.0134856969
 H    0.5759466176    2.1513156411    0.5811157079
 H   -0.4865035891    1.8848208934   -0.8072515169
 H   -1.0553368317    1.4951821120    0.8356966809
 H   -0.2529230109   -0.4431319376   -0.5282261420
 H    1.4606377116    0.2002858988    1.7513734956
 H    1.4004441311   -3.6749085685   -0.2337326021
 H    1.9215914486   -2.1176162970   -1.0515233908
 H    3.5867251258   -1.7145374469    0.8589363167
 H    3.0215321716   -3.2637111439    1.6500806909