20

 C    0.0327055254    1.6106529438   -0.1844321787
 C    0.0337381499    0.0893462535   -0.0185884305
 C    0.6404872000   -0.6257521403   -1.2260671831
 C    0.6520692504   -2.1282965857   -1.0848745894
 O    0.2432925831   -2.7600957922   -0.1490665594
 O    1.2107058911   -2.6954104789   -2.2059093252
 C    1.3063509679   -4.0654083627   -2.2583527514
 N    1.8156225321   -4.5894809122   -3.2769206882
 C    1.9020903266   -6.0367384125   -3.3020496931
 H    1.0495327239    1.9992384703   -0.3096120240
 H   -0.5473843567    1.9161012948   -1.0623854984
 H   -0.4050801294    2.1004907208    0.6901792419
 H    0.5908225430   -0.1925762331    0.8812339218
 H   -0.9874010190   -0.2747913703    0.1369050223
 H    0.0996031622   -0.3839300739   -2.1499750101
 H    1.6734143273   -0.3020849851   -1.4075917986
 H    0.9129638270   -4.5685252156   -1.3724030133
 H    1.5013637332   -6.5270905860   -2.4015383536
 H    1.3605096524   -6.4147488679   -4.1759649872
 H    2.9496096598   -6.3328680768   -3.4242460017