14

 O    0.0043234158    1.3689178316    0.0767632717
 C   -0.0819635608   -0.0128343434    0.0584472997
 C   -1.3743342300   -0.7858200675    0.0650276904
 O   -1.7234800776   -1.7868980180    0.9253098630
 C   -2.3878679031   -0.0917523619   -0.8293011033
 O   -1.4153923833    0.0319142661   -1.9130687966
 C   -0.4569994226   -0.7598779932   -1.2029621560
 C    0.3293149609   -1.7205696418   -1.8936190270
 N    0.9800745366   -2.5195849950   -2.4217276498
 H   -0.3402216775    1.6817061410   -0.7714409460
 H    0.7113881393   -0.4887023774    0.6321344196
 H   -1.2600644607   -1.6696184033    1.7614863633
 H   -3.2085659688   -0.7486328066   -1.1302518306
 H   -2.7671382183    0.8799358494   -0.4985088385