20

 C   -0.0724015826   -1.2307164283   -0.0853122457
 C   -0.0543176223   -0.0316715392    0.0001049258
 C    0.0024669495    1.4215419571    0.0965571560
 C    1.4194515651    1.9902811583   -0.1299934443
 C    1.4652878616    3.5069024667   -0.0149091635
 C    1.2519256452    4.1765783998    1.3757949604
 C    2.3566618545    5.2031638757    1.0075446413
 C    2.8426141259    4.2247404150   -0.0952625864
 H   -0.1010591405   -2.2892470448   -0.1588534791
 H   -0.6876556614    1.8633511354   -0.6346826177
 H   -0.3619235998    1.7359555514    1.0832856644
 H    2.1039052304    1.5429053975    0.6012953349
 H    1.7747471114    1.6779243478   -1.1195224603
 H    0.7766703811    3.9528023196   -0.7440556321
 H    0.2571572638    4.5592296231    1.6176289654
 H    1.5745939970    3.5129559988    2.1857547152
 H    1.9332380935    6.1166965858    0.5801948277
 H    3.0682638311    5.4845733444    1.7871112723
 H    3.6463467968    3.5757681026    0.2686966504
 H    3.1451223698    4.6426123632   -1.0587651148