20

 C   -0.0833995322    1.5102826429   -0.0101045515
 C    0.0276043593   -0.0207294734    0.0539483314
 C    0.7225856019   -0.4872563070    1.3342425862
 N   -1.2689884089   -0.6996626513   -0.0480621612
 C   -1.9552054205   -0.6734390384   -1.2524700101
 C   -1.5640922656   -0.3723429378   -2.5487622329
 C   -2.7147356718   -0.6267967411   -3.3306692550
 N   -3.7434979843   -1.0446031310   -2.6096831639
 N   -3.2551056412   -1.0626678906   -1.3373425816
 H    0.9087558596    1.9731969530   -0.0127683374
 H   -0.6129404386    1.8267475441   -0.9123158106
 H   -0.6297974230    1.8937441969    0.8598763644
 H    0.6165569113   -0.3682615429   -0.8029603853
 H    0.1485721661   -0.1872976288    2.2199746764
 H    0.8257402601   -1.5752095737    1.3476209810
 H    1.7159472173   -0.0379103743    1.4200471691
 H   -1.8591305575   -0.5190087340    0.7550408660
 H   -0.6019943956   -0.0180903669   -2.8774212773
 H   -2.8256459062   -0.5109339714   -4.3995220305
 H   -3.8398492202   -1.4080439442   -0.5961351871