16

 C   -0.0678316564    1.5074901024    0.0125990593
 C   -0.0179122465    0.0130199075   -0.0071850977
 C   -0.0333961058   -0.8022694994   -1.1038084523
 N    0.0289440363   -2.1251122079   -0.6720893933
 C    0.0833021665   -2.1461068805    0.6804724589
 O    0.1491377211   -3.3246460022    1.3283482461
 C    0.0577312378   -0.8444008258    1.1557428679
 C    0.1005570826   -0.5113821146    2.5237498011
 C    0.1386792309   -0.2713260979    3.7069807837
 H    0.8212741544    1.9334338309    0.4916900935
 H   -0.1290022326    1.9108898459   -1.0020506938
 H   -0.9352229146    1.8734030550    0.5739190927
 H   -0.0831530094   -0.5689090150   -2.1543613657
 H    0.0335463974   -2.9452681520   -1.2526207597
 H    0.1799360780   -3.1267512763    2.2736722163
 H    0.1710403002   -0.0419479699    4.7426310730