20

 C    0.0522309200    1.5819314771    0.1173891735
 C   -0.0498541520    0.0610999690   -0.0270035391
 C    0.7785660331   -0.4863453924   -1.1930055293
 C    0.6789495818   -2.0154731560   -1.3371561374
 C    1.4397776073   -2.5414033513   -2.5103964411
 C    2.5229754868   -3.3547859085   -2.5562964915
 O    2.8703278073   -3.5448388033   -3.8680761832
 C    1.9604100741   -2.8207876907   -4.5544482874
 N    1.0923372789   -2.2065223714   -3.8224405750
 H    1.0879848170    1.8946151843    0.2907012596
 H   -0.2974282799    2.0890670000   -0.7885957961
 H   -0.5497386982    1.9454823043    0.9561188744
 H    0.2736641424   -0.4184508684    0.9067932976
 H   -1.1011268985   -0.2247664322   -0.1651154717
 H    0.4523661933   -0.0237398228   -2.1320250906
 H    1.8321336670   -0.2062522454   -1.0619085171
 H    1.0426543379   -2.5015676784   -0.4242494669
 H   -0.3768782574   -2.2956825647   -1.4443160508
 H    3.1288361650   -3.8569897392   -1.8221540084
 H    2.0459846743   -2.8287261301   -5.6299093193