18

 C   -0.0292199191    1.3904466743   -0.0819480624
 C    0.0389116378   -0.0954477520    0.0006185997
 O   -0.4623583536   -0.8761559673   -1.0973622407
 C   -0.3754063468   -2.0299611452   -0.2133316328
 C   -0.3274439897   -1.0916283687    1.0480642478
 C    1.1554595286   -0.9193624082    0.6809711351
 C    1.1362977581   -2.2352068361   -0.0568499440
 C    1.8173183334   -3.5080643700    0.2371894801
 N    2.1017746496   -2.7457178667   -1.0058133495
 H    0.5978164305    1.7588768126   -0.9004109869
 H   -1.0568863306    1.7238612381   -0.2562754493
 H    0.3277661946    1.8390166440    0.8498439663
 H   -1.0749006157   -2.8281305615   -0.4561960008
 H   -0.8559478013   -1.0563933544    1.9899532190
 H    1.9471581281   -0.4732512630    1.2681202927
 H    2.6410964383   -3.5472496232    0.9448450179
 H    1.2403691952   -4.4280996201    0.1669881975
 H    1.6367373724   -3.1653377826   -1.8077975697