23

 C   -0.0144786857    1.5754852393    0.1239117427
 C    0.0090319822    0.0468439898    0.0396626251
 C    0.6913879469   -0.4730019565   -1.2298369618
 C    0.7150025780   -2.0013591328   -1.3256378537
 C    1.4524262641   -2.5201232076   -2.5668869183
 O    2.7945194333   -2.0594447450   -2.6194003602
 C    1.3786496368   -4.0619016800   -2.6575036800
 C    2.0093948746   -4.6084664373   -3.8513939276
 C    2.5196503989   -5.0555219288   -4.8431460929
 H    1.0007739923    1.9872286114    0.1123047084
 H   -0.5549711382    2.0099620473   -0.7244023368
 H   -0.5033214979    1.9189102306    1.0410048954
 H    0.5234305163   -0.3606367280    0.9205029530
 H   -1.0183635899   -0.3387652398    0.0859934696
 H    0.1778550315   -0.0651117007   -2.1116906500
 H    1.7206352403   -0.0997661163   -1.2810214221
 H    1.1961773131   -2.4222666267   -0.4290311225
 H   -0.3116567166   -2.3913885735   -1.3307336990
 H    0.9851554012   -2.1011326314   -3.4660527880
 H    3.2722453305   -2.4499021540   -1.8785614551
 H    1.8487018110   -4.4895222829   -1.7594352863
 H    0.3259131246   -4.3702263433   -2.6211718494
 H    2.9756345429   -5.4476302739   -5.7179617506