15

 C    0.0583573212    1.5005480265    0.0539624477
 C    0.0198770254    0.0114602346   -0.0037347971
 C   -0.0894572594   -0.7835451586   -1.0733701849
 N   -0.1169836843   -2.1562270581   -0.7222806101
 C    0.0954564771   -2.2992377663    0.6275631740
 O    0.3403534338   -3.3126077533    1.2436354982
 C    0.0250032805   -0.8758246065    1.2205368464
 O    1.0986735773   -0.6420059764    2.1051201555
 H    0.9610142661    1.8439839936    0.5720413208
 H    0.0488355003    1.9390674636   -0.9480390781
 H   -0.7973797059    1.9055383430    0.6093570989
 H   -0.1816835194   -0.5089775964   -2.1151971426
 H    0.0343464854   -2.9126693042   -1.3707620919
 H   -0.9435517966   -0.7815565967    1.7475789958
 H    1.2603250984   -1.4846981248    2.5518500973