16

 N   -0.3562946749   -1.0965886393    0.2729589604
 C   -0.1992779307    0.0371577600    0.1136348060
 C   -0.0045214434    1.4870663840   -0.1027904822
 O   -0.6925577836    2.2475966024    0.8754316263
 C    0.1828102268    2.4658498417    1.9866706779
 C    1.5983921363    2.5326017463    1.3953282302
 O    2.4783463782    1.4711542045    1.8186438342
 C    2.5556231087    0.9423772770    0.4757231759
 C    1.4820587396    1.9318218760   -0.0233860598
 H   -0.4495353234    1.7347562274   -1.0709383413
 H   -0.1452874557    3.3893962929    2.4682422515
 H    0.1328924593    1.6376780510    2.7056214686
 H    2.0711208630    3.5147166837    1.4950292351
 H    3.5439206065    1.1127955475    0.0332697750
 H    2.3132187219   -0.1237306800    0.4322419508
 H    1.7485939513    2.5574547850   -0.8732938585