20

 C    0.0383066309    1.4190866666   -0.2686048709
 O   -0.0140491969   -0.0015346771   -0.1292461304
 C   -1.2706199267   -0.5195815208   -0.1197196839
 O   -2.2878252207    0.1345113913   -0.2031381296
 N   -1.2214720399   -1.8712422561   -0.0206956943
 C   -0.1635754719   -2.7689353716    0.4518000240
 C   -1.2616108828   -3.8429349576    0.7281838865
 C   -1.3339589007   -4.4138548457    2.1352822028
 C   -2.3214897199   -2.7626697242    0.3441308451
 H    1.0970268080    1.6802147745   -0.2452388601
 H   -0.4091813581    1.7352347352   -1.2147988448
 H   -0.4931220360    1.9123640358    0.5495705794
 H    0.5858125607   -3.0184290501   -0.3056640000
 H    0.3503067402   -2.4056428049    1.3499607105
 H   -1.2264205977   -4.6497837809   -0.0079380777
 H   -1.3686101373   -3.6149980091    2.8843583147
 H   -2.2289996398   -5.0317663999    2.2642041883
 H   -0.4622925074   -5.0402175040    2.3535221001
 H   -2.9196634817   -2.3902474134    1.1845735492
 H   -2.9938901922   -3.0083302080   -0.4834633689