21

 C    0.0011383321    1.4078242686   -0.0332341303
 C    0.0800191696   -0.1160152360   -0.1242550255
 O    0.5792922002   -0.7522930672    1.0353081923
 C    1.9737729481   -0.7183508299    1.2164480290
 C    2.6273890067    0.4542899384    2.0024364922
 C    3.5245358115   -0.5989689298    2.7090166163
 C    2.5000079925   -1.6902392888    2.2910009436
 C   -1.2881325557   -0.7430382449   -0.3825430729
 O   -2.1521800130   -0.2356015124   -1.0472649181
 H    0.9961975219    1.8584919422   -0.0260231677
 H   -0.5567243361    1.7896370731   -0.8918780505
 H   -0.5242264124    1.7018453370    0.8798392635
 H    0.7029015086   -0.3957758306   -0.9958395710
 H    2.4804277576   -0.8732897385    0.2513076037
 H    3.1105371599    1.2550128903    1.4373473915
 H    1.8998539405    0.8889516126    2.6934952373
 H    4.4855437327   -0.7240545633    2.2029323312
 H    3.7095489673   -0.4668138480    3.7762320185
 H    1.7344739882   -1.8348038625    3.0585142210
 H    2.8688203840   -2.6652432982    1.9655133165
 H   -1.4083510942   -1.7396021222    0.0958202094