19

 C    0.1430179545    1.5207617972    0.0043665777
 C    0.0524215516    0.0264694430    0.0460257237
 C   -0.1388077227   -0.7983317926   -1.0420001989
 N   -0.1648397320   -2.1068457395   -0.5879542549
 C    0.0071604976   -2.1200759908    0.7753344930
 C    0.1441404400   -0.8202285519    1.1929649699
 N   -0.2848269486   -0.4100899140   -2.3863340224
 C    0.2793813534   -1.2351907968   -3.4571140604
 C   -1.1945681893   -1.1424907415   -3.2703503005
 H    1.1057139499    1.8805273801    0.3869616377
 H    0.0332463768    1.8763231969   -1.0229752225
 H   -0.6383845790    1.9924770291    0.6121949580
 H   -0.2897303552   -2.9241789552   -1.1577860822
 H    0.0169468049   -3.0484972536    1.3235049968
 H    0.2945685772   -0.4976749619    2.2124814631
 H    0.7687214403   -0.6881767134   -4.2583269992
 H    0.7694126271   -2.1674688318   -3.1836038650
 H   -1.7124536754   -2.0114176112   -2.8692927586
 H   -1.7963130814   -0.5268500421   -3.9333105253