18

 C   -0.0370745295    1.4477350331    0.1092018630
 N    1.2720031287    0.7905721600   -0.0940334986
 C    1.6323019266    0.2101867065    1.2519758051
 C    0.3917119687   -0.7092640839    1.2605771821
 O    0.7745883569   -2.0568825665    1.0318786576
 C   -0.0850810704   -2.7054669063    0.1250740661
 O   -0.0422650304   -2.1428862588   -1.1567525955
 C   -0.5821349887   -0.8235993043   -1.1681478080
 C   -0.0168261856   -0.0151045288   -0.0405245683
 H   -0.2643832781    1.8975041590    1.0746875688
 H   -0.3515831931    2.0381664734   -0.7469058646
 H    2.5541131133   -0.3680292858    1.1855064310
 H    1.7101646048    0.9576505388    2.0476096122
 H   -0.3066835723   -0.6539110106    2.1077438542
 H    0.2743928779   -3.7319494374    0.0364313024
 H   -1.1231320392   -2.6969662055    0.5102305366
 H   -0.3330567608   -0.3810125299   -2.1363823345
 H   -1.6812390488   -0.8730473728   -1.0770670695