19

 C    0.0422470513    1.5067051249   -0.0399477482
 C    0.0446385502    0.0169814214    0.0661702447
 C    1.1739578173   -0.9176294411   -0.2634179021
 C    0.5119377294   -0.9907850584    1.1006613507
 C    1.2461212028   -0.8455768738    2.4118288289
 C    1.8411420925   -2.1003509139    2.8702200847
 C    2.3128828950   -3.1456491567    3.2295424301
 C   -0.8650120182   -1.6177720058    0.9182669210
 O   -1.2063701948   -0.6627991145   -0.1227010280
 H    1.0291194397    1.9126662211    0.2005914045
 H   -0.2070508936    1.8143652213   -1.0618684747
 H   -0.6958607099    1.9491670633    0.6362431628
 H    1.0269339283   -1.7068718430   -0.9962695794
 H    2.1667523900   -0.4764955743   -0.2563435384
 H    2.0319684716   -0.0861738375    2.3084322943
 H    0.5602899141   -0.4682824139    3.1827586842
 H    2.7360173076   -4.0645173203    3.5519086195
 H   -0.9127836477   -2.6553190084    0.5681526591
 H   -1.5223495056   -1.4905511304    1.7873447163