19

 C   -0.0903695196    1.5301015378   -0.1559775117
 C    0.0048911917    0.0252011312   -0.0135712203
 C   -1.1999727863   -0.7359443018   -0.5451837259
 C    1.3032062026   -0.7058620531   -0.1854413867
 O    2.4234398892    0.0678775801    0.2627523897
 C    1.9386313721   -0.0063249611    1.6395653500
 C    1.9229063846    1.2539915470    2.3647343862
 C    1.9331690396    2.2685430910    3.0095748593
 C    0.6427509219   -0.6828822300    1.1789402680
 H    0.8533218703    2.0186208387    0.0863827358
 H   -0.3508273345    1.7896246378   -1.1887986189
 H   -0.8681352806    1.9401491813    0.4972531209
 H   -1.3776699268   -0.4910438050   -1.5979777135
 H   -1.0636001583   -1.8200654995   -0.4704690080
 H   -2.1040381411   -0.4752513358    0.0162976700
 H    1.4999614160   -1.5035440053   -0.8936992743
 H    2.5648950336   -0.7243881523    2.1855872413
 H    1.9319755919    3.1723482438    3.5676268829
 H    0.1358536038   -1.4601883148    1.7354938250