15

 O   -0.0220331461   -0.0327298316    0.2514409818
 C   -0.0097616243    1.1556920483    0.0113402065
 C   -1.2994600106    1.9661575314   -0.1035853277
 O   -1.1611466602    3.1113568026   -0.9257379891
 C   -0.1383695116    3.9914509898   -0.4898545859
 C    1.1793364376    3.2700087647   -0.2839535052
 C    1.2309341056    1.9466412011   -0.1060833568
 C   -0.0030189386    5.0676400409   -1.4704096799
 C    0.1409383390    5.9641324029   -2.2552744196
 H   -2.0796339191    1.3450863508   -0.5473393208
 H   -1.6222737084    2.2427651969    0.9166780472
 H   -0.4296854129    4.4447520864    0.4796604850
 H    2.0735846106    3.8860971812   -0.2834913286
 H    2.1670023407    1.4127723869    0.0227496041
 H    0.2560118682    6.7543265276   -2.9559612609