18

 C   -0.0363910195    1.5333076566    0.0267830362
 C    0.1354391512    0.0288660176    0.0964989998
 C    1.4041741449   -0.7664963215   -0.2014705631
 O    1.4248580248   -1.7831246014   -1.1422648854
 C    2.6515518259   -0.0538750293    0.3263325211
 C    2.0171371718   -0.0567155382    1.7595773973
 C    0.7877897534   -0.7633669624    1.2033861601
 O    0.1588160959   -1.7179591315    1.9822782068
 H    0.8380743377    2.0640598385    0.4133945969
 H   -0.1936333137    1.8681523801   -1.0050003730
 H   -0.9021564551    1.8577912748    0.6147125307
 H   -0.7171924069   -0.5261703674   -0.3012946424
 H    1.3337976730   -1.3928675163   -2.0189873210
 H    3.5338825817   -0.6948150914    0.2687946526
 H    2.8931819379    0.9230179110   -0.1062932744
 H    2.5659453872   -0.7018631021    2.4485281980
 H    1.8524947553    0.9139894951    2.2367447832
 H   -0.6085604256   -2.0504369820    1.5056929568