18

 C    0.0529082676    1.5004611342   -0.0113027072
 C   -0.0980372816    0.0140603611    0.0119658577
 C    0.0127827069   -0.8490553146    1.2353956995
 C   -0.5498543997   -2.2356171040    0.9666933564
 C    0.1172785650   -2.0691789855   -0.4176528219
 C    0.6527903410   -3.2010263142   -1.2384852293
 N    1.0763199364   -0.9681135521    0.2033905627
 C   -0.6197749891   -0.8882536335   -1.0566304456
 O   -1.1369799274   -0.7096241329   -2.1247618174
 H    0.7810367192    1.8294234731    0.7354264587
 H    0.3888424989    1.8372134050   -0.9960778145
 H   -0.9038803534    1.9864358314    0.2059119624
 H    0.2207588141   -0.3880913433    2.1958781682
 H   -0.0315238249   -2.9860603597    1.5708576310
 H   -1.6301026020   -2.4064443233    1.0048238157
 H   -0.1743289196   -3.8276288347   -1.5888998298
 H    1.1856277511   -2.8258150937   -2.1168229041
 H    1.3349738173   -3.8257088931   -0.6544772625