20

 C    0.0480396088    1.6023193706   -0.0765834824
 C    0.0209760970    0.0643970774   -0.0084907850
 C    0.7162935869   -0.4856246891    1.2168938754
 C    2.0755831306   -0.7907229132    1.1734782056
 C    2.7224004463   -1.2690555509    2.3067599159
 C    1.9688106214   -1.4322456581    3.4618450486
 N    0.6652854495   -1.1554395508    3.5321766312
 C    0.0450675119   -0.6914876473    2.4392245869
 C   -1.4312222692   -0.4148273662    2.5950647532
 H    1.0777027961    1.9729225013   -0.0998922471
 H   -0.4630823979    1.9614890118   -0.9753017842
 H   -0.4429709441    2.0498984749    0.7929811545
 H   -1.0172603827   -0.2809759292   -0.0415913890
 H    0.5081051552   -0.3382845575   -0.9040189378
 H    2.6243437555   -0.6548380284    0.2451523781
 H    3.7787198256   -1.5136145752    2.2939158576
 H    2.4277109791   -1.8055451376    4.3746852042
 H   -1.6852928481    0.6204557326    2.3436107642
 H   -2.0330617937   -1.0587516710    1.9426520012
 H   -1.7193857782   -0.6052676442    3.6294433489