20

 O    0.2370397945    0.4157926131    0.9766028159
 C   -0.1524428635    0.1090210216   -0.3591118408
 C   -1.4974778435   -0.5617279288   -0.3170354066
 C   -1.8546944706   -1.5878967030   -1.3718008150
 C   -1.6029148816   -2.0180673216    0.0425947805
 C   -0.4669704388   -2.8845202223    0.6103163688
 C   -1.3930248100   -3.2204176194    1.8172960394
 C   -2.6010798221   -2.6087738627    1.0476067666
 H    1.0537220708    0.9230957034    0.9403334783
 H   -0.2061806748    1.0224102639   -0.9727338494
 H    0.5783308891   -0.5624057673   -0.8380876628
 H   -2.3029066150    0.0778629279    0.0368433715
 H   -2.8744694645   -1.6074061466   -1.7436190367
 H   -1.1050731055   -1.8268723784   -2.1215017621
 H   -0.2428744732   -3.7576522290   -0.0110595021
 H    0.4658535536   -2.3685470076    0.8487530349
 H   -1.4731448107   -4.2730999505    2.0967575685
 H   -1.1332063195   -2.6414946608    2.7062784811
 H   -3.2281323704   -1.8993704248    1.5953768968
 H   -3.2481551141   -3.3720440468    0.6024457631