18

 C    0.2437718541    1.4939589212   -0.2324676256
 C    0.0009142788    0.0121628818    0.0487263761
 O    0.4956199167   -0.7831156960   -1.0401269277
 C    1.3673099065   -1.8018127896   -0.5714117361
 C    2.7223456620   -1.7150917202   -1.3127369275
 C    2.5936823492   -1.9434375265   -2.7495846678
 N    2.4944517008   -2.1388254350   -3.8839060880
 C    1.4877235562   -1.5566746748    0.9103290414
 C    0.7160897880   -0.5338737783    1.2559953216
 H    1.3153780258    1.7061590076   -0.2891450999
 H   -0.2179052971    1.7738609298   -1.1830369156
 H   -0.1948572869    2.1112953545    0.5584272845
 H   -1.0853427416   -0.1562482769    0.1358562298
 H    0.9284059977   -2.7898898453   -0.7846707823
 H    3.1593596779   -0.7262212344   -1.1414251802
 H    3.4130427371   -2.4603162319   -0.9011217384
 H    2.1128984182   -2.1566294959    1.5595644337
 H    0.5820411165   -0.1276868001    2.2506986522