15

 O    0.5798253529    1.0438577167   -0.6256888896
 C    0.1288930762   -0.1483254652   -0.0507681645
 C    0.1611042293   -0.3163653833    1.5071145506
 C   -1.3409834307   -0.7311488695    1.4829805539
 N   -2.2344256260    0.2399783452    2.1321404647
 C   -2.5888882475    1.0381139015    1.2168603474
 O   -2.1575499775    0.8418582149   -0.0664137556
 C   -1.4033319793   -0.3952387548   -0.0383850203
 H   -0.1173781840    1.6989063095   -0.4964659566
 H    0.6540588005   -0.9669884777   -0.5526263085
 H    0.8646581567   -1.0617973319    1.8834745339
 H    0.3196752432    0.6243541286    2.0389731746
 H   -1.5665892277   -1.7491532737    1.8008023468
 H   -3.2289920609    1.9045861218    1.3389040952
 H   -1.8350173851   -1.0753286620   -0.7746200522