15

 C   -0.0584169134    1.4064188276   -0.0289674026
 N   -0.0235560697   -0.0482354800   -0.0309810909
 C    0.5679055732   -0.6215129080    0.9289464102
 C    0.6988056398   -2.1346088605    1.0729165002
 N    1.3367998173   -2.2693438258    2.3700806715
 C    1.7272228424   -1.0652518844    2.9045298252
 O    2.3622382895   -0.8603183176    3.9101436478
 N    1.2176259302   -0.0889750701    2.0329587869
 H    0.9493298822    1.8467144344   -0.0774190879
 H   -0.6137908457    1.7576343704   -0.9014631880
 H   -0.5554759909    1.8109026241    0.8663403646
 H   -0.2861901835   -2.6106008551    1.0340526504
 H    1.3064039561   -2.5409149801    0.2548757120
 H    1.7618214620   -3.1169935888    2.7029253492
 H    1.3160155405    0.8892299638    2.2424272212