14

 N    0.1888633530    1.2691488179    0.5817244187
 C    0.0033303908    0.0349458700    0.0397370419
 N    1.1405525796   -0.7195139275   -0.1017340762
 N   -1.1163505774   -0.5088604758   -0.3508499940
 C   -2.3253555535    0.0548815822   -0.1775536999
 N   -3.4827826413   -0.4855898278   -0.4834165531
 C   -4.3662547683    0.4849974114   -0.1194896317
 N   -3.8612626861    1.5803720316    0.3825483514
 O   -2.4777897493    1.3081984913    0.3483536269
 H    1.0271203932    1.4420483026    1.1115145502
 H   -0.6335151691    1.7968254365    0.8304774720
 H    2.0096955787   -0.2354510098   -0.2644132956
 H    1.0013063785   -1.5497076433   -0.6571439962
 H   -5.4366634486    0.3790253907   -0.2305259944