21

 C   -0.0664381632    1.5629612662    0.0591334453
 C    0.0328011153    0.0393710573    0.0090466058
 C    0.8237436517   -0.5203149504   -1.2115579677
 C    1.6188352184   -1.7105307450   -0.6654619497
 C    2.0208943556   -2.8377005939   -1.5835925195
 C    2.5283528681   -1.3911515663    0.5099524255
 O    2.1980865615   -0.1312068196    1.0950874648
 C    0.7975479433   -0.5720169716    1.1841027705
 C    1.1864679469   -2.0037926633    0.7654971056
 H    0.9335622769    2.0011022545    0.1294682491
 H   -0.5528354404    1.9584110878   -0.8383090715
 H   -0.6468175218    1.8967353564    0.9263042846
 H   -0.9763057262   -0.3958496413    0.0128984276
 H    0.1525577681   -0.8387014325   -2.0159723190
 H    1.4892209186    0.2442115340   -1.6276472899
 H    2.6489736518   -2.4737866625   -2.4047416777
 H    2.5892630474   -3.6066597715   -1.0489546558
 H    1.1429573182   -3.3230235703   -2.0259446286
 H    3.5420269440   -1.7589672010    0.6271804453
 H    0.3898056914   -0.3914137336    2.1811062274
 H    0.8752065442   -2.9518550033    1.1824698382