20

 C   -0.4214834977    1.3391330906   -0.6134742116
 O   -0.6842808474   -0.0420478521   -0.6944471408
 C   -0.8159814540   -0.6523050243    0.5703874612
 C   -1.0554524759   -2.1278933316    0.3752105879
 C   -0.1793790156   -2.9415136812   -0.6043802382
 N   -1.3880268212   -3.6935418528   -1.0716959336
 C   -2.2830040473   -2.8259409211   -0.2644302699
 C   -2.5187825910   -3.3990626088    1.1421012577
 O   -1.2894459597   -2.7950459983    1.6333053206
 H   -0.3362096255    1.7164835013   -1.6353051619
 H   -1.2325975751    1.8792907839   -0.1005788226
 H    0.5185773945    1.5438150257   -0.0775742104
 H    0.0957139675   -0.5099768560    1.1777036893
 H   -1.6539242534   -0.2150482746    1.1377639006
 H    0.2804485537   -2.3095178721   -1.3706512879
 H    0.5808242841   -3.5730027274   -0.1341119371
 H   -1.5444596951   -3.5842589533   -2.0665922730
 H   -3.1019860603   -2.3284440952   -0.7848980602
 H   -3.3911157674   -2.9980622792    1.6740455897
 H   -2.5028556631   -4.4913803036    1.2086562801