18

 C    0.1409351713    1.4138013585   -0.1346065467
 N   -0.0336116675   -0.0310652140   -0.1750132661
 C    0.6150092305   -0.7048272815   -1.0006243353
 O    1.5350948648   -0.2929050322   -1.9878470080
 C    1.5769423366   -1.6478188706   -2.4994549173
 C    2.1459766537   -2.5786900392   -1.4834374039
 C    3.2171186043   -2.1892722948   -0.4875067741
 O    4.5135347714   -2.2474377577   -1.0606640463
 C    0.6748979574   -2.1456142818   -1.3899168342
 H    0.8083911185    1.8062817058   -0.9103225919
 H   -0.8387353053    1.8929792340   -0.2341787347
 H    0.5363179664    1.6979279338    0.8468704494
 H    1.5362120289   -1.7716707272   -3.5731137646
 H    2.2385149262   -3.5970801734   -1.8566451671
 H    3.0038448256   -1.1988012754   -0.0667568356
 H    3.2216699746   -2.9038522974    0.3414137835
 H    4.5618503786   -1.5579990267   -1.7312489392
 H   -0.1501257761   -2.8425175901   -1.3871454078