17

 O    0.1175560841    1.3858663589   -0.0380970710
 C    0.0585640595   -0.0182592615    0.1661715254
 C   -1.3632809163   -0.5507154183    0.0404991290
 C   -2.0436441366   -0.5541849442   -1.3803267588
 C   -2.2461696264   -2.0697888352   -1.2340670819
 N   -0.8867873652   -2.6547747288   -1.0648034118
 C   -1.5654874701   -2.0728518415    0.1054680900
 C   -3.3414741454   -2.8558612095   -1.6921043428
 N   -4.2376646639   -3.4845163144   -2.0697113805
 H   -0.0215782292    1.5545856361   -0.9751962470
 H    0.7204637561   -0.5606928105   -0.5214258080
 H    0.4269695040   -0.1887123551    1.1841071284
 H   -2.0095857476   -0.0417066422    0.7598424969
 H   -2.9783783346    0.0061810025   -1.4052606188
 H   -1.4177712976   -0.2745097979   -2.2317990689
 H   -0.9904469639   -3.6683741360   -1.0128612989
 H   -1.7929449769   -2.6781990524    0.9743413886