21

 O    0.8395887184    0.3377166488   -0.8866525611
 C    0.0285551185   -0.3661856199    0.0192286101
 C    0.1473087292   -0.1014301388    1.5422207969
 C   -1.3969140545   -0.3124258611    1.6529445693
 C   -1.4863038422   -0.0509502498    0.1223826216
 C   -1.7647165755   -1.7526649319    2.1064500081
 C   -2.2197968409   -1.5640151697    3.5334813962
 C   -2.4389868276   -0.2815605639    3.8180322032
 C   -2.1637145200    0.6081237183    2.6301362436
 H    0.7276194822    1.2786793681   -0.7143786005
 H    0.1912874099   -1.4234153187   -0.2095229399
 H    0.8035379701   -0.7434262234    2.1356503462
 H    0.4170515259    0.9453396775    1.7281522028
 H   -1.6724178654    1.0098133406   -0.0865202476
 H   -2.1853553855   -0.6511104608   -0.4666857525
 H   -2.5788055068   -2.1704597248    1.4951980140
 H   -0.9235615885   -2.4499736605    2.0110309184
 H   -2.3803662490   -2.3953354850    4.2111251302
 H   -2.8073896063    0.0985687717    4.7645008387
 H   -1.5882285877    1.5068853003    2.8835805272
 H   -3.1061342543    0.9640513927    2.1859272750