16

 N   -0.2475882968    1.1918842340   -0.1720892789
 C   -0.0601842880   -0.0296868912    0.0219962570
 O    1.0781001840   -0.7356530752    0.3527421834
 C    0.3443822758   -1.9938810747    0.4500192576
 C   -0.9578576388   -1.2811498948   -0.0122283899
 O   -2.0181257266   -1.3080456176    0.9149804156
 C   -3.2586399481   -1.5492160167    0.2465222659
 C   -2.8806935312   -1.7983568611   -1.1839392524
 C   -1.5702150370   -1.6466355932   -1.3316573006
 H    0.6090598748    1.7323061129   -0.0371315861
 H    0.7644683798   -2.7508154519   -0.2164350358
 H    0.3004447043   -2.3523368116    1.4806118797
 H   -3.7619482823   -2.4069030364    0.7150618667
 H   -3.9183244696   -0.6760858605    0.3573889949
 H   -3.5984383372   -2.0476884296   -1.9545243724
 H   -0.9914095131   -1.7365073525   -2.2409482047