19

 O   -0.1404408011    0.1322034941    0.3575219719
 C   -0.0967475147    1.3079189362    0.1053881006
 C   -1.2873594314    2.2608098523   -0.0100690450
 C   -0.7937985712    3.3644999973   -0.9573599098
 C    0.7175303634    3.5199719904   -0.6476135117
 C    1.0511040249    4.5028697925    0.5171173529
 C    1.8368789168    3.6695081884    1.4978818374
 C    1.9224496866    2.3915461172    1.1332002126
 C    1.1900457338    2.1187609661   -0.1597681949
 H   -2.1875130797    1.7339395434   -0.3320591509
 H   -1.4832152676    2.6619036481    0.9939390484
 H   -0.9265378824    3.0388881539   -1.9952877009
 H   -1.3396684674    4.3050660434   -0.8441920030
 H    1.2574700837    3.8270189527   -1.5455888706
 H    1.6167470165    5.3750594286    0.1678203920
 H    0.1406490562    4.9062889180    0.9828734105
 H    2.2649942278    4.0863592008    2.4032760182
 H    2.4102217503    1.5998121500    1.6895811688
 H    1.8028911555    1.5663134166   -0.8802640763