14

 O    0.0012366207    0.0115147422   -0.0337746175
 C   -0.0147025026    1.2155259644    0.0096802225
 C   -1.2592016212    2.0829748115   -0.0685228908
 N   -1.3829411390    3.1235987297    0.9881092009
 C   -0.8156900767    3.4838975746   -0.3166266970
 C    0.7133484408    3.5049673982   -0.3395623154
 N    1.3291822843    3.1609704601    0.9474266314
 C    1.2025231801    2.1168962463   -0.1054493762
 H   -2.1533742909    1.6374678252   -0.4899707151
 H   -2.3594083642    3.4125451851    1.0148485299
 H   -1.3581051544    4.1471920726   -0.9808980329
 H    1.2171206372    4.1826774524   -1.0195275770
 H    2.2976830842    3.4767135508    0.9449894264
 H    2.0955878417    1.6960157470   -0.5537066593