20

 C    0.3305989177    1.3653270988   -0.2860800782
 C   -0.1887819447   -0.0244237845    0.1023680855
 C    0.5720526250   -0.6153364953    1.2721499521
 C    0.7273095796   -2.0973934410    1.5244378577
 C    0.2758293965   -3.1464628520    0.5320544065
 O    0.8357539056   -3.0160549525   -0.7901495119
 C    1.9548416113   -2.2747340341   -0.9599353044
 N    2.5169564570   -1.4672426212   -0.1642122984
 C    1.9352996931   -1.2805559935    1.1292703564
 H    1.3751597942    1.3084398744   -0.6057765377
 H   -0.2561924336    1.7918239783   -1.1056626040
 H    0.2754363004    2.0595955521    0.5598413668
 H   -1.2502018659    0.0397861328    0.3760088242
 H   -0.1428687426   -0.6880391977   -0.7655008317
 H    0.4800751856   -0.0239811022    2.1815897727
 H    0.6539688637   -2.4349970329    2.5543611681
 H    0.5654101091   -4.1360441164    0.9054132360
 H   -0.8098501080   -3.1481398414    0.3867697341
 H    2.3544373537   -2.4405443153   -1.9583541951
 H    2.6746156321   -1.0409671365    1.8861354714