20

 C    0.2531878606    1.3415796648    0.1750915244
 O   -0.2352946667    0.0620061033   -0.1641296844
 C    0.5146865640   -0.5688495829   -1.1696810378
 C    1.9159931586   -1.1188744918   -0.8415972956
 C    1.8273395838   -2.2180236824    0.1813186819
 C    1.4532691585   -2.5295203215   -1.2408604994
 C    0.0592168676   -1.9986065479   -1.5021614497
 C   -1.2674345261   -2.5984472298   -1.2590527592
 N   -0.7678392426   -2.3803553460   -2.6372021589
 H    1.2770956683    1.2954723709    0.5736139462
 H    0.2504152473    2.0199019786   -0.6930826572
 H   -0.4069842070    1.7495102160    0.9440552304
 H    0.5473394378    0.0603412192   -2.0753359289
 H    2.8501234017   -0.6279239154   -1.0831087725
 H    2.7807895046   -2.6136888579    0.5156514544
 H    1.0587563165   -2.1813364781    0.9482615273
 H    1.9664319927   -3.2628905715   -1.8488733234
 H   -1.3495193990   -3.6413749706   -0.9651492155
 H   -2.0472106855   -1.9462599294   -0.8759239365
 H   -1.2107634450   -1.5577127576   -3.0417517855