19

 C    0.2177513028    1.6760088892    0.1396308380
 C   -0.0333984448    0.1846597234    0.1977900207
 O    0.5561561186   -0.5364665950   -0.9232310313
 C    1.1751662468   -1.5022709146   -0.0563474949
 C    2.6444209075   -1.1900082854    0.3020193354
 C    2.1709035419   -0.3861400626    1.5515559040
 C    0.6930675925   -0.7197957381    1.2215207622
 C    0.7631991498   -2.9129972178   -0.3538466124
 O    1.3686028381   -3.8857107436    0.0235078472
 H    1.2852736069    1.9073660497    0.1021159338
 H   -0.2490631910    2.0945054837   -0.7575161797
 H   -0.2200538059    2.1714794489    1.0129840294
 H   -1.1164742814   -0.0033681134    0.2175839755
 H    3.2033050526   -2.0956458099    0.5458917916
 H    3.1673630610   -0.6287496502   -0.4743067243
 H    2.4991471011   -0.8256861272    2.4953601723
 H    2.4225808449    0.6762506211    1.5686485239
 H    0.0837133717   -1.1622736588    2.0084645891
 H   -0.1776007628   -2.9910632595   -0.9432867503