15

 C    0.3108769955    1.7435018479    0.0487737820
 C    0.0521073595    0.2191054162   -0.0916293604
 C    0.7892494274   -0.4794876885    1.0772570636
 O    0.2446735165   -1.0406108486    1.9830536415
 C   -1.3772491953   -0.0767132344   -0.0530514237
 N   -2.5076185966   -0.3147763675   -0.0914734671
 C    0.7440091768   -0.2779293006   -1.3975949648
 N   -0.0244461197   -0.9768289397   -2.2604185203
 O    1.9239446025   -0.0402115952   -1.5600057690
 H    1.3842248912    1.9238061895   -0.0269510650
 H   -0.1937965670    2.2871677953   -0.7530625069
 H   -0.0618863576    2.1054841051    1.0094666637
 H    1.8885520439   -0.3813573815    0.9874994231
 H   -1.0034689079   -1.1447067985   -2.0969906461
 H    0.4040795408   -1.3202945194   -3.1047745007