19

 C   -0.1038324083    1.4549795477   -0.0189558161
 C    1.4826841138    1.6396418077    0.0129522279
 C    2.2717822277    1.5771964128    1.3558820970
 C    2.4846176579    0.0832230586    1.6124284860
 C    2.1102785318   -0.6639440581    0.5695105712
 C    1.2717155447   -1.9449788480    0.4937830349
 C   -0.0884745370   -1.2261519398    0.2662289228
 C    0.1422680474   -0.0286553552   -0.2874495084
 C    1.6137514356    0.2032983181   -0.5551753839
 H   -0.6785650487    1.6917667410    0.8816831591
 H   -0.5247302132    2.0164926998   -0.8593794284
 H    1.8123540987    2.4654785482   -0.6189625455
 H    3.2046883912    2.1538096022    1.2849873137
 H    1.7107216741    2.0188557453    2.1903951574
 H    2.6878034219   -0.2958943838    2.6090025410
 H    1.5679389935   -2.6184798315   -0.3196977043
 H    1.2620512574   -2.5232244765    1.4221511349
 H   -0.9922977317   -1.5485116643    0.7716251962
 H    2.0180175529    0.0398993959   -1.5570269157