17

 C   -0.4611444746    1.3108430428   -0.2219423029
 N    0.0320412701   -0.0480992456   -0.0567712843
 C    1.4184265746   -0.4138140697   -0.3108456564
 C    2.4873819161    0.6600360372   -0.3764819424
 C    2.4443898301    1.3824900054    0.9804584790
 O    3.0263217948    2.3996481372    1.2497367339
 C    1.5321964910    0.5944678449    1.9354429266
 C    0.8425539274   -0.4533585180    1.0830479229
 H   -0.7082515015    1.4654753187   -1.2768342650
 H   -1.3834142275    1.4190677089    0.3572622702
 H    0.2215544371    2.1172144949    0.0830322656
 H    1.5569038473   -1.3129800868   -0.9049758760
 H    3.4794586032    0.2082249914   -0.5006312149
 H    2.3685402366    1.3837387036   -1.1890573716
 H    2.1566375912    0.1174239794    2.7011222801
 H    0.8603564437    1.2802027203    2.4613216452
 H    0.5396128103   -1.3828349348    1.5573525400