19

 C    0.1684405240    1.5678242854    0.0387019957
 C    0.0138894608    0.0432700130    0.0299354491
 C    0.5369857140   -0.5678484342   -1.2595472114
 O    1.9614441005   -0.3550199114   -1.4306688571
 C    2.2032463525   -1.7620305531   -1.6204796194
 C    0.7155944647   -2.1097530696   -1.3920663766
 C    0.3920669994   -3.0058146894   -0.2035153454
 H    1.2177333705    1.8436798984   -0.0986689303
 H   -0.4085987445    2.0290944683   -0.7705693604
 H   -0.1780791158    1.9963363631    0.9837781323
 H    0.5520761483   -0.3861679179    0.8820728439
 H   -1.0429948844   -0.2319477861    0.1455842447
 H   -0.0113853255   -0.1340300828   -2.1100584584
 H    2.5965606592   -1.9805122447   -2.6217291628
 H    2.9021212465   -2.1623433764   -0.8734612102
 H    0.2278167488   -2.5028457714   -2.2881539277
 H    0.8988533529   -2.6741165340    0.7079239565
 H   -0.6836406458   -3.0327135487   -0.0003575026
 H    0.7150895839   -4.0332485584   -0.4039093198