17

 O    0.5831136431    1.0545416808    0.5384287097
 C    0.0379445714   -0.1705357821    0.1304374401
 C   -1.4938681638   -0.1730155340   -0.1668195287
 N   -1.1575251313   -0.7119139020   -1.4997022492
 C   -1.9581083205   -0.6902588090   -2.7071087201
 C   -2.3643390542    0.6546220814   -3.1263330155
 C   -2.6951981651    1.7679682517   -3.4339882235
 C    0.2037628384   -0.4878576553   -1.3547604436
 N    1.2340943566   -0.4290758649   -2.0865613997
 H    1.3344457390    1.2253100143   -0.0429898290
 H    0.3430965440   -0.9895484523    0.7941669983
 H   -2.1277777537   -0.8293152342    0.4361756233
 H   -1.9017109228    0.8424674135   -0.1950078313
 H   -1.3744633060   -1.1716255899   -3.5009654559
 H   -2.8474992804   -1.3148489849   -2.5575664524
 H   -2.9836411171    2.7502299067   -3.7173393176
 H    1.0302451623   -0.5652304298   -3.0774422251