20

 C   -0.1817070370    1.4140068758    0.2619895048
 C    0.0188657872   -0.0584588044    0.1184422461
 C   -0.8001735390   -1.1506704850    0.7682796222
 C    0.7186662210   -1.1364694289    0.9149648949
 C    1.3223766515   -1.5474936616   -0.4236766856
 O    0.5464156951   -0.5390642713   -1.1268980111
 N    1.5096197353   -1.1206154377    2.1006933998
 C    0.9068566717   -0.7322290834    3.3717327605
 C    1.2494928403   -2.1544567139    3.1092173669
 H    0.7462442044    1.9554955355    0.0550868831
 H   -0.9461155610    1.7645002339   -0.4408453385
 H   -0.5138463870    1.6625745603    1.2738393158
 H   -1.3593437679   -0.8385536254    1.6448679373
 H   -1.2968922355   -1.8960996516    0.1514267151
 H    2.3932839988   -1.3266107304   -0.4812012245
 H    1.1226804227   -2.5604719297   -0.7927493144
 H    1.5383034642   -0.1201450107    4.0092836838
 H   -0.1486967040   -0.4733459663    3.4000510671
 H    0.4206989625   -2.8353175511    2.9275710546
 H    2.1308099768   -2.6036572342    3.5569211122