23

 C   -0.0156808240    1.5478299945   -0.4278482954
 C    0.0028292639    0.1346009456    0.1682272292
 C   -1.3608134587   -0.5307949649    0.1554126969
 O   -2.3366593961    0.1559711528    0.9063070051
 C   -1.8513240750   -1.2700155445   -1.0703701722
 C   -1.5312729677   -2.0209695349    0.2148429274
 C   -0.3845206344   -3.0045558720    0.2981119136
 C   -0.7974895759   -4.4043797449   -0.1457569691
 O    0.3403036273   -5.2473475787   -0.0400978378
 H    0.9835567030    1.9925495835   -0.4147210179
 H   -0.3645308802    1.5368174611   -1.4664706898
 H   -0.6724993164    2.2114263571    0.1449055833
 H    0.7167696020   -0.4828993037   -0.3857046095
 H    0.3595088376    0.1797652624    1.2047467606
 H   -2.5748793598    0.9526164345    0.4201245709
 H   -2.8937404866   -1.1531295124   -1.3456205567
 H   -1.1677297614   -1.3857689443   -1.9065841720
 H   -2.4094003867   -2.3080280499    0.7885238093
 H    0.4553713650   -2.6862947100   -0.3285677644
 H   -0.0041435558   -3.0655991847    1.3252720708
 H   -1.6228737914   -4.7658801683    0.4893279023
 H   -1.1755303218   -4.3673569993   -1.1800140793
 H    0.0852121433   -6.1325889590   -0.3151132453