21

 C   -0.1558278803    1.5373008653   -0.1105316204
 C    0.0080041234    0.0312441720   -0.0296458297
 C    1.2998088890   -0.7128120468   -0.2752025310
 C    2.6366813536    0.0070389569   -0.3127354360
 O    2.7661892878    1.0179927002    0.6886053012
 C    2.6401183736    0.5410761300    1.9969568668
 C    1.5050175213    1.0998851643    2.8097304973
 C    1.4329263335   -0.3160351681    2.2740316413
 C    0.6317308882   -0.7916941046    1.0888077308
 H    0.7573859009    2.0727750324    0.1438036690
 H   -0.4323954151    1.8192227132   -1.1330559008
 H   -0.9611415670    1.8816234911    0.5484807594
 H   -0.8550947330   -0.4855106259   -0.4459547195
 H    1.2697970931   -1.5884051522   -0.9184003587
 H    3.4483949505   -0.7314461393   -0.2099120258
 H    2.7824114884    0.5302403300   -1.2634827995
 H    3.5907495462    0.3174549884    2.4797419504
 H    1.6581491964    1.2173113555    3.8771323000
 H    0.8980469720    1.8698905795    2.3536109455
 H    1.5691800947   -1.0926927448    3.0205227480
 H    0.0897453328   -1.7075191870    1.3028248516