21

 C   -0.0194680272    1.5530879179    0.0106770960
 C   -0.0217594945    0.0432304162   -0.0095857280
 C    0.3742372931   -0.8029860909   -1.2776715689
 C   -0.3534962412   -1.9374339956   -0.4774927925
 C    0.5511971517   -2.0156941906    0.7629158884
 C    0.7655222591   -0.7332981958    1.0668938878
 C   -1.3266211277   -0.8154364810   -0.0311432822
 C   -2.5144051200   -0.8329033473    0.8633362570
 C   -2.6562115864   -0.4590534144   -0.6091433609
 H    0.9980287637    1.9459936345   -0.0936340851
 H   -0.6193746814    1.9636915178   -0.8080654645
 H   -0.4269788826    1.9390865033    0.9523747753
 H   -0.1621438471   -0.4948494635   -2.1808397755
 H    1.4413414047   -0.9373347557   -1.4720462648
 H   -0.6975242305   -2.8591980111   -0.9461574986
 H    0.8975879283   -2.9151194821    1.2518932837
 H    1.3349223638   -0.2917396389    1.8734289011
 H   -2.9092476080   -1.7915324932    1.1851864781
 H   -2.6256823532   -0.0402081892    1.5971151046
 H   -2.8625943786    0.5803635264   -0.8475427702
 H   -3.1462960558   -1.1681615669   -1.2696643808