20

 C   -0.0334985951    1.5777889382   -0.1089217523
 C    0.0131536528    0.0573743844   -0.0033889188
 C   -1.3694556946   -0.5809095581   -0.1386010827
 C    1.0598035151   -0.6628737408   -0.8942466855
 N    2.3969518817   -0.1723561700   -0.4930040815
 C    1.7415006906   -1.2613026122    0.2865712023
 C    0.7829803887   -0.5473472632    1.2162396916
 C    0.9649987691   -0.0797991203    2.5861926173
 O    0.1142858352   -1.2021181786    2.2771221083
 H    0.9726350311    1.9989674637   -0.0504931605
 H   -0.4842735350    1.8879776216   -1.0587657083
 H   -0.6397407867    2.0070430828    0.6968446932
 H   -1.8302363715   -0.2968153407   -1.0911166451
 H   -1.3128648184   -1.6728842724   -0.0959840809
 H   -2.0273073289   -0.2534378800    0.6713685002
 H    0.8864827703   -1.0850144068   -1.8772254963
 H    3.0802294067   -0.6176618475   -1.1055730691
 H    2.2086241300   -2.2284760750    0.4237336548
 H    1.8789364631   -0.3220734757    3.1264472596
 H    0.4430073156    0.8116376406    2.9306062235