20

 C   -0.0247639234    1.6371542210   -0.0999231072
 C    0.0091951693    0.1222550204   -0.0713054319
 C   -1.1457623860   -0.5210822790    0.6406427962
 O   -2.1439986673    0.0510939154    0.9998086813
 C    0.5938879037   -0.7281025056   -1.1736550463
 C    1.4771544947   -0.0600009666   -2.2173914656
 C    2.5850847267    0.6522371360   -1.4021660634
 C    2.5201059796   -0.0077521707   -0.0003907715
 N    1.2329290335   -0.7126889036    0.1370768421
 H    0.1745557792    2.0526332447   -1.0897114206
 H   -1.0254526291    1.9500301228    0.2076006922
 H    0.6896415796    2.0736830717    0.6053889440
 H   -0.9986386623   -1.6095312532    0.8099472352
 H    0.0839095343   -1.6463862019   -1.4575244086
 H    1.8973581767   -0.8360942642   -2.8651343904
 H    0.9233696091    0.6280709803   -2.8636752246
 H    3.5695402135    0.5290613805   -1.8600564586
 H    2.3958423847    1.7250795255   -1.3380081955
 H    3.2982786668   -0.7697137374    0.1110797622
 H    2.6518519870    0.7090150040    0.8156572311