18

 O    0.1928256985    1.2980839665   -0.5322785259
 C    0.0505839166    0.0035991318   -0.0668396960
 C    0.6097722508   -1.0380574503   -1.0653564068
 C   -0.7764384049   -1.7403792564   -1.1623534698
 C   -1.3336183084   -0.8266085463   -0.0393845534
 C   -0.9477807275   -1.2840013053    1.4058162536
 C    0.2694893621   -0.3142532737    1.4254955950
 C   -2.6154206477   -0.1987033282   -0.2102799050
 N   -3.6260863535    0.3511683882   -0.3426093246
 H   -0.2424983610    1.9041010930    0.0782994621
 H    0.9352262302   -0.5690448560   -1.9945970103
 H    1.4260542336   -1.6488576259   -0.6724339657
 H   -1.2684501218   -1.5640427835   -2.1201451750
 H   -0.8083299645   -2.8099952483   -0.9426919211
 H   -1.7087429078   -1.0735237482    2.1574667342
 H   -0.6923516678   -2.3445840386    1.4574893810
 H    1.2447207160   -0.7232351209    1.7028017609
 H    0.0735607571    0.5640000222    2.0498157766