15

 C   -0.1199894778    1.4579357592   -0.0453443437
 N   -0.1417234166    0.0064060562   -0.1307128311
 C    0.5849504650   -0.5888927073   -0.9551960833
 O    1.4394565495   -0.0466268115   -1.8774288602
 C    2.1011305733   -1.1101799577   -2.5534942643
 O    1.2951950615   -2.2568503342   -2.3919839106
 C    0.6565474954   -2.1071112591   -1.1370392849
 C    1.4207160393   -2.7508700447   -0.0496820882
 N    2.0353091064   -3.2593264854    0.7855150795
 H    0.5559431566    1.9409181757   -0.7591273571
 H   -1.1357688976    1.8346574956   -0.2040164285
 H    0.1712267688    1.7443686236    0.9706710642
 H    2.1718124264   -0.8775781309   -3.6178197323
 H    3.0979547210   -1.2524520987   -2.1120773071
 H   -0.3410930309   -2.5472832709   -1.1888332424