20

 C   -0.3253107053    1.1771377698   -0.0270920720
 O    0.1646273316   -0.1417675530    0.0590014657
 C    0.7855379978   -0.5914591182   -1.1335937752
 C    1.4042151805   -1.9719218636   -0.9111373983
 C    0.4958491333   -3.0487308293   -0.3677132591
 C    0.7107350766   -2.9221785454   -1.8544377977
 N   -0.2088117771   -2.1915413100   -2.7333136686
 C   -1.4026089424   -1.5883062922   -2.1304191099
 C   -0.1744387592   -0.7748492741   -2.3270032965
 H    0.4766398495    1.8938307808   -0.2666724772
 H   -1.1143517259    1.2765002219   -0.7869790531
 H   -0.7434989279    1.4315859086    0.9498717685
 H    1.5711709315    0.1255604009   -1.4200584229
 H    2.4675281958   -2.0250319152   -0.7097608988
 H    0.9760062061   -3.8935639598    0.1150350410
 H   -0.4387929896   -2.7580994140    0.0934842509
 H    1.2467553047   -3.7123201898   -2.3677960351
 H   -2.2399314493   -1.4733971998   -2.8137533599
 H   -1.6864828966   -1.8483017303   -1.1168213548
 H   -0.1275960939   -0.0476851574   -3.1338339572