14

 O   -0.0069243019   -0.0298315304   -0.2084787385
 C    0.0281626444    1.1651341182   -0.0073937871
 N   -1.1459662555    1.8994807027    0.1766855162
 C   -1.2177868887    3.2833621191    0.0638349228
 N   -0.2319006354    4.0767737314   -0.0527823111
 C    1.0772803168    3.5181086378   -0.0000875756
 C    1.5427054137    2.8484258344    1.2562200251
 C    1.2600389103    1.9858290530    0.0399435649
 H   -1.9965121363    1.3572139841    0.1190181730
 H   -2.2327098172    3.6769174574    0.0678852817
 H    1.8131117332    4.0872999399   -0.5575412000
 H    2.5839341905    2.9584189883    1.5351008448
 H    0.8490584433    2.8017296685    2.0883952012
 H    2.1037572127    1.5272066258   -0.4607997774