23

 C   -0.0071069154    1.6132402137    0.2016571988
 C    0.0269744410    0.0855234251    0.2959441330
 C   -1.3519392667   -0.5599336463    0.1237847803
 C   -1.3241847879   -2.0926449399    0.2141118171
 C   -2.7112741734   -2.7078156199    0.0997713452
 C   -3.4824429101   -2.8712219337   -1.2462785582
 C   -2.5565315345   -4.0387181602   -1.6632190922
 C   -2.9730927502   -4.2155917408   -0.1831564994
 O   -4.3585959997   -3.8581557870   -0.5715516621
 H    0.9909989453    2.0441387964    0.3280124489
 H   -0.3905213875    1.9415025761   -0.7709230064
 H   -0.6554108387    2.0434802637    0.9731802037
 H    0.7111522908   -0.3135935330   -0.4647637166
 H    0.4466409616   -0.2133960434    1.2657072512
 H   -2.0365547938   -0.1635061042    0.8862753350
 H   -1.7747610661   -0.2599789280   -0.8450400321
 H   -0.6467525218   -2.4871513657   -0.5517944633
 H   -0.8925447832   -2.3878404318    1.1805044014
 H   -3.3791040258   -2.3381869182    0.8841697615
 H   -3.9677213620   -2.1173167627   -1.8675060621
 H   -3.0101527908   -4.7534529510   -2.3506073093
 H   -1.5117662561   -3.8315318181   -1.9012718772
 H   -2.8444379650   -5.0764191413    0.4746371828