25

 C    0.4423901728   -0.1339634135    1.6728689116
 C    0.0599581822   -0.2111507397    0.1910183737
 C   -1.3866884737   -0.6833069185   -0.0794184118
 C   -1.8512656300   -0.2730256746   -1.4917777700
 C   -2.2752043220    1.1880234522   -1.5867216185
 O   -2.6506967670    1.4437541466   -2.9330228194
 C   -1.5162641805   -2.2023471306    0.1507030032
 C   -2.9603680635   -2.7012268677    0.2401388405
 O   -0.8103137347   -2.8417346013   -0.9124980209
 H    1.4737788107    0.2127488674    1.7930582572
 H   -0.2070032704    0.5642962555    2.2136846875
 H    0.3680341788   -1.1057563269    2.1719005991
 H    0.2032779795    0.7790658665   -0.2558729706
 H    0.7405892495   -0.8869205031   -0.3391462455
 H   -2.0472629681   -0.2026886743    0.6579665268
 H   -1.0501636612   -0.4589821818   -2.2139903707
 H   -2.7005052447   -0.8810099633   -1.8176090854
 H   -3.1177818812    1.3728190758   -0.8987432765
 H   -1.4540019854    1.8529382270   -1.2752288871
 H   -2.8971554891    2.3703467462   -3.0048199928
 H   -1.0259105755   -2.4381468964    1.1091502443
 H   -3.5118188553   -2.5121695650   -0.6847279542
 H   -2.9790464631   -3.7818236015    0.4254370969
 H   -3.4896704303   -2.2174635249    1.0678231803
 H   -0.8677561476   -3.7926672042   -0.7796974277