20

 C   -0.1068850597    1.5119311637    0.0815297289
 C   -0.0413106095    0.0128997458    0.0043465746
 C   -0.1426844971   -0.6788302522   -1.1335609954
 C   -0.0437922866   -2.1858186514   -1.2221071358
 O    0.3853291547   -2.6036718079   -2.5147681047
 C    0.8672607857   -2.7600912071   -0.1207097736
 C    0.5916405423   -2.1366004435    1.2417371378
 N    1.5289780904   -1.0757632131    1.6748471027
 C    0.1379179961   -0.7260870167    1.2884738611
 H    0.8170678103    1.9153489838    0.5143172157
 H   -0.2506844109    1.9616909239   -0.9044119907
 H   -0.9280818669    1.8426496454    0.7307063099
 H   -0.3052460491   -0.1691294200   -2.0811418014
 H   -1.0481402135   -2.6213435138   -1.1268520464
 H    1.2572539145   -2.2201053195   -2.6633741367
 H    0.7581127806   -3.8482588486   -0.0875429640
 H    1.9061127440   -2.5422663726   -0.3933318337
 H    0.2141810657   -2.8041891318    2.0120146943
 H    1.6052239002   -1.0816359021    2.6902410079
 H   -0.5330613811   -0.4295560223    2.0937497696