19

 O   -0.0810220101    1.3351633988   -0.0851640422
 C   -0.0437747386   -0.0720283980   -0.0129914150
 C    1.0291969817   -0.6991702165   -0.9006417325
 C    0.6383231845   -2.0307408066   -1.4915207668
 C   -0.4295763858   -2.7109169653   -1.0786152326
 C   -1.2734812229   -2.1934636317    0.0533374583
 C   -0.5208073300   -2.1124897119    1.4405398675
 C   -0.5256584247   -0.5904851756    1.3323786322
 C   -1.4141493901   -0.6539245636    0.0836656391
 H    0.6801717959    1.6734121137    0.3991533282
 H    1.2233385757    0.0125580940   -1.7132831352
 H    1.9815263821   -0.7929776817   -0.3558898418
 H    1.2717821594   -2.4166153062   -2.2859701628
 H   -0.6794377618   -3.6709622113   -1.5213767430
 H   -2.2258437665   -2.7189267418    0.1275043989
 H   -1.1550479464   -2.4597382413    2.2605778984
 H    0.4464753534   -2.6211536288    1.4989814529
 H   -0.5886907311    0.1060491701    2.1607840704
 H   -2.2960926748   -0.0828178963   -0.1772592241