19

 C    0.2145912308    1.5616892513    0.1203519046
 C    0.1008383914    0.1126672522    0.0555502630
 C    0.0045465367   -1.0874367500    0.0102418715
 C   -0.0671517767   -2.5211865981   -0.0661438229
 O   -0.5772374429   -3.2311018902    1.0804409867
 C   -1.3517859999   -3.2583603328   -0.1182022678
 C   -2.6772700502   -2.5835856183   -0.1039130468
 C   -3.6346315366   -2.8218675952   -1.2486935646
 C   -3.9262642440   -3.4070947598    0.1064417536
 H    1.2567577551    1.8830477347    0.0172644311
 H   -0.3636547027    2.0439692004   -0.6755175566
 H   -0.1568818242    1.9419697996    1.0782185466
 H    0.8008507335   -2.9997052271   -0.5210110687
 H   -1.3357709678   -4.2235823715   -0.6318579855
 H   -2.6634565645   -1.5891899918    0.3281894279
 H   -4.2280501190   -1.9832841805   -1.5942682001
 H   -3.3234325659   -3.4987574159   -2.0379062621
 H   -3.8106750085   -4.4784254985    0.2337223581
 H   -4.7233704846   -2.9733251186    0.6994142219