13

 O   -0.2093435673    1.3004016992    0.1278744642
 C    0.0106974809   -0.0840722658    0.0196685699
 C    0.6896916012   -0.4436104231   -1.2373248859
 N    1.2533545120   -0.6828641511   -2.2166538644
 C    0.8098972931   -0.6233004151    1.2500571213
 C    0.1699122458   -0.0505621919    2.5358298678
 O    0.7640240140    0.6639957833    3.2877586462
 C    0.7909350778   -2.0816497616    1.2957373577
 N    0.7299529053   -3.2341628073    1.3526615523
 H    0.6277191425    1.7688907340    0.0199055914
 H   -0.9824961629   -0.5451250928    0.0213090056
 H    1.8427041571   -0.2630361767    1.2094326918
 H   -0.8826507295   -0.3600533310    2.6983944222