16

 O    0.0014206934   -0.0284629472   -0.0480912493
 C   -0.0124163370    1.1833129674    0.0006187255
 C   -1.2574189691    1.9932230178    0.0547356469
 C   -1.1231665260    3.3263057383    0.1069929125
 C    0.2669073987    3.9179661935    0.1084018391
 C    1.0991695423    3.2074247839   -1.0059597441
 C    1.2572197131    2.0350439161    0.0150208102
 C    1.1340897928    3.1197346570    1.1331438311
 H   -2.2095204921    1.4748666214    0.0493753247
 H   -1.9831885945    3.9882229792    0.1483333942
 H    0.2630362391    5.0075517034    0.1531345939
 H    0.6014617708    3.0044672538   -1.9567589266
 H    2.0555547896    3.7064483199   -1.1843090660
 H    2.1389089808    1.3955104564   -0.0255727646
 H    2.0964250187    3.6038001829    1.3204877242
 H    0.6673571492    2.8389762663    2.0798535384