27

 C   -0.2874149391    1.4345760800   -0.0651995959
 C    0.0887432539   -0.0506285575   -0.0821101116
 C    0.7967043544   -0.5067481831    1.1876779151
 C   -0.0162824253   -0.5813082705    2.5120135800
 C    0.6721084551   -1.9447831623    2.8436586187
 C    1.8554550454   -1.7562926932    3.7977271418
 C   -0.2767742609   -3.0543013028    3.3116002411
 C    0.3435066613   -4.4551526110    3.3707862008
 C    1.1290704691   -2.0156620971    1.3491155455
 H    0.6025981711    2.0659073029    0.0354438067
 H   -0.8012448148    1.7279764049   -0.9860253633
 H   -0.9520663327    1.6658395920    0.7743914925
 H   -0.8157900075   -0.6578474508   -0.2248026712
 H    0.7326826288   -0.2568196647   -0.9478978996
 H    1.6995323013    0.0981646396    1.3321777200
 H    0.1145813571    0.2275804855    3.2368818931
 H   -1.0887000760   -0.7031634314    2.3214153046
 H    1.5075619370   -1.5316484324    4.8130980007
 H    2.4830857408   -2.6520428234    3.8475180250
 H    2.4954979680   -0.9274686951    3.4770753961
 H   -0.6766655487   -2.7881017192    4.3002183036
 H   -1.1392856524   -3.0774748564    2.6329224994
 H    0.7767960045   -4.7375423024    2.4048073400
 H    1.1363847469   -4.5211758871    4.1219517563
 H   -0.4118955318   -5.2049948865    3.6258430543
 H    0.4594347762   -2.6416712690    0.7486658359
 H    2.1591438383   -2.3284904290    1.1543979105