23

 C   -0.1542364797    1.5781428713   -0.0443440633
 C    0.0376942764    0.0632647986   -0.0577165872
 C    0.6284833289   -0.6410586527   -1.2811125928
 C    2.1503510583   -0.7046134824   -1.2386583705
 C    2.9408362848    0.2697381908   -0.3659131834
 C    2.4359572953   -0.0345406146    1.0732445473
 C    2.4635815014    1.1414320671    2.0510105317
 C    1.0782585717   -0.7261543810    0.8326630233
 C    1.3376932398   -1.6472542003   -0.3934174194
 H    0.7518138906    2.1273295758   -0.3092500066
 H   -0.9247264044    1.8556148096   -0.7737701688
 H   -0.4926500478    1.9321924316    0.9358277042
 H   -0.9375011761   -0.3977780792    0.1417594829
 H    0.1017155453   -0.8238416872   -2.2121518847
 H    2.6062796371   -1.0912313636   -2.1441454892
 H    4.0179543148    0.0931690421   -0.4572417369
 H    2.7715518399    1.3154407452   -0.6456280815
 H    3.0904309136   -0.8167530876    1.4842517822
 H    1.8586120222    1.9834234108    1.7065489461
 H    2.0888507056    0.8423782360    3.0362607530
 H    3.4878094979    1.5060291448    2.1873078569
 H    0.6567758287   -1.1748099068    1.7340748974
 H    1.3574477158   -2.7283324082   -0.4287421609