19

 C   -0.0139439334    1.4230215157   -0.1863102695
 C   -0.0619196166   -0.0560675683    0.0712034131
 C   -1.2945262780   -0.8741475251   -0.2744780582
 O   -1.1408293609   -2.1224121685    0.3891460669
 C   -0.2315604443   -1.9948766560    1.4922419199
 C    0.5363276648   -3.3096773087    1.5839445344
 O   -0.3430684632   -4.4081062193    1.7214702548
 C    0.5959329549   -0.7695192759    1.1713910368
 O    1.1443102517   -0.8048478470   -0.1546112728
 H    0.9287306282    1.8418942525    0.1730624166
 H   -0.0904923139    1.6319887135   -1.2588610294
 H   -0.8413320022    1.9344664900    0.3161977860
 H   -2.1980512926   -0.3454198036    0.0694823352
 H   -1.3931046942   -1.0699058777   -1.3478189554
 H   -0.7905067689   -1.8260964021    2.4274936879
 H    1.1724132414   -3.4011056028    0.6918926647
 H    1.1808890848   -3.3040249379    2.4696286761
 H   -0.9721193478   -4.3341390305    0.9941772039
 H    1.1969953001   -0.2813902783    1.9341668189