16

 O    1.8858846946    1.7504695161    1.8865759936
 C    1.2984105038    1.2088195132    0.9890155962
 C    0.9687054904    1.8662841469   -0.3593318422
 O    0.8814810978    1.1345318218   -1.3239912156
 C    0.8452087655    3.3297128253   -0.4446229291
 C    0.8399818494    4.1584660601   -1.7338451587
 C    1.6178422393    5.2883319198   -0.9776250557
 C    1.5903823469    4.4362935218    0.2997490023
 N    0.2508185413    4.0657571106    0.6813171848
 H    1.0177947178    0.1337914045    1.0042478166
 H    1.4293166175    3.7003154552   -2.5292673120
 H   -0.1501490761    4.4053092951   -2.1288055928
 H    2.6245347796    5.4334088001   -1.3740359567
 H    1.1288465567    6.2639985177   -0.8938204377
 H    2.3717430263    4.3247571690    1.0404029588
 H   -0.4566269710    4.7210308627    0.3513642781