22

 C   -0.2528658660    1.6222935113   -0.0084641615
 C   -0.0556310853    0.1159259328    0.0125117484
 C    1.1740934898   -0.5060382646   -0.6574549166
 C    2.1481822120   -0.1661622079    0.5145918497
 C    0.7625688636   -0.5349845112    1.1326917192
 N    1.0740785434   -1.7728912520    0.2416574534
 C    2.5726182703   -1.6415585255    0.5881976426
 C    3.4995751229   -2.1873342998   -0.4916108064
 C    2.9393535335   -2.2267022071    1.9469411882
 H    0.6761390596    2.1578965885    0.2137806484
 H   -0.6045039602    1.9576115121   -0.9901671641
 H   -1.0002010913    1.9297685099    0.7309795474
 H   -0.9832756985   -0.4244537384   -0.2094867852
 H    1.4029156292   -0.5924788813   -1.7203489736
 H    2.7403943615    0.7440299278    0.6654793656
 H    0.5049579415   -0.6556148629    2.1856211451
 H    3.2831341760   -1.7780954417   -1.4810400576
 H    4.5429495351   -1.9523584132   -0.2539910952
 H    3.4090095831   -3.2773962099   -0.5512036591
 H    2.8437495445   -3.3177662362    1.9265521746
 H    3.9788856423   -1.9881525752    2.1975324025
 H    2.3072962228   -1.8495946554    2.7541431343