17

 O   -0.0119085896    1.2900583741    0.5160334773
 C   -0.2501856109   -0.0760636056    0.6737129733
 C   -1.2636132184   -0.5696257544   -0.3451883114
 O   -1.7546484263    0.2069789965   -1.1446712031
 C   -1.6259158621   -1.9957295209   -0.3115637376
 C   -2.2244865111   -2.7703154616   -1.4538334763
 C   -3.0027025403   -2.6563893172   -0.1772255672
 C   -2.3313036109   -3.4816494264    0.9166355901
 O   -1.0365963315   -2.8682699932    0.6544049949
 H   -0.5837694974    1.5628831120   -0.2197825537
 H    0.6717980970   -0.6693103551    0.5583787619
 H   -0.6314406073   -0.3136186753    1.6799952022
 H   -2.5875695961   -2.1528845337   -2.2678132613
 H   -1.7477429841   -3.7058668805   -1.7318462219
 H   -3.9672651425   -2.1724315336   -0.1130265312
 H   -2.6729041578   -3.2344215723    1.9268131847
 H   -2.3066010706   -4.5688199529    0.7844279294