20

 C   -0.2113072651    1.5290787423   -0.1474268217
 C   -0.0549102787    0.0061174604   -0.1362223460
 C    0.8887565902   -0.5397974781   -1.2378831119
 C    2.3452645393   -0.0951290993   -1.0597990127
 C    0.8027342913   -2.0336442296   -1.2949380328
 N    1.7032038035   -2.9198575679   -1.0039488675
 C    1.0787794399   -4.1439910327   -1.2157391711
 C   -0.1885604670   -3.9270585755   -1.6307058855
 O   -0.3842834063   -2.5750365794   -1.6879878410
 H    0.7308872408    2.0416263162    0.0674955526
 H   -0.5695816661    1.8827064952   -1.1209491250
 H   -0.9366587039    1.8469459251    0.6077560004
 H    0.3199278498   -0.3255303400    0.8404069338
 H   -1.0387171941   -0.4578625823   -0.2648004765
 H    0.5156594018   -0.1618052429   -2.2006565040
 H    2.7415260441   -0.4437418178   -0.1019882478
 H    2.9794146127   -0.5102217264   -1.8466725020
 H    2.4231619864    0.9941437563   -1.0945797181
 H    1.5904347223   -5.0794680666   -1.0547756705
 H   -1.0212418408   -4.5481949071   -1.9117375325