21

 C   -0.0292695640    1.5043647166   -0.0077254621
 C    1.2967461701    0.7751991702    0.0071473652
 C    0.0074800098    0.0011220807    0.0102513792
 C   -0.4747130321   -0.8515511168    1.1976325362
 C   -1.1028570089   -2.0097212444    0.4196094561
 C   -0.2037049326   -2.3503968273   -0.8164703060
 C   -1.4726500624   -2.7237345747   -1.6169627618
 C   -1.8507224250   -1.4447145703   -0.8349393345
 C   -0.4433150185   -0.8425559682   -1.1612250754
 H   -0.3374244887    2.0194684213    0.8967661061
 H   -0.3268851386    2.0030988527   -0.9251371530
 H    1.8930364346    0.7823870811   -0.9002339390
 H    1.8811116765    0.7995071919    0.9216541401
 H    0.3457707124   -1.1833587650    1.8438161470
 H   -1.2053739443   -0.3303975137    1.8264224752
 H   -1.5600844589   -2.8298328803    0.9774160323
 H    0.7579674411   -2.8679600628   -0.7982089449
 H   -1.4125657146   -2.6366751004   -2.7058581472
 H   -1.9833615437   -3.6465449605   -1.3258080416
 H   -2.8030211983   -0.9097980801   -0.8381393805
 H   -0.2356996542   -0.4856283299   -2.1728470315