23

 C    0.1866371941    1.6592319285    0.0925261933
 C   -0.0156878931    0.1388431674   -0.0546447828
 C    0.6886560982   -0.4570548187   -1.2439306905
 C    1.9279187704   -0.9402431912   -1.2831767619
 C    2.2611397300   -1.4347373995   -2.6580680494
 O    1.0997633829   -1.1707779619   -3.4347890981
 C    0.0499909062   -0.6123642948   -2.6198729499
 C   -1.1239687651   -1.6060765958   -2.6005415284
 C   -0.3798927405    0.7157879852   -3.2589559624
 H    1.2494260075    1.8989383933    0.1938687705
 H   -0.1959167501    2.2046495642   -0.7742468874
 H   -0.3333003545    2.0317724579    0.9809180644
 H    0.3475246847   -0.3518726916    0.8552894628
 H   -1.0895838173   -0.0761171362   -0.1103158445
 H    2.6211555608   -0.9927232595   -0.4514028964
 H    3.1291118945   -0.9184126987   -3.0985790581
 H    2.4926380832   -2.5129397536   -2.6714083494
 H   -0.8098852410   -2.5600602320   -2.1683822631
 H   -1.9671553240   -1.2208807161   -2.0181067679
 H   -1.4704563250   -1.7865760992   -3.6224318724
 H   -0.6980168164    0.5390615520   -4.2908876173
 H   -1.2176949573    1.1675097577   -2.7180410225
 H    0.4530131921    1.4235969525   -3.2729719886