19

 C   -0.1181927681    1.5313084326   -0.0333912912
 C   -0.0210907898    0.0158977311   -0.0235939233
 O   -1.3389287445   -0.5082889711   -0.0041664214
 C   -1.4441360575   -1.8682697636    0.0069063306
 C   -2.6705895375   -2.5061584320    0.0261036732
 N   -4.0037952556   -2.0405361317    0.0387266110
 N   -2.4084131702   -3.8606013031    0.0326772873
 C   -1.0641131875   -4.0861373950    0.0185774036
 C   -0.4245246180   -2.8616341546    0.0019558715
 H    0.8820513831    1.9744031626   -0.0484500130
 H   -0.6641913444    1.8765911723   -0.9159298876
 H   -0.6431733370    1.8893964069    0.8567649530
 H    0.5142198973   -0.3466329137   -0.9140475982
 H    0.5352618016   -0.3338203552    0.8590518719
 H   -4.1804185476   -1.4540321814    0.8491438690
 H   -4.2005388222   -1.4673106059   -0.7765515229
 H   -3.1366585120   -4.5531870857    0.0463555473
 H   -0.6612438198   -5.0856064877    0.0211037927
 H    0.6423210900   -2.7093363347   -0.0118600135