18

 N   -0.0092040053   -1.1392294470   -0.0436274371
 C    0.0207520697    0.0139420964   -0.0886125325
 C    0.0205793197    1.4771685410   -0.1611183678
 O    1.2718465072    1.9614252763    0.2873547133
 C    1.3781343783    3.3407474559    0.1919793630
 C    1.6366693121    4.0273383058   -1.1209681485
 C    2.6483678551    4.1426645542    0.0022933296
 C    2.1593664922    5.1735879905    1.0287467002
 C    0.8614046124    4.3225332874    1.2513908245
 H   -0.1747334280    1.7829055468   -1.1996753143
 H   -0.8060385366    1.8589361995    0.4565722147
 H    1.9360494728    3.3580864077   -1.9214900763
 H    1.0572966529    4.8919979385   -1.4385701895
 H    3.6656157529    3.7934824826   -0.1197284817
 H    2.7804266330    5.2256103217    1.9246767017
 H    2.0111243507    6.1863434032    0.6420973450
 H   -0.0999835081    4.8073149596    1.0543634512
 H    0.8390019889    3.8712692099    2.2458077745