18

 C   -0.1058935909    1.5643401664   -0.0088489368
 C    0.1843692966    0.0763327830   -0.0042873419
 O    1.4114363683   -0.3085939493   -0.7140636603
 C    1.7909920979   -1.1778150769    0.3755881571
 C    2.3140224178   -2.5314869459    0.0244167769
 C    2.1172237028   -0.3077352471    1.5372851789
 O    2.6969017210    0.9504017851    1.3787781029
 C    0.6557139583   -0.6400052446    1.2559626204
 H   -0.1875148836    1.9312488490   -1.0374397652
 H   -1.0638168639    1.7497277174    0.4893082974
 H    0.6678570242    2.1258538722    0.5163679983
 H   -0.6478660665   -0.4696157202   -0.4677957433
 H    3.2443365247   -2.4463231144   -0.5487192502
 H    2.5276283836   -3.1042294406    0.9315193294
 H    1.5929069329   -3.0904097051   -0.5805232340
 H    2.5084126901   -0.8220939715    2.4113672968
 H    2.7112673682    1.1089958133    0.4246648330
 H    0.0179991386   -1.1437536107    1.9715169007