15

 C   -0.0603616326    1.5432978945    0.0531047877
 C   -0.0036224506    0.0426274953   -0.1056168040
 C    0.7060146162   -0.6594064971   -1.2030910193
 C    1.7457100675    0.0910518077   -2.0208346227
 O    2.7169348617    0.5273703280   -1.0650251825
 C    2.4161783367    0.0609629162    0.1884527210
 O    3.0840302430    0.3079845609    1.1433112887
 N    1.2382037655   -0.7487118543    0.1687563752
 H    0.7970214185    2.0534424299   -0.3915905795
 H   -0.9695392182    1.9242157925   -0.4232225316
 H   -0.0989487685    1.8121791074    1.1130576808
 H   -0.8721748575   -0.4727299348    0.2979654901
 H    0.2958217359   -1.5726912088   -1.6223329199
 H    2.2313597189   -0.5716891803   -2.7437978881
 H    1.3563561835    0.9657898229   -2.5517264760