18

 C   -0.0212188455    1.2807852147   -0.4494048494
 N   -0.0634594745   -0.0458233026    0.1451206401
 C   -1.2135184107   -0.7697752311    0.1835347126
 C   -1.4049471608   -2.1255278229    0.3400940385
 N   -0.3581971342   -3.0768798820    0.4172565850
 C   -0.4060803513   -4.1509593343   -0.5769008860
 C   -2.8214276680   -2.2344624143    0.3690913984
 N   -3.4370617086   -1.0860034986    0.2370041111
 O   -2.3823271976   -0.1311071872    0.1181484558
 H    0.9535246838    1.7269447923   -0.2414802003
 H   -0.1831979304    1.2742220997   -1.5366973352
 H   -0.7906297369    1.9080011528    0.0052978953
 H    0.7470233849   -0.6360813750    0.0203755001
 H   -0.2796327862   -3.4704695271    1.3488507143
 H    0.4570370079   -4.8092671304   -0.4371888874
 H   -1.3181627311   -4.7673070658   -0.5326553774
 H   -0.3462348400   -3.7167471531   -1.5792589200
 H   -3.4241256906   -3.1270456851    0.4776512445