21

 C   -0.0280037255    1.6143476242   -0.0183395764
 C   -0.0750347024    0.1129772507    0.1075111393
 O    1.1181401832   -0.6112572829   -0.2238441375
 C    0.6574200202   -0.6448648643    1.1324916167
 C    1.5700630397   -0.0407421886    2.2009586283
 C    1.4676846254   -1.0547153070    3.3522069837
 O    1.1043352922   -2.2896909979    2.7471091278
 C    0.1967111899   -2.0037663561    1.6818590301
 C   -1.2536750502   -2.0246342869    2.1727447898
 H    0.9041054253    2.0173377010    0.3841196113
 H   -0.1008899175    1.9098402024   -1.0701073707
 H   -0.8685249002    2.0709276448    0.5161321939
 H   -0.9822239904   -0.3429130948   -0.2962284947
 H    2.5864814931    0.0069386599    1.8011750682
 H    1.2753623891    0.9676492044    2.5019043729
 H    2.4105314476   -1.2097653021    3.8823091127
 H    0.7122000088   -0.7395844235    4.0888629556
 H    0.3450172877   -2.7736373732    0.9184052927
 H   -1.4474425361   -1.2215399458    2.8913457170
 H   -1.9519447554   -1.9063609877    1.3387026697
 H   -1.4620121046   -2.9795191866    2.6628695797