18

 C   -0.1787845295    1.5349265077    0.0257246014
 C    0.0182670102    0.0252284106    0.0289672826
 C    1.1862812275   -0.6041277812   -0.8352348055
 C    2.1528490478   -0.2086685240    0.3332168461
 C    0.8863575265   -0.6104250336    1.1735413655
 O    0.6605082853   -0.2001449444    2.4844837561
 C    0.7756497698   -2.0999832733    0.7971811477
 C    0.9747583248   -2.0910062154   -0.5234719622
 H    0.7526703591    2.0989733217    0.1156416161
 H   -0.6715191778    1.8504705284   -0.9005389386
 H   -0.8227695660    1.8282818716    0.8613412107
 H   -0.9456081527   -0.4730313256   -0.1103688985
 H    1.3693320662   -0.2987018833   -1.8638002684
 H    3.0519995837   -0.8165722056    0.4580789603
 H    2.3931395212    0.8552790932    0.3804114727
 H    1.2884153168   -0.6506767687    3.0592568053
 H    0.5552016507   -2.9101556027    1.4787340278
 H    0.9727727166   -2.9043134156   -1.2355990992