17

 C   -0.0636217084    1.5535765309   -0.0209014559
 C    0.0677139268    0.0469629071   -0.0823933823
 O   -1.0512017051   -0.6254403736    0.4304603559
 C    0.6779091047   -0.7247574354   -1.1838515715
 C    1.3787281470   -0.6985091511    0.2351768348
 C    2.5545024676   -0.0900073239   -0.4296737739
 O    3.7248552788   -0.0131140048   -0.1597492760
 C    1.8573281722    0.0155710294   -1.8238547593
 O    2.5465651325   -0.7739831423   -2.7652030594
 H    0.8201122152    2.0670664861   -0.4042004517
 H   -0.9368836620    1.8790000479   -0.5946241836
 H   -0.2002429344    1.8736286053    1.0189843333
 H   -1.1863360490   -0.3286552805    1.3376218163
 H    0.1822384731   -1.5760510941   -1.6299210962
 H    1.3884661334   -1.4394231862    1.0251801377
 H    1.6382696809    1.0128815024   -2.2263867927
 H    3.4888792767   -0.6542589071   -2.5918931657