15

 C    0.0321351251    1.5809000592    0.1065784796
 C    0.0312862619    0.0572578920   -0.0946691739
 O    0.8665103743   -0.6084765293    0.8435913016
 C   -1.3332931604   -0.4770551373   -0.0806607751
 C   -2.4642113263   -0.9115005646   -0.0291375345
 C   -3.7266384261   -1.3975361043    0.0275237301
 C   -4.8594238674   -1.8335799507    0.0842918293
 C   -6.2061823386   -2.3355678421    0.1171036855
 O   -6.6901002475   -2.9336406793    1.0516429549
 H    1.0637930915    1.9405598536    0.0891343737
 H   -0.5365353694    2.0805611906   -0.6825511614
 H   -0.4177827810    1.8414146845    1.0697612484
 H    0.4792880050   -0.1693421147   -1.0701097418
 H    0.4694742969   -0.5083836064    1.7165502053
 H   -6.7868292779   -2.1280422811   -0.8042948618