19

 C   -0.0344842753    1.4352413171    0.0235349429
 N    0.0338378637   -0.0081665734    0.0112972487
 C    0.0404959587   -0.7895726622   -1.1041216443
 O    0.0041036771   -0.1723025899   -2.3168513875
 C    0.0817249805   -2.1148790056   -0.7459959966
 C    0.0935355932   -2.1402856649    0.6856113583
 N    0.2156034528   -3.3201678796    1.4534583493
 C    0.0522406608   -0.8425233857    1.1417162693
 C    0.0533481259   -0.2867050019    2.5248194697
 H    0.7677133460    1.8580812259    0.6373293159
 H    0.0788914434    1.7993230440   -0.9974562659
 H   -0.9941909990    1.7931175685    0.4161877851
 H    0.1010862983   -0.8469495388   -2.9947935370
 H    0.1211919191   -2.9633074345   -1.4119187460
 H   -0.3980128070   -4.0514425234    1.1121885640
 H   -0.0008795280   -3.1618198017    2.4302013819
 H    0.9941274410    0.2139209126    2.7961637255
 H   -0.7542707685    0.4391126820    2.6887169338
 H   -0.0944339326   -1.0906401985    3.2525495930