16

 C   -0.0352081558    1.5423755713   -0.0625192302
 C    0.0492674478    0.0264928516   -0.0000606496
 O    0.7224192765   -0.4374768623   -1.1595059378
 C    0.8320494899   -1.8399432636   -1.2149593075
 C    1.5442214466   -2.4292159121   -0.0039583990
 O    2.1015379631   -3.4995815223   -0.0035191788
 N    1.4771702580   -1.6283464869    1.1306262785
 C    0.7586634974   -0.4453579901    1.2751613452
 O    0.6935366526    0.1272423844    2.3365075015
 H    0.9660362489    1.9710807422   -0.1551979997
 H   -0.6287862682    1.8458687157   -0.9273574835
 H   -0.4945341932    1.9235763556    0.8504871357
 H   -0.9687816623   -0.4043431297    0.0358413055
 H   -0.1571520271   -2.3237374938   -1.2947635140
 H    1.4067634106   -2.0969740131   -2.1062707851
 H    1.9394865752   -1.9788974768    1.9623331788