16

 N   -0.0643662628    0.9227875916    0.1345924752
 H   -0.4409695767   -0.0043149001   -0.1152488450
 H    0.8676223346    0.7469855108    0.5834400926
 H    0.0029538104    1.5346940572   -0.6747862657
 C   -0.8928730017    1.4712561035    1.2354795330
 C   -1.4793954333    0.3523638823    2.0852981005
 O   -1.3204825727   -0.9287532344    1.5373975976
 C   -0.2531368941    1.0659175793    2.5539855088
 O    0.9584497118    0.4037592938    2.4143235122
 C   -0.1921566053    2.0546987384    3.7427349110
 O    0.9648896611    1.9950178491    4.2497693003
 O   -1.1924973154    2.7230244644    3.9840518945
 H   -1.3649631535    2.4262106317    1.0522119605
 H   -2.4240935596    0.5449017018    2.5827624859
 H   -0.5827810935   -1.3380648411    2.0132402449
 H    1.4096182508    0.9128170517    3.2062364438