18

 N   -0.1494420292   -1.0857438530    0.5949951753
 C   -0.1054898541    0.0227944136    0.2714600338
 C   -0.0245703605    1.4310212396   -0.1294183555
 C    1.3945476575    1.9656352248   -0.1072602709
 C    1.9810223351    2.4353485028   -1.2069151790
 C    3.3625955540    3.0301258206   -1.1923860203
 O    3.8592187402    3.2672887158    0.1078858153
 C    3.6245202292    2.1770937985    0.9829313169
 C    2.1256870136    1.9685033992    1.2136443343
 H   -0.4586469145    1.5363219179   -1.1289066945
 H   -0.6605341355    2.0081582417    0.5560826254
 H    1.4763017020    2.4047080659   -2.1698462443
 H    4.0498621931    2.3751247133   -1.7602677310
 H    3.3622658918    4.0012713626   -1.7016717676
 H    4.0680475107    1.2547060926    0.5742041441
 H    4.1402653052    2.4160019307    1.9164502962
 H    1.7268480709    2.7603566438    1.8627654672
 H    1.9614721005    1.0203590897    1.7410482346