23

 C    0.0853748357    1.5222529967   -0.0931761970
 C    0.0379435191   -0.0057866966   -0.0066772659
 C    0.7049860492   -0.5590594894    1.2440047025
 C    0.7124068120   -2.0990415116    1.3809616271
 C    2.0223076971   -2.3758893511    2.1171997021
 C    3.3355786009   -2.3175789262    1.3455690255
 C    3.4352751212   -2.4072323414   -0.1594184397
 C    2.8042512675   -1.0902564273    2.0460446634
 O    2.0931449398   -0.1752461380    1.2534159903
 H    1.1198497311    1.8748181432   -0.0860508579
 H   -0.3947358890    1.8810731093   -1.0086510818
 H   -0.4309213741    1.9819050782    0.7569998504
 H   -1.0033614306   -0.3525265282   -0.0144495799
 H    0.5222507291   -0.4474029695   -0.8866722897
 H    0.2218488636   -0.1224949148    2.1351174225
 H   -0.1499652202   -2.4545992028    1.9513974921
 H    0.6741148899   -2.5787096019    0.3963731387
 H    1.9910815990   -2.9665106604    3.0252517996
 H    4.1549277237   -2.8007845122    1.8742812920
 H    2.7429915219   -1.7168592886   -0.6454103414
 H    4.4448349854   -2.1399384138   -0.4891289082
 H    3.2254815212   -3.4207553148   -0.5187017926
 H    3.3221981766   -0.6484374188    2.8926801279