21

 C   -0.3305780509    1.3953176255    0.0068369053
 C    0.0665775143   -0.0627952366   -0.0098679869
 O   -1.0832818176   -0.9355709946    0.2352943066
 C   -0.4419852631   -1.5222554129    1.3922507923
 C    0.8457582699   -0.7046274446    1.1721259883
 C    2.0257472238   -1.4673900830    0.5488627606
 C    1.5653978392   -1.7824928582   -0.8861574019
 C    0.7554499359   -0.5378356738   -1.3090609933
 O   -0.1828456682   -0.7559161615   -2.3384443863
 H    0.5556738735    2.0360421639   -0.0565727603
 H   -0.9712934869    1.6132169093   -0.8537453177
 H   -0.8777749228    1.6453594405    0.9201216736
 H   -0.9948197534   -1.2921640637    2.3107520509
 H   -0.3416650184   -2.6111608836    1.3016551790
 H    1.1281822673   -0.0536850767    2.0006431080
 H    2.9094834838   -0.8185331867    0.5300475380
 H    2.2980742258   -2.3614972350    1.1188885956
 H    2.3894343358   -1.9989851888   -1.5699823454
 H    0.8982473191   -2.6523241793   -0.8977520539
 H    1.4349000109    0.2453986089   -1.6676345536
 H   -0.9162128281   -1.2236727489   -1.9137758189