19

 C   -0.1154857383    1.5044851260    0.0366581774
 C    0.0216575212    0.0148877577    0.0135488375
 C    0.8642341485   -0.8335271256   -0.9765910646
 C    1.1237499564   -2.1394377748   -0.2436026270
 C    0.9652662385   -1.9533863184    1.2491775250
 C   -0.1179900973   -0.8857098008    1.2250586774
 O   -0.5979148195   -0.3006280556    2.3908724471
 C   -1.0411696218   -1.0816860618    0.0245303165
 C   -0.1986196666   -1.9138233532   -0.9645739933
 H    0.8508369203    1.9879524776    0.2264836348
 H   -0.4994901336    1.8907105660   -0.9143104525
 H   -0.8003516490    1.8072861894    0.8336422953
 H    1.4627388971   -0.4581911202   -1.7963322598
 H    1.8338439384   -2.8438374599   -0.6597334159
 H    0.6360855134   -2.8681838275    1.7577715946
 H    1.8784848898   -1.5920565031    1.7346853903
 H   -1.1833204333   -0.9311497454    2.8243408168
 H   -2.1182771368   -0.9898242545    0.0765334904
 H   -0.5638045075   -2.5305613559   -1.7746235701