21

 O    0.0436656081    1.3935051498    0.3690325994
 C    0.0279876313   -0.0093047805    0.1343373568
 C   -1.3430682720   -0.5244438783   -0.2167051465
 C   -2.2906657147   -0.9197456428    0.9003999236
 C   -1.7368943731   -1.9750009820   -0.0283890011
 C   -2.5899080235   -2.3955255158   -1.2155232422
 C   -3.0669132560   -1.0776073521   -1.8756432888
 O   -4.3114001286   -0.6160578208   -1.3457292567
 C   -1.9915517461   -0.0354209880   -1.5094285280
 H   -0.6318583757    1.5753710041    1.0313709854
 H    0.7246036563   -0.1695460011   -0.6975025701
 H    0.4208103634   -0.5639245286    1.0025307815
 H   -1.8911035575   -0.9077739248    1.9106463167
 H   -3.3358032542   -0.6483390237    0.8151616975
 H   -1.0311072913   -2.6922724895    0.3781700915
 H   -1.9782720956   -2.9647828961   -1.9261853398
 H   -3.4405900147   -3.0321536541   -0.9423724879
 H   -3.1572372044   -1.1907491999   -2.9647647160
 H   -4.9690673445   -1.3022445001   -1.4984514847
 H   -2.4390174074    0.9588299902   -1.4321733560
 H   -1.2302720498    0.0079451439   -2.2974891945