23

 C   -0.1505367164    1.5403493246   -0.0247093693
 C    0.0517735757    0.0280782600    0.0013563843
 C    1.0740676265   -0.5709330067   -0.9813227452
 C    2.4250185735   -0.0154321735   -0.4923478701
 C    2.2281707980   -0.0263971579    1.0556681875
 C    0.7874437418   -0.5842861863    1.2307093288
 C    0.1757410613   -0.3886558316    2.6065695627
 C    0.8348384731   -2.0507865281    0.7564409943
 O    1.0369757351   -1.9713349496   -0.6651779829
 H    0.7804022445    2.0958556862    0.1165353081
 H   -0.5801148753    1.8552744691   -0.9817343711
 H   -0.8445102560    1.8546583937    0.7619538964
 H   -0.9171632994   -0.4646437387   -0.1424077353
 H    0.8740820389   -0.4598145719   -2.0485077630
 H    3.2392228259   -0.6624593575   -0.8255405524
 H    2.6179764843    0.9905603094   -0.8775483546
 H    2.9612100581   -0.6548815125    1.5703988451
 H    2.3122521030    0.9772839847    1.4830487090
 H    0.1343779673    0.6719487724    2.8762865306
 H   -0.8440849877   -0.7872008600    2.6509963956
 H    0.7644978215   -0.8982200866    3.3780289140
 H    1.6540269086   -2.6168300348    1.2194163838
 H   -0.1066246322   -2.5795972942    0.9640026038