19

 C   -0.5837352601    1.3268693476    0.2255558205
 C    0.1950841538    0.0379742712    0.0676157787
 C    0.8184937594   -0.2777465577   -1.3129349893
 C    2.1609287537   -0.2526106536   -0.5599099252
 O    1.5164574056    0.1114715799    0.6778635040
 C    2.8894386247   -1.6018557902   -0.4392130779
 O    3.4075420978   -1.9861246751   -1.6808422479
 C    3.9918415975   -1.5081916299    0.5958656835
 O    5.1393062739   -1.7607613012    0.3104044712
 H   -0.0369494175    2.1689171082   -0.2098771402
 H   -1.5561255387    1.2463100779   -0.2728410561
 H   -0.7594688456    1.5411726759    1.2843814634
 H   -0.3698507089   -0.7996045536    0.4980257798
 H    0.5510607911   -1.2356205401   -1.7609456688
 H    0.6971769480    0.5136988998   -2.0544084729
 H    2.8761521589    0.5102772403   -0.8916215375
 H    2.1586187606   -2.3418520581   -0.0653642320
 H    4.3611767152   -2.1027766550   -1.5370396443
 H    3.6893957006   -1.1900616862    1.6101961610