16

 N   -0.1800088183    1.2872440603    0.0491213489
 C    0.0086908564   -0.0604809526    0.1288601298
 O    1.0294854260   -0.6086160605    0.4742690226
 O   -1.1395745248   -0.7048683327   -0.2131087309
 C   -1.0955581080   -2.1195069658   -0.0950242705
 C   -1.4201335545   -2.7667188375    1.2967275514
 C   -2.5767928841   -3.4976908532    0.6031494622
 O   -3.4553825432   -2.4853860952    0.1087239578
 C   -2.3144757380   -2.8233937392   -0.6843924049
 H    0.6417507250    1.8635420154    0.0949636030
 H   -0.9955172030    1.6437031887   -0.4183903205
 H   -0.1521289523   -2.4962720617   -0.4939150333
 H   -0.6113281584   -3.4038896982    1.6574609915
 H   -1.7342280118   -2.0727701163    2.0782806155
 H   -2.9954939875   -4.4771118533    0.7987295641
 H   -2.4922370437   -3.1320351481   -1.7077591666