21

 C   -0.0524231844    1.6652856462    0.1163342790
 C    0.1459477167    0.1685441296   -0.1567740960
 C    0.7646531643   -0.5555289647    1.0307657537
 C   -0.0260298082   -0.9432349336    2.3170676175
 C   -0.7469574224   -2.0827675006    1.5667780986
 C    0.7606631017   -2.1063540515    1.1990892098
 C    1.5666995085   -3.1861823558    0.5384502964
 O    1.3935067010   -4.4236756801    1.2024939918
 O    1.0637505646   -1.8928593214    2.6486441832
 H    0.8954857320    2.1488906871    0.3757438411
 H   -0.4592160777    2.1765824394   -0.7611858984
 H   -0.7449951073    1.8284946799    0.9489437969
 H   -0.8110140188   -0.2803333885   -0.4423941656
 H    0.8092994626    0.0436029881   -1.0224480429
 H    1.7426436555   -0.1368682607    1.2892569976
 H   -0.3896206690   -0.3091033393    3.1259103287
 H   -1.0737078376   -2.9110736010    2.1951375939
 H   -1.4734586630   -1.8335922156    0.7917218109
 H    1.2357266777   -3.3239664624   -0.4966864921
 H    2.6247036655   -2.8782047844    0.5161746136
 H    1.5025095382   -4.2417238105    2.1438335424