14

 N    0.0082218018    1.2192101057   -0.1970263692
 C    0.0093077231   -0.0072263711    0.0298503119
 O    1.0158325240   -0.8737017476    0.4409873934
 C    0.1158290826   -2.0208642390    0.4646471301
 C   -1.0084373647   -1.1104599857   -0.0322887372
 N   -2.4011361022   -1.0254202324    0.3394145896
 C   -2.0646375056   -1.4045302531   -1.0467983674
 C   -2.4163137749   -0.4750632369   -2.0935373683
 N   -2.6974624871    0.2234977574   -2.9696426060
 H    0.9232734969    1.6447433416   -0.0457722685
 H    0.4529849612   -2.8078427962   -0.2143017470
 H   -0.0037639643   -2.4091699934    1.4804663457
 H   -2.6973781132   -1.8435510224    0.8675023548
 H   -2.1663712477   -2.4477144269   -1.3380880819