21

 C   -0.0688274073    1.5967412108    0.0776733281
 C    1.4503508426    1.2517066111    0.0658153694
 C    1.1186403783    0.1571710395    1.1229470555
 C    0.0102784790    0.0429828824    0.0332697887
 C    1.1397560101    0.1870820898   -1.0388748084
 C    0.7966750099    0.6325400069   -2.4795499569
 C    1.8730774450   -0.0603305690   -3.3199883998
 O    2.1288349841   -1.2817375088   -2.6463853419
 C    2.1363937489   -0.9819312777   -1.2591543392
 H   -0.4523494997    2.0311306424    1.0048630078
 H   -0.4811273938    2.1057368681   -0.7947349891
 H    2.2890936562    1.9516343586    0.0817742360
 H    1.8177342743   -0.6747237437    1.2274148119
 H    0.7926670333    0.5184495107    2.1019536685
 H   -0.8237354893   -0.6620521346    0.0081968236
 H   -0.1941633003    0.2648085809   -2.7671279476
 H    0.8033843949    1.7171333088   -2.6105691522
 H    1.5621080540   -0.2954960663   -4.3411017723
 H    2.7869189237    0.5566926274   -3.3703905451
 H    3.1497735869   -0.6886635326   -0.9364082108
 H    1.8633682294   -1.8970206346   -0.7264385262