15

 C   -0.0330788133    1.3856960027   -0.1131862364
 N    0.0931999378   -0.0514923953    0.0216534403
 C    0.5645884430   -0.6366620640    1.1578852185
 O    0.9205511438   -0.0297967467    2.1552569937
 C    0.6255226639   -2.1115055316    1.1189550886
 C    1.0279338741   -3.0315006614    2.0330871288
 N    0.8871425681   -4.3035987687    1.5015472485
 C    0.4156252769   -4.0995633003    0.3143474569
 O    0.2250521553   -2.7999845861   -0.0038229195
 H    0.5847825729    1.7637325298   -0.9351768406
 H   -1.0734583124    1.6782091889   -0.2930730902
 H    0.3061075336    1.8319900130    0.8221569385
 H   -0.1736882341   -0.6470656893   -0.7450496950
 H    1.4048715737   -2.8568655292    3.0270103779
 H    0.1599691366   -4.8266588819   -0.4406155700