16

 O   -0.1623519599    0.0064665834    0.1547155525
 C   -0.1261223921    1.1926158581    0.0233063790
 C   -1.1529707409    2.2834029932   -0.3264393091
 C    0.0417851030    3.2552582104   -0.5703126869
 C    1.0258794915    2.2298983735    0.0620726538
 C    1.6369423312    2.5336420380    1.4643427173
 N    3.0895847242    2.4131364332    1.2765327871
 C    3.2529830895    2.0560095145    0.0752439127
 O    2.1718647246    1.8934810009   -0.7330511510
 H   -1.8012380555    2.0580760920   -1.1760795668
 H   -1.7830719856    2.5467280945    0.5291316512
 H    0.2550116532    3.4018493015   -1.6306930451
 H   -0.0079107032    4.2254625784   -0.0730948404
 H    1.3790933624    3.5374427692    1.8173313982
 H    1.3067617631    1.8155333597    2.2224880945
 H    4.2036571744    1.8587404396   -0.4063653070