21

 C    0.7584729498    1.4792432798   -0.0313444502
 C   -0.0988311348    0.1932847013    0.0451552508
 C   -0.0881896793   -0.4936246030   -1.2977451631
 C    0.3124530451   -1.7032967493   -1.6866540704
 C    0.8807522648   -2.8296552784   -0.8653670329
 C    0.1854265770   -3.0923196367    0.4753576399
 C    0.3975864057   -2.0139677924    1.5153743732
 O    1.5701885928   -1.1941605916    1.3941972857
 C    0.2837106772   -0.5659695442    1.3006712644
 H    1.8128673395    1.2200913634   -0.1615915194
 H    0.4514304373    2.1058176256   -0.8738100090
 H    0.6606395607    2.0707752646    0.8849205921
 H   -1.1374352993    0.5186689816    0.2213317354
 H   -0.4594118274    0.1655866812   -2.0827512540
 H    0.2335012968   -1.9130883800   -2.7519371022
 H    0.8357664144   -3.7496319843   -1.4576559628
 H    1.9439153837   -2.6416507224   -0.6695744402
 H   -0.8923935807   -3.2359102500    0.3263377413
 H    0.5687904001   -4.0342958074    0.8875686385
 H    0.2146171909   -2.3522778235    2.5384176517
 H    0.0461132457    0.0204869156    2.1936355009