23

 C   -0.0697301462    1.5050666383   -0.0894397315
 C    0.0601704355   -0.0081563238    0.0113939356
 O    0.6963977012   -0.4533998225   -1.1849079954
 C    0.7115529579   -1.8636837948   -1.3029307124
 C    1.4492782576   -2.5253658942   -0.1334045813
 C    0.8572195088   -2.0438630016    1.1955183554
 O    1.5769499482   -2.5237295541    2.3233847382
 C    0.8290678102   -0.5055108701    1.2571688116
 C    2.2309152490    0.1094497003    1.3823902509
 H    0.9102001146    1.9742987468   -0.2069471747
 H   -0.6789878205    1.7716956163   -0.9570478330
 H   -0.5453867584    1.9105129993    0.8088432144
 H   -0.9545166998   -0.4457130846    0.0479758171
 H   -0.3228341036   -2.2474072877   -1.3553115188
 H    1.1982875994   -2.0897057371   -2.2560147829
 H    1.3647884313   -3.6172502916   -0.2159519276
 H    2.5142856501   -2.2742652595   -0.1711312876
 H   -0.1891893126   -2.3930988739    1.2490035755
 H    1.6414941480   -3.4812228427    2.2496533044
 H    0.2446986240   -0.2300651381    2.1443394763
 H    2.7710988561    0.0608283427    0.4327196996
 H    2.1725281325    1.1606361322    1.6775606035
 H    2.8083764467   -0.4241482795    2.1395439826