17

 C   -0.0237216239    1.5027322416   -0.2955646160
 C   -0.0608226869    0.0358721706    0.0335494695
 O    1.1711416321   -0.6896465871   -0.0306423564
 C    0.5530321832   -0.5581438431    1.2482648514
 C    1.3032003914    0.2104038533    2.2573293399
 C    2.4746111324    0.9260782765    2.2032520079
 N    2.7852103462    1.4544846171    3.4352651963
 C    1.8192497481    1.0656576839    4.2326591244
 N    0.8956557925    0.3057174071    3.5744098313
 H    0.7667161922    2.0136222209    0.2583118982
 H    0.1511122610    1.6456067820   -1.3668431555
 H   -0.9837629572    1.9685266486   -0.0478676582
 H   -0.9034834806   -0.5144235752   -0.3914979877
 H    0.0992712640   -1.4806376473    1.6217160290
 H    3.1126734290    1.0644355771    1.3449646257
 H    1.7292652413    1.2952375550    5.2840051793
 H    0.0649774251   -0.1021160410    3.9703425909