18

 C    0.0309789524    1.5873401258    0.0689969606
 C    0.0266595660    0.0503961217   -0.0268410895
 N    0.6361260275   -0.4614244600   -1.2456862154
 C   -0.0920320423   -0.5494611087   -2.4083177810
 N   -1.3517437270   -0.3483998417   -2.4168449213
 C    0.7429907006   -0.9240898467   -3.6334191915
 O   -0.0507304513   -1.2822002658   -4.7399935254
 C    0.6934887990   -0.5563951426    1.1352306585
 N    1.2361112260   -1.0100266479    2.0488218886
 H    1.0531471915    1.9761081479    0.0604862094
 H   -0.5177120037    1.9894573779   -0.7849322472
 H   -0.4564094993    1.9164694212    0.9906583471
 H   -1.0128749526   -0.2927745860   -0.0479004396
 H    1.6413643865   -0.4297554670   -1.3070054526
 H   -1.7017554879   -0.4814095335   -3.3651346301
 H    1.3309620713   -0.0528313961   -3.9459797540
 H    1.4574504073   -1.7158231299   -3.3605763469
 H   -0.4674060739   -2.1286529787   -4.5454750999