21

 C    0.0735570092    1.3753096711    0.0804940254
 O    0.0373970759   -0.0293106316    0.0028051035
 C   -1.2741689572   -0.5466422375    0.0450611833
 C   -1.1888354146   -2.0653270893   -0.0487385166
 C   -2.5618977160   -2.7418911091   -0.0490719426
 O   -3.3846915585   -2.2824143472   -1.1207192245
 C   -2.4435573124   -4.2775400640   -0.0668169830
 C   -3.7866181620   -4.9688222476    0.0505810696
 O   -3.9988302038   -5.9200912847    0.7589884388
 H    1.1219436590    1.6795968122    0.0320767629
 H   -0.4725988397    1.8457086559   -0.7526965794
 H   -0.3602704383    1.7444247952    1.0235833424
 H   -1.7766977244   -0.2508514187    0.9830660552
 H   -1.8807249991   -0.1465251873   -0.7823363719
 H   -0.6458762198   -2.3363486341   -0.9650788536
 H   -0.5922862339   -2.4427891357    0.7893149277
 H   -3.1078728484   -2.4405159323    0.8544394866
 H   -2.9132801649   -2.4493885031   -1.9454447407
 H   -1.9933949920   -4.5780008421   -1.0260172648
 H   -1.7909164140   -4.6433845336    0.7312507865
 H   -4.5870881351   -4.5256338266   -0.5793023547