20

 C   -0.0613988627    1.4453989233    0.0676836944
 C    0.0598749069   -0.0373879359   -0.0798397906
 C   -0.5234717531   -0.9347238981   -1.1988005000
 C    0.6770669294   -1.6338084829   -1.8846035044
 C    0.9892356392   -2.1593062848   -0.4609672072
 C   -0.5153154484   -2.0137576105   -0.0705812275
 N   -0.2404526664   -1.0026121745    1.0441044432
 C    1.1471696831   -0.9175827883    0.4504915436
 C    2.3460297244   -0.5034636709    1.2419253870
 H    0.4580445911    1.9644075799   -0.7465323567
 H   -1.1117275922    1.7560457008    0.0510151796
 H    0.3682093806    1.7824999860    1.0154240512
 H   -1.4092566864   -0.5981180284   -1.7353246280
 H    0.3516412790   -2.4381556694   -2.5523885426
 H    1.4253662616   -1.0123569178   -2.3873435481
 H    1.6034898343   -3.0370265217   -0.2658373465
 H   -1.2351148244   -2.8170526323    0.0719255378
 H    2.1216383100    0.3628078170    1.8709202464
 H    2.6796700699   -1.3131223970    1.9000335982
 H    3.1800384143   -0.2388955645    0.5811892400