12

 O    0.0759308068    0.0820148044    0.7376087797
 C    0.0293977133    1.2085924101    0.3042040689
 N   -1.1908626904    1.8277029976    0.0287244126
 C   -1.4945153854    3.1602532784   -0.2547336509
 O   -2.5795464126    3.4782969723   -0.6798726908
 C   -0.5033665232    4.1774176768    0.2348187536
 N    0.7689046488    4.1283515172    0.3133188191
 N    1.5172211460    3.1596597038   -0.2979299962
 C    1.2531586405    1.9150749378   -0.2056227862
 H   -1.9921206764    1.2040655790    0.0357017706
 H   -0.9840575363    5.0625763871    0.6477570835
 H    1.9883464103    1.2280467736   -0.6210550238