16

 O    0.0172727411    0.0620136557    0.2344146932
 C   -0.0125327622    1.2424143953    0.0344273501
 C   -1.2663455580    2.1338943546   -0.0985952428
 C   -0.7485512705    3.3949428515   -0.7491951223
 C    0.2031464414    4.3329696505   -0.0618062709
 C    0.7110285466    4.0023893050    1.2948423242
 C    1.3374707681    2.8237697201    1.2741147541
 C    1.1963597856    2.2013769395   -0.1037530780
 N    0.7214113650    3.2941510680   -0.9930348954
 H   -2.0147366420    1.6335296597   -0.7178219507
 H   -1.7029882317    2.2718831797    0.8951937377
 H   -1.3088460012    3.7855382463   -1.5941472560
 H    0.2473897990    5.3611546009   -0.4128764362
 H    0.5931805065    4.6533671929    2.1517156624
 H    1.7693695699    2.2967866303    2.1157919264
 H    2.0824580724    1.6967318200   -0.4916803059