19

 C   -0.1041536584    1.5115971964   -0.1078456157
 C   -0.0062757988    0.0138952404    0.0534356641
 N    1.3218240596   -0.5946268874   -0.1183921545
 C    0.6606440399   -0.6536561176    1.2078478154
 C    1.3088713690    0.0278202493    2.3677945940
 C    1.2603013820   -0.7275380359    3.4702006040
 C    0.5295398841   -2.0025613803    3.2048032898
 N   -0.8974994264   -1.7773629823    2.8175240758
 C    0.1363065428   -1.9555491361    1.7720819084
 H    0.7951430951    2.0056323837    0.2672172860
 H   -0.2135792181    1.7772128477   -1.1649915607
 H   -0.9713771891    1.9045676019    0.4328595044
 H   -0.8564530410   -0.5355194945   -0.3511693095
 H    1.2500360990   -1.4995941061   -0.5796316562
 H    1.7400350120    1.0177787174    2.2938527884
 H    1.6547237461   -0.4571960457    4.4417894706
 H    0.7885068053   -2.9222854797    3.7180752432
 H   -1.3986963788   -2.6602396648    2.9154075240
 H    0.1050886155   -2.8394713264    1.1412379585