15

 O   -0.0122573049    1.4705385352    0.0499756788
 C    0.0251131691    0.0575220746   -0.0073883250
 C   -1.3833726362   -0.4691917541   -0.0007221163
 C   -2.5123969348    0.3319182089    0.0539392264
 N   -3.7661620103   -0.1534265025    0.0590064439
 C   -3.8699680474   -1.4741480834    0.0076865754
 N   -2.8658116567   -2.3569235040   -0.0474162840
 C   -1.6440107795   -1.8454658536   -0.0510797802
 O   -0.6030038530   -2.6969695923   -0.1054617318
 H    0.8921248652    1.7950884020    0.0468032080
 H    0.5396481359   -0.2994934268   -0.9144187387
 H    0.5744431442   -0.3701282976    0.8471422595
 H   -2.4014213298    1.4099093398    0.0951205618
 H   -4.8736469137   -1.8921201176    0.0112736626
 H   -0.9823576680   -3.5874844384   -0.1336434203