17

 C   -0.1336031588    1.4382603119   -0.1988159375
 C    1.2739859665    0.9964001021    0.0657395106
 C    0.1554072680   -0.0295427527    0.0578095304
 C   -0.2893301861   -0.7014055425    1.3020683701
 C   -0.3332599101   -0.0888410523    2.5584495613
 N   -0.7373513903   -0.7143116955    3.6637854673
 C   -1.1088294020   -1.9869439471    3.5147439602
 N   -1.1151474407   -2.6868256719    2.3806381306
 C   -0.7059721855   -2.0350149747    1.2922282562
 H   -0.6565739749    1.9855860987    0.5780887004
 H   -0.4072366551    1.7264632664   -1.2075109557
 H    1.9769975846    0.9780290924   -0.7593900009
 H    1.7189535287    1.2398622211    1.0245801070
 H    0.1171998420   -0.6740013058   -0.8152939842
 H   -0.0310278700    0.9495140511    2.6840980988
 H   -1.4398345210   -2.5057466297    4.4108865059
 H   -0.7075724652   -2.5985874115    0.3599402695