22

 C    1.5480474647    1.0607620152    0.3894968795
 O    1.2469586669   -0.3160486489    0.1274983030
 C    0.4162933869   -0.5361023381   -0.9073356886
 O   -0.0827662093    0.3479395752   -1.5613926586
 C    0.2184533017   -2.0327108592   -1.1528129712
 C   -1.2601284628   -2.3403811262   -1.4382829388
 N    1.1815996791   -2.4330332971   -2.1893830720
 C    1.5338273770   -3.8412897854   -2.1350241261
 C    0.8560624541   -2.0016675549   -3.5429229201
 H    2.0454174810    1.5156692485   -0.4709058295
 H    0.6345470318    1.6215567709    0.6026406825
 H    2.2089894176    1.0605828156    1.2562232451
 H    0.5280358163   -2.5455126550   -0.2383754743
 H   -1.3938615795   -3.3958324139   -1.6917782144
 H   -1.8712914845   -2.1261265393   -0.5557991358
 H   -1.6345187414   -1.7261189405   -2.2597792961
 H    0.7064317300   -4.5224664058   -2.4098308233
 H    2.3582699366   -4.0329446994   -2.8298656099
 H    1.8733300945   -4.1055137679   -1.1287443044
 H    0.5826673514   -0.9450364637   -3.5441205126
 H    1.7388605721   -2.1308204272   -4.1782630392
 H    0.0292789860   -2.5722779729   -4.0028448852