18

 C   -0.1321305422    1.5049255946    0.0126586440
 C    0.0926109791    0.0165138656   -0.0425971600
 C    1.2566351531   -0.6227756171   -0.8504439073
 C    1.0777316219   -1.8105166172    0.1229861838
 C    0.5870688180   -0.7993576475    1.1846397513
 O   -0.0354446181   -2.6059030142   -0.3122683859
 C   -1.1794371573   -1.9289462819   -0.6298848856
 N   -2.2379224287   -2.4872542843   -1.0265729424
 O   -1.1403036911   -0.5815896594   -0.5001388667
 H    0.7752354687    2.0103808164    0.3544529514
 H   -0.3972757962    1.8887384540   -0.9767807611
 H   -0.9482254041    1.7432851684    0.7009774615
 H    1.0979514720   -0.8064071423   -1.9148040938
 H    2.1998417127   -0.0982780881   -0.6844133061
 H    1.8882341095   -2.5077052036    0.3291522090
 H    1.4183358369   -0.3043787422    1.6908948333
 H   -0.1591356231   -1.1379239355    1.9059692320
 H   -2.0965894611   -3.4942224958   -1.0674511673