17

 O    0.0503733554    1.3651397140   -0.1569919702
 C    0.0024873034   -0.0336935834   -0.0533417593
 C   -0.5953314283   -0.6386547526    1.1958497909
 C   -1.3723413918   -0.6307593878   -0.1018786814
 C    1.1323404475   -0.7421943248   -0.7497126671
 O    1.1382781283   -0.5772015527   -2.1927545204
 C    2.4154487775    0.0865682489   -2.2255846888
 C    2.4962357526   -0.0202457783   -0.7019319740
 O    3.2356616797    0.3485074251    0.1585565844
 H    0.7034719155    1.6844363922    0.4771018965
 H   -0.2012166221   -1.5784047101    1.5670316082
 H   -0.9031339485    0.0613999563    1.9641114221
 H   -2.1876859529    0.0767428846   -0.1919173534
 H   -1.5105899863   -1.5635926886   -0.6361246777
 H    1.1677610094   -1.8032208886   -0.4684488139
 H    3.1819857706   -0.4739428920   -2.7763754450
 H    2.3568086101    1.1105383079   -2.6147834411