18

 C   -0.1491842223    1.4692227111   -0.0658909818
 C    0.0898867174   -0.0056969710   -0.0315420896
 N   -0.8203896387   -0.9523624287    0.6564091103
 C    0.6207833670   -0.9199965387    1.0048873094
 C    1.3747061339   -1.7563351020   -0.0650779580
 C    0.4547384789   -2.2771056428   -1.1356791643
 C   -0.9358607812   -2.8415596531   -0.9487288241
 O   -1.7890703445   -2.7643411611   -1.7979913178
 C    0.8244725526   -0.8163310474   -1.1413209900
 H    0.7623404896    2.0062247751   -0.3489493294
 H   -0.9278203900    1.7239723128   -0.7942033285
 H   -0.4662742328    1.8400719905    0.9147028824
 H   -1.3451538915   -0.4464442465    1.3683954478
 H    0.9504820719   -0.7301525588    2.0183067017
 H    2.3909928337   -2.1045152759    0.0638381903
 H    0.9922999636   -2.8242512102   -1.9097456444
 H   -1.0762480171   -3.4425020025   -0.0273988841
 H    1.3527208494   -0.3475601209   -1.9616943998