20

 C    0.0302124548    1.5869322641    0.0746460012
 C    0.0578812532    0.0835636918    0.0834356470
 C   -1.2005443203   -0.7906924176   -0.1053263491
 N   -0.5536470481   -1.8951316173    0.6800316972
 C    0.9002723953   -1.8408692956    0.2751867223
 C    0.3704881113   -0.9024541177    1.2917811107
 C    1.0890482323   -0.7310820014   -0.7284868689
 C    1.3401892650   -0.7691733743   -2.2022667352
 C    2.4054185783   -0.2504904147   -1.2483808117
 H    1.0008471921    2.0095751973    0.3551034740
 H   -0.2243728795    1.9672264245   -0.9221885967
 H   -0.7186166678    1.9720877932    0.7748695496
 H   -2.0660985547   -0.4328345028    0.4598639678
 H   -1.4988434641   -1.0507615088   -1.1279090637
 H    1.4713255882   -2.7514138362    0.4043036882
 H    0.5364145027   -0.7837568569    2.3549430370
 H    1.5027989993   -1.7311449058   -2.6779258326
 H    0.8329222937   -0.0433931341   -2.8312184353
 H    2.6069362528    0.8163118245   -1.2489722071
 H    3.2839414954   -0.8654474321   -1.0792934247