16

 C   -0.0620552889    1.4297634463    0.0308377656
 C    1.3296876104    0.8315308932    0.0044181070
 C    2.0594751256    0.4900938351    1.2853567578
 O    1.1903700718   -0.3777436008    2.0477009840
 C    0.1288794929   -0.8223672331    1.2819462483
 O    0.2440825522   -2.1946920042    0.7809755510
 C   -0.0356219264   -2.1105937072   -0.5442569663
 N   -0.1854558335   -0.9686058771   -1.0922922260
 C    0.0969890118   -0.0509032812   -0.0242206381
 H   -0.4427744751    1.8648192676    0.9515223838
 H   -0.3822105790    1.9298908646   -0.8763762291
 H    1.9096282172    0.9479068708   -0.9023922815
 H    2.9991813513   -0.0289473125    1.0602185878
 H    2.2834466485    1.3480883774    1.9282556658
 H   -0.7662844647   -0.8139483813    1.9132331157
 H   -0.1062549642   -3.0641694576   -1.0551668559