14

 C   -0.1733605054    1.4400241866    0.1282209639
 N   -0.2096980828   -0.0111731809    0.1701682449
 C    0.6053214372   -0.6473517004    0.8822460810
 O    1.5365873244   -0.0028808654    1.6805151104
 N    2.6527469725   -0.6738290605    2.2842196089
 N    2.6582009019   -1.9075822012    2.2910627884
 N    1.6522675808   -2.6238723912    1.7455860264
 C    0.6100314861   -2.1342855525    0.9518769263
 N   -0.2501648270   -2.8476277933    0.3530369319
 H    0.8247912683    1.8610807087    0.2899691218
 H   -0.5610874698    1.7693173532   -0.8388247825
 H   -0.8382372961    1.8424604413    0.9026319478
 H    1.8064532119   -3.6194312547    1.8057352036
 H   -0.0968913520   -3.8459797598    0.5119175972