20

 C    0.4373857824    1.2309181092    0.2728399524
 C   -0.3719009546    0.1078774848   -0.3804116359
 N    0.3394923099   -0.5363045693   -1.4674132773
 C    0.7755645596   -1.8084572220   -1.4243796240
 O    0.6094481509   -2.5966775816   -0.5010677642
 C    1.5391074101   -2.2291802953   -2.6758321539
 N    1.8754092752   -3.5472791027   -2.6407076979
 N    1.7595746406   -1.3644337883   -3.5935688735
 C    2.4851572703   -1.8053362135   -4.7698277795
 H    1.3683910731    0.8426489568    0.6956679991
 H    0.6924079486    2.0105121842   -0.4529841193
 H   -0.1398608059    1.6973360282    1.0774149398
 H   -0.5999680770   -0.6763627925    0.3452877677
 H   -1.3251862349    0.5011846728   -0.7554021522
 H    0.5973933880   -0.0320636108   -2.3070551907
 H    1.7154042263   -4.0032240844   -1.7537286085
 H    2.5756060413   -3.9152575197   -3.2595543222
 H    3.5082590816   -2.1374913317   -4.5277377266
 H    1.9816208027   -2.6424349494   -5.2786483764
 H    2.5694263815   -0.9808938250   -5.4818271970