21

 C   -0.0061355720    1.4502315606   -0.2317239031
 C    1.5104126171    1.5537758283   -0.0459948226
 C    1.9311857876    1.0452419363    1.3107665495
 C    1.1380524386    1.2089085408    2.6016438708
 C    0.6336400475   -0.1188402476    3.1953851753
 C   -0.5062019991   -0.7602595009    2.4387099721
 C   -0.7443930901   -0.7382740004    1.1244765919
 C    0.0845801453   -0.1061360322    0.0434831782
 C    1.6027949858    0.0508305716    0.2326972493
 H   -0.6278150043    2.0302428958    0.4570473031
 H   -0.3278147134    1.6647905444   -1.2530108655
 H    2.1650275635    2.1739706335   -0.6469290321
 H    3.0075152828    1.1257713398    1.4502551015
 H    1.7739110312    1.7095662278    3.3408771179
 H    0.2781407657    1.8704389178    2.4494760540
 H    1.4746719535   -0.8234468754    3.2760414582
 H    0.3014881046    0.0565166771    4.2260755853
 H   -1.2207187189   -1.2969064752    3.0610197920
 H   -1.6476085547   -1.2385464709    0.7773195121
 H   -0.1178044820   -0.6258457285   -0.8974611070
 H    2.3351864114   -0.6668540525   -0.1195207012