16

 C   -0.2392715875    1.6119818077    0.7468354701
 N   -0.2399576743    0.1622110868    0.6793184898
 C   -0.9164247905   -0.5240513902   -0.2803883039
 O   -1.5772769873    0.0014853717   -1.1576663992
 C   -0.7606709409   -2.0270873555   -0.1694231407
 O   -1.9066536879   -2.8071304001   -0.4588530023
 C   -0.8160610821   -2.9015377269   -1.3713241612
 C   -1.0431380910   -2.3686932783   -2.7598890458
 O   -0.3133849895   -2.6701629979   -3.6708756181
 H    0.7826742183    2.0039101506    0.7263681339
 H   -0.7844323166    1.9785472634   -0.1232700346
 H   -0.7365693972    1.9683701072    1.6554159729
 H    0.2514254940   -0.3529754409    1.3908889905
 H   -0.1696702081   -2.3942174211    0.6725519763
 H   -0.2421944860   -3.8278460911   -1.3361645485
 H   -1.9227145033   -1.7128599054   -2.8683624991