14

 O   -0.8081383976    1.3593464951   -0.1229781419
 C    0.2952108007    0.9515811774   -0.3697817379
 C    1.5635351087    1.7946627169   -0.1822007536
 O    2.6409683513    1.2531336717   -0.2847720906
 C    1.3572707569    3.2541561701    0.0978852279
 C    2.6026415826    4.0652865891    0.5303835675
 N    2.4914914242    4.8069682909   -0.7320056411
 C    1.4061801100    4.1394685322   -1.2177020383
 O    0.7659149057    4.1992324077   -2.2266123145
 H    0.5083673860   -0.0780736446   -0.7235281593
 H    0.4362625807    3.4199741000    0.6570703906
 H    2.4620858571    4.6809361994    1.4227971133
 H    3.5095308696    3.4623915053    0.6139044722
 H    3.0636871941    5.5249779388   -1.1507785542