16

 N   -0.1406501817   -1.1743851278    0.0623220657
 C   -0.0902138643   -0.0192112592    0.0648182820
 C   -0.0165318633    1.4199423314    0.0206710903
 N    0.5865467531    2.0939327112    1.2175976131
 C    1.2817498927    2.1403471741   -0.0398912467
 C    2.7453147862    1.7770657215   -0.3339529238
 C    2.4977437203    2.2391815898   -1.7941948788
 C    1.8487776511    3.3038648697   -0.8703023202
 N    3.1268059978    3.2263403787   -0.0394492814
 H   -0.8758842676    1.8939178919   -0.4466809185
 H    0.0745796215    2.9536766837    1.4066099254
 H    3.3287158284    0.9342825870    0.0324408727
 H    3.3902405609    2.5815299995   -2.3166523851
 H    1.8340852518    1.6316861527   -2.4103021912
 H    1.3838389074    4.2538410680   -1.1370469540
 H    2.9112237858    3.4348039678    0.9407702205