15

 C   -0.0831594826    1.5629593599    0.1417902312
 C    0.0066153608    0.0447179293   -0.0087994379
 C    0.7148373113   -0.4298043944   -1.2511275549
 N    1.1811131785    0.4412989099   -2.0790214425
 O    1.8210905287   -0.0436440809   -3.2010377991
 C    1.9804533054   -1.4080272754   -3.4715347939
 O    2.5512089178   -1.7054737376   -4.4754972514
 N    1.4619175127   -2.3247470621   -2.5492500502
 C    0.8710071382   -1.8490275939   -1.5136051793
 H    0.9109863360    2.0152948900    0.1733310455
 H   -0.6200154908    2.0111905996   -0.6977180416
 H   -0.6095257097    1.8152113527    1.0657813944
 H    0.5187834089   -0.3958021632    0.8579507322
 H   -0.9984327740   -0.3997325318   -0.0055841859
 H    0.4651544989   -2.5595027223   -0.7905420566