20

 C    0.2352908312    1.4551805627   -0.0557764923
 N   -0.1157741036    0.0471294564    0.0381980896
 C   -0.3137669504   -0.5122905346    1.2705067028
 O   -0.3014963964    0.0950597825    2.3235811467
 C   -0.0546475571   -0.7607361232   -1.1796694319
 C    1.2392065103   -1.6286840946   -1.3092853190
 C    0.7133473017   -3.0826327534   -1.3203401435
 O   -0.6052033710   -3.0273151863   -0.7886433366
 C   -1.1672919187   -1.8269511679   -1.2895959302
 H    1.2679275431    1.5893087669   -0.4028821564
 H   -0.4335639894    1.9757699861   -0.7506920607
 H    0.1358823737    1.8884365278    0.9391583582
 H   -0.4942102281   -1.5995563514    1.2095213285
 H   -0.1357120616   -0.0553276243   -2.0091084021
 H    1.8024643841   -1.3965658257   -2.2159469889
 H    1.8910570246   -1.4415485528   -0.4534984424
 H    0.6887068388   -3.4792242602   -2.3476412432
 H    1.2957455608   -3.7673618079   -0.7001646947
 H   -2.0599840984   -1.5864946649   -0.7095646266
 H   -1.4529918136   -1.9503806252   -2.3473724973