16

 C   -0.0214568111    1.5102825159    0.0818895547
 C   -0.0015186892    0.0173079431   -0.0383953968
 C   -0.0379953089   -0.6843916380   -1.1860495933
 C    0.0058847468   -2.1562685007   -1.1862314154
 O   -0.0054459477   -2.8066268475   -2.2142755830
 N    0.0494544146   -2.7832378692    0.0732542817
 C    0.0875317165   -2.0624474843    1.1420789272
 N    0.2163392033   -2.6588736281    2.3826350475
 N    0.0554309492   -0.6872983622    1.1560615262
 H    0.8745370357    1.8782266617    0.5969871384
 H   -0.0584933259    1.9694954441   -0.9065361995
 H   -0.8929688794    1.8504193730    0.6539523724
 H   -0.0945718351   -0.1817712946   -2.1428663608
 H    0.0862901140   -3.6592403019    2.3230830407
 H   -0.2959652427   -2.2367319547    3.1442185187
 H    0.2255973300   -0.1919617667    2.0168384515