18

 C    0.0156308334    1.5797209563    0.0183879154
 C   -0.0397921635    0.0780246362    0.0083491894
 C    0.3830461958   -0.7516795504   -1.2405010750
 C   -0.5727971344   -1.8322941764   -0.7441774039
 C   -0.4967121256   -1.8452955466    0.7776386854
 C    0.5046712041   -0.7723960877    1.1945884752
 C   -1.3684045074   -0.8178897501    0.0671306819
 C   -2.7445373298   -0.5213772122    0.1384659057
 N   -3.8702025813   -0.2496251749    0.1970939141
 H    1.0557148559    1.9233558289   -0.0303066058
 H   -0.5181776872    2.0043186573   -0.8379395151
 H   -0.4303933296    1.9892364563    0.9304691003
 H    0.0222148229   -0.2971738748   -2.1670133004
 H    1.4463036709   -0.9986624918   -1.3360947735
 H   -0.9871149710   -2.6679775663   -1.2923394655
 H   -0.8549953132   -2.6905714002    1.3500447817
 H    1.5719637713   -1.0200092027    1.1795701469
 H    0.2383028688   -0.3340117809    2.1600264031