18

 C   -0.2506879489    1.5303757524    0.0546168755
 C    0.1026783473    0.0650808279   -0.0194432404
 O    1.3736577497   -0.1721733547   -0.7464676102
 C    1.9529198542   -0.7425344543    0.3537538810
 N    3.0757732345   -1.2774055355    0.5392311631
 C    0.7192242099   -0.6011069297    1.2387362298
 O    0.8264031152    0.2589773057    2.3387039645
 C    0.2093233565   -1.9726844338    1.6805227602
 O    1.1089857915   -2.4829903111    2.6519537488
 H    0.5405998879    2.0963618490    0.5491727203
 H   -0.4084761779    1.9302546824   -0.9510410941
 H   -1.1734284145    1.6596643952    0.6283814207
 H   -0.6849026715   -0.5243708519   -0.4993436551
 H    3.6665924033   -1.2492859375   -0.2933693727
 H    1.1574111969   -0.2914621137    3.0629768027
 H   -0.7643110745   -1.8722719958    2.1715110558
 H    0.1007209561   -2.6472039333    0.8188946411
 H    1.9756074645   -2.5506101114    2.2211901891