18

 C    0.0500812185    1.5266230889    0.0097597823
 C   -0.0259874851    0.0324189341   -0.0285216365
 C    0.5288600404   -1.0062634737   -0.9763975560
 C   -0.8030777441   -1.7979119669   -0.9437536547
 O   -0.7890029731   -2.9713595328   -0.1104862982
 C   -0.8183157873   -2.0951630396    1.0562184137
 C    0.6244614401   -1.7653670631    1.4166093405
 N    1.0818101584   -0.8163750132    0.3810790228
 C   -1.2768331238   -0.8717558959    0.1908265723
 H    1.0462035252    1.8628286271   -0.2898815335
 H   -0.6870030095    1.9781995974   -0.6626422063
 H   -0.1444990527    1.9043911609    1.0205862608
 H    1.2204137047   -0.9183320345   -1.8076797298
 H   -1.3141455311   -1.9331103376   -1.8986912154
 H   -1.4496622403   -2.4937680709    1.8532864624
 H    0.7094518535   -1.2660351867    2.3888033026
 H    1.2450723483   -2.6648587063    1.4204048854
 H   -2.2853118121   -0.4759775172    0.2700157477