17

 C   -0.4705869199    1.3373647687   -0.0415781340
 C    0.1074603550   -0.0663570435    0.0915433360
 C    0.8988815843   -0.6091508840   -1.1192918255
 C    1.8372428562   -1.6274920486   -0.4316438850
 O    2.0966787398   -1.0836350093    0.8690763045
 C    1.1272392632   -0.1934492206    1.2242602594
 O    1.1293121783    0.3701676784    2.2786840186
 C    0.0979572817   -1.1745920167   -2.1903011009
 C   -0.5726846789   -1.6536051263   -3.0651266524
 H    0.3084802597    2.0585509177   -0.3088887642
 H   -1.2448313425    1.3648577359   -0.8128394852
 H   -0.9058929320    1.6530738029    0.9094066349
 H   -0.6984725130   -0.7761656469    0.3236814876
 H    1.5134013430    0.2092054260   -1.5179152974
 H    1.3522957694   -2.6044342154   -0.3291201199
 H    2.7916127246   -1.7525264949   -0.9453034069
 H   -1.1618453789   -2.0718733734   -3.8436668298