11

 C   -0.0900440871    1.4363699224   -0.0670866313
 C    0.1542527159   -0.0355556972    0.1047506364
 N    0.5324139089   -0.6779501359    1.1240239974
 O   -0.0820694347   -0.6783387209   -1.0935793222
 C   -0.1700938040   -2.0503551882   -1.1248846514
 O   -0.2890430696   -2.6226210716   -2.1623222018
 H    0.1208077434    1.9772471204    0.8565263896
 H    0.5432131404    1.8275062079   -0.8691677370
 H   -1.1289291621    1.6120387428   -0.3628684685
 H    0.6557536839   -0.0550642820    1.9188866680
 H   -0.1303199650   -2.4990136174   -0.1253089291