18

 C    0.1493751079    1.1877509895    0.8612794908
 C   -0.0172883839    0.2654513287   -0.3215426453
 O    0.8634025805    0.1136360570   -1.1511266621
 C   -1.3127375668   -0.5169236383   -0.3893473145
 C   -1.6729057261   -1.3087004404   -1.6891172224
 O   -0.9260330100   -1.1385541773   -2.8543344768
 C   -1.5280452790   -2.5854051054   -0.8534332251
 C   -0.2273298323   -2.6602304545   -0.1705258134
 N   -1.2704196002   -1.7999408532    0.4358401690
 H    1.1630798590    1.5883671956    0.8923195876
 H   -0.5710066856    2.0114583258    0.7921326666
 H   -0.0770845758    0.6460794048    1.7865680196
 H   -2.1401307390    0.0913699866   -0.0158007279
 H   -2.7227221632   -1.1434621558   -1.9494649053
 H   -0.0398974919   -0.8567360919   -2.5813247570
 H   -2.2225047000   -3.4191056762   -0.8661844678
 H   -0.0382304775   -3.5429204173    0.4318379324
 H    0.6589320241   -2.2148298675   -0.6120392784