25

 C   -0.0177559183    1.5818975771    0.1205428141
 C   -0.0451121096    0.0572254500   -0.0100440552
 C    0.7219419109   -0.4571370209   -1.2339305820
 O    2.0863376202   -0.0270237491   -1.2123816687
 C    0.6259073564   -1.9797923716   -1.3862243784
 C    1.2670666681   -2.4982273783   -2.6743691665
 C    1.3304908068   -4.0272794742   -2.7140716799
 O    0.4833543094   -1.9807327833   -3.7472760500
 C    1.1471872324   -1.9258452854   -4.9876872648
 H    1.0121606386    1.9475678378    0.1427928605
 H   -0.5178755102    2.0561708296   -0.7309929752
 H   -0.5235320495    1.9128306391    1.0326460597
 H    0.3833918658   -0.4042456898    0.8928720743
 H   -1.0813895979   -0.2983792950   -0.0682080812
 H    0.3090379602    0.0016012884   -2.1390824804
 H    2.4895342262   -0.3877598415   -0.4140739166
 H    1.1066339422   -2.4621546530   -0.5234620462
 H   -0.4277948041   -2.2846976478   -1.3753479572
 H    2.2848522584   -2.0842633961   -2.7436391446
 H    1.7707261003   -4.3867872796   -3.6487715272
 H    1.9441956143   -4.4096470848   -1.8918448150
 H    0.3259663840   -4.4534359540   -2.6238851997
 H    0.4663643496   -1.4471260318   -5.6966155950
 H    2.0716085977   -1.3309957548   -4.9279398612
 H    1.4042958181   -2.9224949108   -5.3764023338