21

 C    0.0213072604    1.5438917200   -0.1840220352
 C    1.3234481161    0.7841197164   -0.0730660134
 C    2.2339016847    0.8195576741    1.1474955902
 C    1.5897253179    0.3545042377    2.4639173407
 C    0.3628281282    1.1638697968    3.0070257037
 C   -0.5419002426   -0.0296542753    2.6999124656
 C   -0.3553166419   -0.6268612741    1.3184299073
 C    0.0051990576    0.0462312909    0.0175882702
 C    0.6804331662   -0.8933992825    2.3734812919
 H   -0.3046441818    2.1808781387    0.6267580044
 H   -0.2499751561    1.9178363801   -1.1660594523
 H    1.8640117960    0.6747142923   -1.0088784432
 H    3.0902686494    0.1632161981    0.9429484251
 H    2.6508486527    1.8257591012    1.2880121645
 H    2.3691814940    0.2566120247    3.2225663914
 H    0.4540082286    1.3023675587    4.0881936237
 H    0.1354652976    2.1369258550    2.5654013794
 H   -1.4144728657   -0.3010453490    3.2837801706
 H   -1.0364336600   -1.4628273797    1.1792377334
 H   -0.2775328326   -0.5419396868   -0.8504292820
 H    0.9406657415   -1.8864572276    2.7202024342