18

 C   -0.0376596598    1.5489655203    0.1184573041
 C    1.5041810469    1.4781429347   -0.0169958004
 O    2.0684557914    1.3660230167    1.2846771437
 C    1.9512183422    0.0370634320    1.7700526701
 C    2.9256895027   -0.8564184187    0.9760111903
 N    1.8298136208   -1.1519524151   -0.0040594602
 C    1.3464020463    0.0610550545   -0.7400945731
 C   -0.0302122159    0.0200903700   -0.0195309142
 C    0.7987244131   -0.7575585942    1.0455568800
 H   -0.4079381589    2.0109150330    1.0365660279
 H   -0.5166090810    2.0115450868   -0.7502027943
 H    2.0312849699    2.2748109705   -0.5443254626
 H    1.9891468613    0.0759910282    2.8613812461
 H    3.8158278982   -0.3585444070    0.5819496402
 H    3.2082115325   -1.7861848060    1.4800520846
 H    1.4944310334    0.0631170546   -1.8214747001
 H   -0.8914898226   -0.5272281929   -0.4035507536
 H    0.3359424293   -1.5602556574    1.6249699415