15

 N   -0.1141068735   -1.0537960059   -0.0110364527
 C   -0.0355531304    0.0985186952    0.0285457845
 C    0.0199421988    1.5379308916    0.0903418363
 C    0.5852221319    2.1990466704    1.3022980815
 N    1.3810642651    2.1238357815    0.0230565819
 C    1.1618413934    3.6099687360   -0.1690058511
 C    0.4023996752    3.6927935846    1.1620674644
 C   -0.6041771218    4.6043417138    1.7068174134
 O    0.7563432317    4.6008277619    2.1758857270
 H   -0.7874516053    2.0334585050   -0.4453015469
 H    0.8584862327    1.6518265674    2.1973328222
 H    2.1217136095    4.1274687240   -0.1226736223
 H    0.6392588159    3.8696653066   -1.0940480768
 H   -0.8958011588    5.4871933902    1.1404466114
 H   -1.3425524044    4.2354585676    2.4167163372