18

 C    0.0488860507    1.6424277288   -0.1429763211
 C    1.5767938675    1.4115313359    0.0017707522
 C    1.2717624336    0.0229400561    0.6452752031
 C   -0.1639447247    0.1160933467    0.0407988659
 O    2.0708944015   -1.0644056214    0.1968000040
 C    2.6259414257   -1.7770259657    1.2989084094
 C    2.1193174507   -1.0595291190    2.5178664183
 C    1.3537223358   -0.0420888466    2.1422440632
 H   -0.3627080421    2.2205718594    0.6890364544
 H   -0.3022973805    2.0862111037   -1.0762614448
 H    2.0600000523    1.2614693811   -0.9671554378
 H    2.1620150407    2.1245833050    0.5880301531
 H   -0.9976377921   -0.2267947697    0.6588689647
 H   -0.1867532277   -0.4105394396   -0.9167827668
 H    2.3050098640   -2.8301350184    1.2651715271
 H    3.7254216961   -1.7730660352    1.2333196509
 H    2.3637075916   -1.3574425800    3.5295062592
 H    0.8433813970    0.6630837790    2.7863113951