23

 C    0.0035567464    1.6031273850    0.0206445821
 C    0.0894389972    0.0809500318    0.0440886157
 C    1.1130669711   -0.6701309563   -0.8037529874
 C    2.4049976026   -0.8047583693    0.0272783606
 C    2.1575732697   -0.1413719772    1.3774056801
 C    0.7029750719   -0.6835342790    1.2662137104
 C   -0.1212561095   -0.9591710435    2.4970773900
 C    1.2557255003   -1.7654609440    0.2239034281
 C    1.1446869997   -3.2523975643    0.1451468981
 H    0.9838224483    2.0739986044    0.1348450143
 H   -0.4153883503    1.9493340371   -0.9310017498
 H   -0.6473556232    1.9768688623    0.8198031319
 H   -0.9044891077   -0.3434875214   -0.1482755931
 H    1.1383548519   -0.7765575948   -1.8822735659
 H    3.3531562656   -1.0071295939   -0.4562099995
 H    2.7028266020   -0.6578918144    2.1741047426
 H    2.3016900525    0.9393714636    1.4884447449
 H   -0.3648731756   -0.0270038156    3.0216644544
 H   -1.0667881624   -1.4529645249    2.2455584185
 H    0.4144017659   -1.6024376423    3.2042878851
 H    0.1006291339   -3.5798405219    0.0705225128
 H    1.6714354860   -3.6319042906   -0.7377352157
 H    1.5816131638   -3.7419468510    1.0238913817