19

 C   -0.0879408055    1.7299186084    0.2402468302
 C   -0.0338641206    0.2171986027    0.0184589981
 C    0.9257874314   -0.2013707616   -1.1457974995
 C    1.9606907124   -0.5852587271   -0.0820857255
 O    3.1404644478   -0.7814368521   -0.1045701857
 C    0.9169217185   -0.5061541431    1.0399926807
 C   -1.4303265383   -0.3572650230   -0.0393955393
 C   -2.1677746138   -0.5593989881   -1.2916327971
 O   -1.5818259025   -1.6647423776   -0.5941617200
 H    0.9198364982    2.1497237777    0.3248226186
 H   -0.5931635004    2.2330025996   -0.5909751611
 H   -0.6273899804    1.9753253730    1.1619080540
 H    0.5644491519   -1.0980438360   -1.6609335082
 H    1.2184229941    0.5546224972   -1.8784548493
 H    1.2056928772    0.0329276184    1.9458903919
 H    0.5585795234   -1.5044281912    1.3138706211
 H   -2.0181080683   -0.1969190527    0.8676039937
 H   -3.2561018188   -0.5342846075   -1.2925694922
 H   -1.6955657163   -0.3074100370   -2.2400583106