21

 C   -0.9388038192    1.2574388138   -0.0202840802
 C   -0.0166183658    0.0584480947   -0.0819878722
 O    1.2152851101    0.3408372708   -0.7906630094
 C    1.9955095515   -0.3821930162    0.1883616941
 C    3.2119155985    0.2996882617    0.5913570840
 C    4.2260810301    0.8453841246    0.9369781351
 C    0.7718437952   -0.4433283344    1.1685331521
 C    0.8553815500    0.5511594524    2.3234887963
 C    0.4079112565   -1.8384923780    1.6641967205
 H   -0.4557393435    2.1170688916    0.4495346036
 H   -1.2333146995    1.5457208223   -1.0344494275
 H   -1.8492843249    1.0139442355    0.5381407310
 H   -0.5419068703   -0.7789390031   -0.5682639386
 H    2.2541344784   -1.3829394962   -0.1903300473
 H    5.1222794266    1.3316366983    1.2343394099
 H    1.1641885447    1.5439941369    1.9887394138
 H   -0.1133963094    0.6412802453    2.8264310479
 H    1.5882117240    0.2136091291    3.0631420625
 H    1.1498218062   -2.2066118644    2.3815380121
 H   -0.5641164680   -1.8313246129    2.1703889111
 H    0.3507835887   -2.5562607218    0.8394077411