20

 C    0.2180585901    1.5105878386    0.0874991512
 C   -0.0386983289   -0.0109472554    0.0003027553
 C    0.6122115407   -0.7201635613    1.2097616675
 C   -1.5598672745   -0.2840193788   -0.0080528448
 C    0.5544808183   -0.5326291905   -1.2375291384
 C    1.0424190558   -0.9622086864   -2.2500233235
 C    1.6345468278   -1.4834752729   -3.4799786779
 C    2.6192994894   -2.5478098351   -3.2400707631
 N    3.3948958630   -3.3849485665   -3.0647102922
 H    1.2899552303    1.7270958646    0.0926370048
 H   -0.2314805924    2.0335838044   -0.7613916713
 H   -0.2185522408    1.9110838221    1.0084713778
 H    0.1791169164   -0.3411046761    2.1414322047
 H    0.4462318422   -1.8000624075    1.1665895673
 H    1.6909355806   -0.5430018522    1.2338125740
 H   -2.0417617746    0.2062919261   -0.8587022605
 H   -1.7647707427   -1.3563161768   -0.0716078288
 H   -2.0134786803    0.0993415564    0.9119900783
 H    0.8579015250   -1.8833956812   -4.1449428837
 H    2.1316644146   -0.6814392115   -4.0411407367