23

 C    0.2154846476    1.4696091209    0.2647186959
 C   -0.1929437744    0.0456047287   -0.1325375241
 C    0.6065331471   -0.5276086008   -1.3038920317
 C    0.3463189711    0.2054998348   -2.6152084329
 O    2.0573944978   -0.5140115063   -1.0470255791
 C    2.1371821986   -1.9120362411   -1.3209106901
 C    1.3705599880   -2.6908441280   -0.2998253976
 C    0.6431668366   -2.0656114887   -1.4806082562
 C   -0.2036698671   -2.8657301957   -2.4288371975
 H    1.2885217370    1.5119637151    0.4711913119
 H   -0.0069619066    2.1978689712   -0.5208569628
 H   -0.3191995559    1.7855334007    1.1655692291
 H   -0.0717736976   -0.6118761514    0.7336483613
 H   -1.2578314569    0.0162916910   -0.3981121862
 H    0.6380848673    1.2550470991   -2.5270921167
 H    0.9313371748   -0.2385777147   -3.4249076192
 H   -0.7140283634    0.1645261390   -2.8873671724
 H    2.9851780483   -2.2706158515   -1.8942832383
 H    1.4583207337   -3.7717835676   -0.3667582517
 H    1.2843630061   -2.3038963118    0.7111164807
 H   -1.2201363594   -3.0007987461   -2.0393197051
 H   -0.2833843745   -2.3887815997   -3.4109394474
 H    0.2199856917   -3.8639147573   -2.5795118801