20

 C   -0.3190353013    1.4155888582   -0.0456483216
 C    0.7994321511    2.4787002924   -0.0036328648
 C    1.8320175821    2.2206882019   -1.0655051841
 C    2.8170887006    1.3257728603   -0.9784193296
 C    3.2109249381    0.4692395837    0.1766410301
 N    2.9351367285    0.9062787327    1.5626989507
 C    2.3175446285   -0.3319364083    1.0822260844
 C    0.7898586754   -0.4361127448    1.0250970319
 O    0.1505175798    0.0843887503   -0.1186691218
 H   -0.9785235672    1.5450106991    0.8278845630
 H   -0.9290129056    1.5437277685   -0.9464378411
 H    0.3334861228    3.4616248381   -0.1393384771
 H    1.2694724330    2.4638112587    0.9809553869
 H    1.7133750013    2.7493872605   -2.0089575351
 H    3.4570507368    1.1875577042   -1.8473476208
 H    4.1818665530    0.0009984261    0.0203022559
 H    3.7314619204    0.7138209113    2.1631027303
 H    2.7664868847   -1.2584292746    1.4417248849
 H    0.5429029374   -1.5045369420    1.0363557471
 H    0.3737902507    0.0068265637    1.9434303610