16

 O   -0.4581221391    1.0123571720    0.8268964801
 N   -0.1691172326   -0.2810412712    0.3582926564
 C   -1.2035611384   -0.8095436811   -0.1536130441
 C   -2.5985785699   -0.2375219272   -0.2565955701
 O   -3.3589880662   -1.2254670829   -0.9495054953
 C   -2.7374590867   -2.4808451475   -0.7790866832
 C   -1.2136399706   -2.1974169286   -0.7482586587
 C   -3.1677487952   -3.1809877672    0.5062349445
 O   -3.7942605573   -2.6585673557    1.3882554196
 H    0.3843296952    1.2903246890    1.2018892697
 H   -3.0086292851   -0.0461215923    0.7431803639
 H   -2.6275860234    0.6961984298   -0.8269878205
 H   -3.0195246670   -3.1209712845   -1.6235895983
 H   -0.8161191896   -2.1870196190   -1.7684447718
 H   -0.6305374284   -2.9136883889   -0.1649027204
 H   -2.8257224358   -4.2415309746    0.5763395684