23

 C    0.1460513371    1.2706181069   -0.2786023065
 O   -0.0164853494   -0.0404180849    0.2070946527
 C   -1.3405618529   -0.5265650639    0.1162237504
 C   -1.8279529777   -0.8454895568   -1.3141499634
 C   -2.8987567172   -1.9136718392   -1.0715236104
 C   -2.2508387164   -2.8402183734   -0.0159470315
 C   -3.2528708132   -3.7031699267    0.7486279708
 O   -1.2703855212   -3.6761556733   -0.6498244235
 C   -1.4427839590   -1.8680406009    0.8785921461
 H    1.1823344771    1.5610067151   -0.0875167926
 H   -0.0443357471    1.3455350759   -1.3595760629
 H   -0.5210574896    1.9812588152    0.2363706920
 H   -2.0227015051    0.2153197150    0.5669216614
 H   -2.1979916294    0.0280695408   -1.8570166508
 H   -0.9928389810   -1.2788011926   -1.8738454347
 H   -3.8080689345   -1.4579828351   -0.6585554832
 H   -3.1915380211   -2.4616038676   -1.9738254863
 H   -3.8089000454   -4.3548900331    0.0630154608
 H   -2.7339805404   -4.3384622331    1.4726566368
 H   -3.9819511103   -3.0875485574    1.2852585032
 H   -1.7364445980   -4.2649055263   -1.2539074457
 H   -0.4407749895   -2.2718317343    1.0354289194
 H   -1.9121366556   -1.7383779404    1.8567069479