19

 C   -0.0916011798    1.4795520396    0.0523224707
 N    0.1209370811    0.0479851013   -0.1103967185
 C    0.6906098116   -0.5654998083   -1.2852272700
 C   -0.0577330422   -1.6590183402   -1.9854267565
 C    1.8200075956    0.2882080170   -1.9050932948
 C    2.5764690139    0.2709884425   -0.5438595014
 C    1.4268744253   -0.5645381932    0.0602125503
 C    1.5864974067   -1.6042314614    1.0317013263
 N    1.7482994595   -2.4489010130    1.8061337767
 H    0.7012916253    2.1217017530   -0.3532091431
 H   -1.0317098422    1.7442784964   -0.4401980017
 H   -0.1956612785    1.6948513075    1.1193102063
 H   -0.7613432980   -1.2361475079   -2.7124541185
 H    0.6262185568   -2.3196862702   -2.5272206476
 H   -0.6281857888   -2.2502463613   -1.2655137222
 H    2.3606770817   -0.2504454276   -2.6854487418
 H    1.5190066392    1.2623817574   -2.2995214579
 H    3.5077384869   -0.2949611881   -0.5910227743
 H    2.7723093759    1.2300304668   -0.0572741920