19

 N    0.0874431676   -1.2285509042   -0.0205925152
 C    0.0426988871   -0.0765653065   -0.0996579549
 C    0.0076904339    1.3806485232   -0.1933323644
 C    1.3626207113    2.0325995265    0.1650945557
 C    1.2883168910    3.5311614033    0.0808700701
 C    1.5474004798    4.2901737948   -1.1624829658
 N    2.5264124638    4.4000800105   -0.0622046314
 C    1.9076118334    5.3649764215    0.9171666574
 C    0.6773095173    4.4492350575    1.1452796680
 H   -0.2860121206    1.6600446477   -1.2114133264
 H   -0.7797172963    1.7511739337    0.4733788717
 H    1.6554192905    1.7246372426    1.1751167296
 H    2.1375989139    1.6677348849   -0.5160122885
 H    1.9342878166    3.7429158404   -2.0171755698
 H    0.9398333910    5.1571045845   -1.4166920577
 H    2.5495580757    5.4717825563    1.7930655424
 H    1.7195687843    6.3552476460    0.4899052155
 H   -0.3165482825    4.8558816662    0.9366061757
 H    0.6695282821    3.9990932910    2.1406982779