16

 C    0.1279534580    1.5498711496   -0.0557491226
 C   -0.0324309012    0.0326147255    0.0599309884
 O    0.5458413199   -0.6102293949   -1.0795938109
 C    1.4604682925   -1.6298364573   -0.6795205318
 C    1.5263804786   -1.5221120432    0.8220726922
 C    2.3928647505   -2.3448003412    1.6665678802
 O    3.1427003202   -3.1932266806    1.2360495944
 C    0.6706752770   -0.5831800861    1.2362784594
 H    1.1863577485    1.8250908611   -0.0602901223
 H   -0.3257431057    1.8965062695   -0.9878393347
 H   -0.3671474334    2.0565943068    0.7790288164
 H   -1.1107867025   -0.2030381312    0.1007126528
 H    1.1028830152   -2.6191321719   -1.0008184153
 H    2.4365909880   -1.4669464029   -1.1547672979
 H    2.3178032966   -2.1365856434    2.7565335458
 H    0.4863834278   -0.2892151697    2.2631255658