19

 C   -0.4921678738    1.5365426357   -0.1346472822
 C   -0.0931316812    0.0780335633   -0.0011244085
 O   -1.2154315723   -0.7862580769   -0.1270783246
 C    1.1125445878   -0.4271517095   -0.8991406193
 O    1.8419534300    0.5036074584   -1.6437850216
 C    1.8261565781   -0.9308795825    0.3829796137
 O    2.7200722132    0.1000729610    0.8743781844
 C    1.7251651635    0.5516334798    1.8360194905
 C    0.6651617955   -0.4033828688    1.2707023496
 H    0.3729360867    2.2030889994   -0.1020084941
 H   -0.9785877719    1.7022215951   -1.1030149396
 H   -1.1941225469    1.8195175515    0.6559618212
 H   -1.5988012690   -0.6432749820   -1.0002914593
 H    0.7735713933   -1.2314507676   -1.5606958191
 H    2.4945286153    0.8690487838   -1.0263097043
 H    2.2774610486   -1.9243038947    0.4122837964
 H    2.0419118651    0.3071084834    2.8565445686
 H    1.5384671947    1.6282724403    1.7680806503
 H    0.0796237133   -1.0060980497    1.9610194380