19

 C    0.1132946040    1.3290604368    0.1598310846
 O   -0.3033877325    0.0219843256   -0.1891908388
 C    0.4950857216   -0.5643986567   -1.1968050578
 C    1.7814495296   -1.3692982563   -0.8033095044
 C    0.8335654392   -2.4767895808   -0.2238003946
 O    0.1922163384   -2.3260635064    0.9991141904
 C    0.1550448915   -2.0320622877   -1.5690065026
 C    1.5806960164   -2.1063694497   -2.1668354888
 O    1.7674437896   -1.4124743028   -3.3755149118
 H    1.1203197832    1.3335091533    0.5998696408
 H    0.1123521654    1.9895628132   -0.7189770200
 H   -0.5991245380    1.7116100579    0.8938026926
 H    0.6081121155    0.1303856554   -2.0333653832
 H    2.7163031624   -0.9948463375   -0.3829255486
 H    1.2523355634   -3.4880277856   -0.2380951665
 H   -0.2192271036   -1.4496611948    0.9891301143
 H   -0.7660059438   -2.4040986412   -2.0176206311
 H    2.0093418322   -3.1149976884   -2.2114613505
 H    2.7131872955   -1.3584558541   -3.5442322142