21

 C   -0.7272859880    1.2880173422   -0.0130241914
 C   -0.0253901684   -0.0642273287   -0.0246317113
 C    1.1823750144   -0.2113518474   -0.9996675351
 C    2.1129136871   -0.5686951081    0.1943124324
 O    2.7040421437   -1.8486849695    0.1738293107
 C    3.0716473000    0.5480532771    0.6501789736
 O    2.2769282725    1.4779403750    1.3711764775
 C    1.3368432695    0.6996169784    2.1153444508
 C    0.9093153899   -0.4288449811    1.1791670063
 H   -0.0115159011    2.1022761619    0.1361852066
 H   -1.2395133014    1.4604671503   -0.9660198966
 H   -1.4805060714    1.3454279887    0.7809416560
 H   -0.7643246214   -0.8542245561   -0.1862459914
 H    1.0860854093   -1.0271550916   -1.7203248306
 H    1.4541216459    0.7058122575   -1.5316536049
 H    3.3206262110   -1.8828677359   -0.5657909015
 H    3.8425513785    0.0952524289    1.2951050605
 H    3.5591381418    1.0882040212   -0.1676074809
 H    1.8136221169    0.2851470216    3.0180927953
 H    0.5293670587    1.3669575541    2.4261802498
 H    0.6391487027   -1.3442229686    1.7070667042