18

 O   -0.0838462333    1.4442238053    0.0398011795
 C    0.0374454000    0.0225729574   -0.0004896864
 C    0.8349057783   -0.5116632429    1.1632219148
 C    0.4277401082   -1.5815309768    1.8443916153
 C   -0.7955450425   -2.3252016735    1.4640049086
 C   -2.1779786185   -1.7655253391    1.5317964739
 C   -2.1943564951   -0.2558622772    1.3391325925
 C   -1.3886525734   -0.5124331069    0.0384980819
 N   -1.4982118449   -2.0198060927    0.2000743937
 H    0.8022244175    1.8201840052    0.0436396315
 H    0.5107580545   -0.2868791889   -0.9483075664
 H    1.7540372660    0.0075306221    1.4258444028
 H    0.9983217857   -1.9649085510    2.6857093823
 H   -0.7443751111   -3.3996023630    1.6266696385
 H   -3.0156756843   -2.3732961468    1.8616681635
 H   -3.1928798189    0.1362999111    1.1415272774
 H   -1.7154013808    0.3527582042    2.1096521937
 H   -1.9220767873   -0.2124738364   -0.8648162273