17

 O    0.0270668515    0.0983170922    0.1140865803
 C   -0.0308218131    1.2944803597    0.0582592176
 C   -1.2500624129    2.2240298846    0.1772420264
 C   -0.4982247204    3.5401591148   -0.0346701913
 C    0.7738483829    3.3524362623    0.9385844812
 C    1.1142784183    2.2937986037   -0.1882143213
 O    2.1095797981    1.7917922473   -1.1080960629
 C    1.1895092072    2.2406683228   -2.1920564594
 C    0.5690533488    3.2657726331   -1.1797549984
 H   -1.9917432415    1.9962002950   -0.5946349213
 H   -1.7351068927    2.1487727546    1.1549334304
 H   -1.0656165172    4.4687811768   -0.0122734839
 H    1.4397096839    4.2145607345    0.9287718506
 H    0.5814926651    3.0128253623    1.9605171152
 H    1.7447726653    2.6621522492   -3.0320325782
 H    0.5552473011    1.4096484874   -2.5145650724
 H    1.2235088056    4.1398097496   -1.2138099227