16

 O   -0.1591115747    1.4600014356   -0.1208315716
 C   -0.0534289518    0.0589966583   -0.0807096810
 C    0.1949912731   -0.6103017074    1.2887704170
 C   -1.2791165038   -0.3400052501    1.7467655746
 C   -1.3845023729   -0.6422408260    0.2035031108
 C   -0.6577734793   -1.8556013948    0.8845746966
 N   -1.4610362657   -1.7640754823    2.1362663249
 C   -2.6522080867   -2.3794013205    2.4127854110
 O   -3.5957392427   -1.8524689004    2.9608715222
 H    0.7259156115    1.8339710614   -0.1743348160
 H    0.5322769171   -0.3356563711   -0.9221057811
 H    1.0769519400   -0.6180828361    1.9290200580
 H   -1.6871175661    0.4913507888    2.3118931664
 H   -2.2966730681   -0.6745384664   -0.3917165910
 H   -0.3301923375   -2.7965369257    0.4454588490
 H   -2.6255468623   -3.4584841433    2.1518213602