18

 C    0.0394239197    1.4562861120   -0.0500311340
 C    0.0150750551   -0.0501957277    0.0254889101
 O    0.8804069019   -0.6045885864   -0.9529279619
 C    1.0937186168   -1.9792133892   -0.5968915172
 C    0.3784616916   -2.1475734038    0.7371931139
 C    0.2977386852   -0.7556141202    1.3935690908
 C   -1.2331653691   -1.0027320550    1.5517077735
 C   -1.3724934614   -0.7160092403    0.1046031036
 N   -1.1289814811   -2.1256733680    0.5775368331
 H    1.0592895749    1.8279631789    0.0843494469
 H   -0.3203291419    1.7952727036   -1.0265153885
 H   -0.6016442643    1.8906304934    0.7222630203
 H    0.6659765129   -2.6441592348   -1.3582465421
 H    2.1725477421   -2.1686169833   -0.5296952601
 H    0.6843021932   -3.0002185835    1.3433257332
 H    1.0157487442   -0.3598677129    2.1083227585
 H   -1.9305057899   -0.9755597718    2.3764702002
 H   -2.2546849700   -0.5462658208   -0.5001588703