22

 C    0.0628498110    1.5397218791   -0.0295397142
 C    0.0114540937    0.0067543002   -0.0034970230
 C   -1.4671043099   -0.4495706452    0.0820297196
 C    0.6897803045   -0.5750028754   -1.2699649828
 C    0.9965098469   -2.0698410871   -1.1709513969
 N    1.8457395923   -2.2960355296   -0.0054507282
 C    1.1589276776   -1.9809274560    1.2445943954
 C    0.7105027993   -0.5185759215    1.2635257110
 O    0.8518103443    0.1618302842    2.2526387383
 H    1.0960127324    1.8982901887   -0.0620830262
 H   -0.4595481805    1.9201414691   -0.9138212634
 H   -0.4045296880    1.9614955709    0.8626170030
 H   -2.0192620569   -0.0653999744   -0.7824497419
 H   -1.5742660601   -1.5375680941    0.0889995366
 H   -1.9395530675   -0.0581578427    0.9879651998
 H    0.0520579886   -0.3764428675   -2.1398132974
 H    1.6371384831   -0.0493354194   -1.4349364570
 H    0.0571220606   -2.6543033862   -1.1374673385
 H    1.5399069312   -2.3930832133   -2.0647977703
 H    2.1744113448   -3.2547329932    0.0171458186
 H    0.2562982064   -2.6031691600    1.4175731213
 H    1.8295728761   -2.1307800266    2.0936817762