16

 C   -0.1219132425    1.4772872202    0.0847726088
 N   -0.0549371669    0.0457922590   -0.1671015362
 C   -1.1501810515   -0.7510119241   -0.0683435268
 C   -1.3131329777   -2.1288045309    0.0007153560
 C   -0.2792522939   -3.1302071890    0.0473930772
 O   -0.4610318927   -4.3313247019    0.1084747265
 C   -2.7439806223   -2.3358525697    0.0243753036
 C   -3.3192892932   -1.1219754038   -0.0243435726
 O   -2.3426207554   -0.1309199418   -0.0790982467
 H    0.8472091425    1.9161416408   -0.1587122269
 H   -0.8780701174    1.9312432955   -0.5589434666
 H   -0.3690336735    1.7168136405    1.1278470131
 H    0.8199046231   -0.4100030539    0.0349904429
 H    0.7629863683   -2.7243225554    0.0248950446
 H   -3.2344705536   -3.2944057113    0.0741718772
 H   -4.3309389534   -0.7561493144   -0.0274331441