17

 C   -0.0204459085    1.4466279008   -0.0705696817
 C    0.0038544647   -0.0451588755    0.0419101617
 N   -0.0337673425   -0.8049369750   -1.0600848578
 N    0.0033795861   -2.0580666951   -0.5761691346
 C   -0.0063253492   -3.3256770486   -1.1745836314
 C    0.0471775485   -4.2587979072   -0.2153474733
 C    0.0979239513   -3.5898425875    1.1541927252
 C    0.0631697828   -2.1334567734    0.7831348712
 C    0.0656255975   -0.8312919247    1.2298529503
 H    0.8763719584    1.8972716452    0.3691936763
 H   -0.0716646236    1.7383346852   -1.1216287920
 H   -0.8852000883    1.8745634118    0.4488461666
 H   -0.0517597346   -3.4099105529   -2.2492661701
 H    0.0542778367   -5.3269039442   -0.3689412676
 H   -0.7507431026   -3.8843824823    1.7841240414
 H    1.0051412100   -3.8618844597    1.7080487008
 H    0.1050161835   -0.4750405468    2.2466413548