12

 O   -0.0094236645    1.2577858040    0.3392270131
 C    0.1037228594   -0.0933015129   -0.0011450803
 C   -1.2609730854   -0.7945368023   -0.2163547653
 O   -0.8640611981   -1.1183722600   -1.6058993828
 C    0.3117337452   -0.4241579006   -1.4912039790
 O    1.1167194360   -0.1945421469   -2.3337837291
 C   -1.5717401358   -1.9647574143    0.5707114838
 C   -1.8276483833   -2.9260639786    1.2436174624
 H    0.8429786653    1.6803816152    0.1840017161
 H    0.7777367565   -0.6542983870    0.6585303771
 H   -2.0832949721   -0.0751446659   -0.2353066906
 H   -2.0592937633   -3.7784952406    1.8341649245