17

 O    0.2283702142    1.2766463451    0.5758318100
 C    0.0906644054    0.0352552672   -0.1040441899
 C   -1.2772032667   -0.4805468091   -0.1098778383
 C   -2.4193557447   -0.8657950579   -0.1256999620
 C   -3.7837622510   -1.3519169495   -0.1371354182
 C   -4.5462201396   -1.5114468300   -1.5181371168
 C   -4.7506353624   -2.9913851797   -1.1758817052
 O   -3.4487646273   -3.5663843095   -1.0138207778
 C   -4.0138890190   -2.8673132305    0.0905568402
 H   -0.4335496480    1.8751862176    0.2144604914
 H    0.4576169476    0.1044414030   -1.1408512924
 H    0.7543647818   -0.6636068619    0.4173333400
 H   -4.4019769871   -0.7718941011    0.5561604673
 H   -5.4673444805   -0.9259819045   -1.5474306334
 H   -3.9532174533   -1.3253503512   -2.4148275143
 H   -5.5558937957   -3.6570857240   -1.4619711645
 H   -4.0951044237   -3.3951172440    1.0336115240