15

 C    0.1570842867    1.4442911034   -0.0046116563
 C    0.0651585387   -0.0075293331    0.0004199977
 C   -0.0150716725   -1.2087984297    0.0136432967
 C   -0.1275061101   -2.6719000209    0.0068977746
 O   -1.4514883807   -3.1310696370   -0.0099112691
 C    0.6172560468   -3.2109050212   -1.2365176902
 O   -0.0056957209   -3.7847915570   -2.1040559342
 C    2.0413667790   -2.9995948254   -1.2935383924
 C    3.2353994702   -2.8511942577   -1.3064768069
 H    1.2010396390    1.7721290402    0.0468791238
 H   -0.2808206370    1.8669581221   -0.9151583256
 H   -0.3702675295    1.8766404611    0.8525547586
 H    0.3834993576   -3.0767939579    0.8942794884
 H   -1.5928151268   -3.4742847723   -0.9076299984
 H    4.2901819094   -2.7187937948   -1.3296764866