18

 C   -0.1257351083    1.5904557200   -0.1066066404
 C   -0.0484320718    0.0635162290    0.0235287296
 C    1.2127146071   -0.5710924814   -0.6375767355
 O    1.8052003773   -0.8439697181    0.6432921157
 C    0.5813662240   -0.5120764435    1.3400294054
 C    0.8664145920    0.3738421025    2.5392236659
 O    1.6968414971   -0.3182536238    3.4509488041
 C   -1.3175205148   -0.5488956553   -0.3500411828
 N   -2.3248720308   -1.0337927325   -0.6446480813
 H    0.8438448006    2.0422244093    0.1148318572
 H   -0.4050797850    1.8640217649   -1.1279369012
 H   -0.8727184082    2.0113214460    0.5715172206
 H    1.0143969340   -1.4866168238   -1.2058864879
 H    1.8176412701    0.1152202937   -1.2394891365
 H    0.0727166673   -1.4236801835    1.6782286447
 H    1.3250749587    1.3197364109    2.2184295164
 H   -0.0650173157    0.6065479774    3.0666720180
 H    2.4868041563   -0.5791081218    2.9625516481