18

 C    1.0989009142    0.9828544020   -0.0823799084
 N    0.0262310106   -0.0164063498    0.0137816138
 C   -0.7943963709   -0.1613495614   -1.1176336614
 N   -1.7475762592   -0.9347544944   -1.4305553303
 C   -2.2445184077   -1.9964216005   -0.5881912230
 C   -1.2850751674   -2.4798371427    0.4826241850
 O   -1.1026778193   -1.4795065125    1.4912712182
 C   -0.2028856263   -0.4866534628    1.3122105695
 N    0.4153678500    0.0469258090    2.2871814204
 H    2.0122662420    0.5837968405    0.3600638972
 H    1.2745169572    1.2104558838   -1.1342352881
 H    0.8379597276    1.8959438959    0.4591546389
 H   -0.4978940839    0.5643204721   -1.8757038600
 H   -3.1765231059   -1.6717502926   -0.1056494459
 H   -2.5139872119   -2.8418351929   -1.2354368613
 H   -1.6944350561   -3.3452537040    1.0109865860
 H   -0.3176877320   -2.7629332473    0.0511985425
 H    0.1734488393   -0.4447947025    3.1450749570