17

 O   -0.1941865544   -0.0119566421   -0.0012462337
 C   -0.0804174766    1.1826215392    0.0038599311
 C   -1.2144227245    2.2406751240   -0.0462035429
 N   -0.6611158957    3.4698473677    0.5376358335
 C    0.6057887113    3.3047539134    0.6028540484
 N    1.5828180897    4.0517549482    1.1956717534
 C    2.7769515875    3.2285183284    1.4583734709
 C    2.3482195319    1.7747413226    1.0957716784
 C    1.2029176046    2.0168822050    0.1016576504
 H   -1.5384608672    2.3813328811   -1.0885266477
 H   -2.0912420757    1.8920826403    0.5104666373
 H    1.3241620871    4.7919690510    1.8290668453
 H    3.6173320860    3.5596416827    0.8351978670
 H    3.0880669429    3.3152535408    2.5038125344
 H    3.1739646824    1.1887979673    0.6900475694
 H    1.9718166678    1.2580415251    1.9839370272
 H    1.5884043429    2.1381187653   -0.9210128124