18

 O   -0.4281421420    0.6336869010    0.7884996157
 C    0.2536320849    0.8584548030   -0.1807071705
 C    1.4275450551    1.7717035445   -0.1778088325
 N    2.3752128777    1.5895166614   -1.2969018805
 C    1.5827698610    2.8193341356   -1.2543792094
 C    0.5590977718    3.0950489151   -2.3675324761
 C    0.8532193374    4.5469435630   -2.8374041249
 C    1.8267234063    5.0707206353   -1.8091443597
 C    2.2119303579    4.1306408101   -0.9464397423
 H    0.0472171022    0.3946789716   -1.1704595905
 H    1.8007940440    2.0247022941    0.8120630089
 H    3.3272027259    1.7551723500   -0.9774698701
 H    0.6550944687    2.3597263084   -3.1686940238
 H   -0.4593377038    3.0264374836   -1.9752723357
 H    1.2947755551    4.5787284803   -3.8419262786
 H   -0.0575994228    5.1538773374   -2.8874213318
 H    2.1750723034    6.0974195391   -1.8069594628
 H    2.9162127371    4.2571123362   -0.1311562655