18

 C    0.0607353778    1.3715217433    0.1371128529
 O   -0.1704805999    0.0067930027   -0.1518574926
 C    0.5841540008   -0.5239191057   -1.2130102631
 C    0.2158995754    0.0717772654   -2.5625660147
 C    2.0975101794   -0.8700968475   -0.9431161932
 C    1.6650619405   -1.9012451835    0.1260154536
 C    0.7693348920   -2.0684214879   -1.1238512534
 O    1.9777735116   -1.9311981957   -1.9683215051
 H    1.1266977442    1.5770724942    0.3142060235
 H   -0.2935210381    2.0361071005   -0.6620450591
 H   -0.4956598107    1.5991519525    1.0493747001
 H    0.4954675757    1.1281728211   -2.6235489470
 H    0.7294369127   -0.4629212795   -3.3608135960
 H   -0.8659667429    0.0022898764   -2.7139322141
 H    2.9854168451   -0.2376553411   -0.9864565025
 H    2.3777069426   -2.7122002024    0.2765316734
 H    1.2046020950   -1.5400041544    1.0438817527
 H    0.0635668690   -2.8596024486   -1.3795399656