20

 C   -0.2593294432    1.5486519447    0.0544367855
 C   -0.0017956241    0.0402716478    0.0271365305
 C    0.7856362494   -0.4624986099   -1.2293682992
 N    1.9264050030   -1.2813674737   -0.7787848869
 C    3.1821731726   -0.5205642276   -0.4622456445
 C    2.9125452883   -0.6690475075    1.0397037540
 O    2.0027317472    0.3498670717    1.5114719565
 C    0.8327742695   -0.4682782366    1.2088551759
 C    1.7319903750   -1.5914435889    0.6716640168
 H    0.6871557704    2.0941321637    0.0962220494
 H   -0.8068097829    1.8681265767   -0.8380076405
 H   -0.8515415408    1.8380010210    0.9290796275
 H   -0.9655674354   -0.4838947207    0.0714267337
 H    0.1306212383   -1.0635739317   -1.8706305667
 H    1.1539533862    0.3680069555   -1.8404579831
 H    4.0672359276   -1.0595588649   -0.8197493466
 H    3.2132131592    0.5122002203   -0.8257332982
 H    3.7215916679   -0.8674000352    1.7449318510
 H    0.2474533637   -0.6452569698    2.1177300920
 H    1.5823819580   -2.6367288550    0.9412805829