16

 O    0.0105313286   -0.0538609009    0.0029222360
 C    0.0216789382    1.1352193423    0.0827373260
 O    1.1631257287    1.8512810934   -0.0859675778
 C    1.0775354569    3.2619094454   -0.0497280418
 C    0.7966680203    3.8996808809    1.3536013284
 N    2.2380583622    4.1705373083    1.5151838857
 C    2.4957733618    3.8800999516    0.0884690398
 C    0.2310715637    3.8080839222   -1.1829757563
 O   -0.4449728162    3.1340138693   -1.9118402763
 H   -0.8566754574    1.7572665137    0.3235935062
 H    0.1507119718    4.7863879558    1.2928324246
 H    0.3783361485    3.2095202098    2.0934410807
 H    2.4715288279    5.1084985186    1.8169595773
 H    3.3029561114    3.1651461857   -0.0924950919
 H    2.6387524938    4.7590238871   -0.5542315453
 H    0.2777048998    4.9156901069   -1.2812096555