25

 C   -0.2106732107    1.4192869049    0.1477918781
 C    0.0303436573   -0.0880227229   -0.0241505403
 C    0.7549400378   -0.4252682187   -1.3422063938
 C   -0.0248888648   -0.0783737668   -2.6147688699
 C    0.6861566622   -0.5385981297   -3.8807339077
 O   -0.1075781458   -0.1570618066   -4.9952677949
 C    0.8022163722   -0.6432871627    1.1611372819
 C    0.0968439142   -1.0004306453    2.4438810304
 C    0.6644386550   -2.0891969890    1.5639023667
 H    0.7390239794    1.9680461352    0.1401437532
 H   -0.8372968290    1.8283990191   -0.6497262255
 H   -0.7051392295    1.6260567467    1.1019190859
 H   -0.9489299197   -0.5899914749   -0.0435440694
 H    1.7263083833    0.0904642671   -1.3543074803
 H    0.9828342115   -1.4993325894   -1.3424785617
 H   -1.0183210740   -0.5440136294   -2.5877100676
 H   -0.1887621156    1.0018994791   -2.6933306827
 H    1.6884311728   -0.0813443047   -3.9309953803
 H    0.8305883782   -1.6313579899   -3.8502819417
 H    0.3397344165   -0.4464267072   -5.7956465846
 H    1.7967013546   -0.2152004823    1.2758617917
 H    0.5894032123   -0.7889451638    3.3866399256
 H   -0.9828548156   -0.8910767861    2.4752090637
 H   -0.0377181516   -2.7031712496    1.0084140844
 H    1.5444754991   -2.6234338830    1.9049040688