20

 O   -0.0501203822    1.3977186602    0.5496379196
 C    0.0303920331    0.0542751154    0.0686673795
 C    0.7434075439   -0.8847744855    1.0633840707
 C   -0.3194296083   -1.2733338611    2.1048764771
 C   -0.6732328151   -0.2173679941    3.1939297742
 C   -2.0472218131    0.0391614907    2.5113991055
 C   -1.7106172669   -1.0199868494    1.4192722633
 C   -1.4024100542   -0.4969708242    0.0059755681
 H    0.8470364227    1.7096905890    0.7041549251
 H    0.5148206190    0.0435101921   -0.9186913041
 H    1.0858036755   -1.7767760887    0.5239781887
 H    1.6325890560   -0.4177589071    1.5046175159
 H   -0.1488504105   -2.2770635524    2.5003424941
 H   -0.7401711687   -0.6286586117    4.2045735807
 H   -0.0088620495    0.6489815997    3.2181716511
 H   -2.9124550742   -0.2162349436    3.1286078307
 H   -2.1781404762    1.0518917967    2.1268894920
 H   -2.3989527814   -1.8676742369    1.3965677382
 H   -2.1025050469    0.2700330671   -0.3381141914
 H   -1.4317264628   -1.3220560461   -0.7149804188