23

 C   -0.0776548224    1.4537571588    0.2009311122
 C    0.4180598182    0.0149674915    0.0121514490
 C    0.8788606588   -0.6172297683    1.3016638637
 O    1.9782993196    0.0399623291    1.9064737042
 C    3.0434278033   -0.9013549621    2.0638580938
 C    2.3784577257   -2.2817986305    2.2473579828
 C    1.0292859693   -2.0939813867    1.5558974457
 C   -0.0589324206   -1.2985874150    2.2747138225
 C   -0.0409410924   -1.0166450723    3.7593513829
 H    0.7101450575    2.0736471118    0.6376587655
 H   -0.3747016690    1.8979656550   -0.7539874560
 H   -0.9416251411    1.4869520437    0.8730883752
 H   -0.3784201222   -0.6055953198   -0.4160282562
 H    1.2481594094    0.0010618008   -0.7062417614
 H    3.6846533611   -0.8963999832    1.1689238803
 H    3.6468068066   -0.5819554881    2.9187878699
 H    2.9620819422   -3.0765037576    1.7749418602
 H    2.2725014662   -2.5388336345    3.3062753487
 H    0.7209420977   -2.8218585981    0.8135092104
 H   -1.0529858797   -1.4839782591    1.8715211638
 H    0.9224230819   -0.6118064740    4.0773878858
 H   -0.8038620341   -0.2736928940    4.0148359087
 H   -0.2488554957   -1.9199181973    4.3439604481