22

 C   -0.2843046084    1.5663893978   -0.0433853193
 C    0.0537799243    0.0821766061   -0.0009941571
 C    1.1987744380   -0.4743871692   -0.9150506092
 C    1.8212082122   -1.2183723047    0.3105307550
 C    1.9752019406   -2.7211344208    0.2523294571
 C    2.9360982649   -0.4607986802    1.0821051106
 N    2.6892644313    0.9900182775    0.9413048357
 C    1.9232219013    0.2099283792    1.9485501151
 C    0.7662351177   -0.5328767660    1.2448431942
 H    0.6109100025    2.1746939666    0.0982046112
 H   -0.7337519673    1.8336565862   -1.0068753148
 H   -1.0072082812    1.8263938053    0.7389813795
 H   -0.8609229697   -0.4952710961   -0.1786272291
 H    0.8598715465   -1.1400261809   -1.7139813659
 H    1.8431993320    0.2977755144   -1.3375960880
 H    2.7657519689   -3.0117038518   -0.4511467733
 H    2.2367725924   -3.1335446773    1.2341345845
 H    1.0470161742   -3.2018330511   -0.0752061566
 H    3.9306538324   -0.8286020170    1.3116611242
 H    3.4318906819    1.4713108583    1.4476437991
 H    1.9737183542    0.4908886186    2.9941084968
 H    0.1645750412   -1.1332715949    1.9309053104