25

 C    0.6516049140   -0.4641397055   -0.9184472827
 C   -0.0993957327   -1.7620921474   -0.5839935187
 C   -1.5406352490   -1.5226981734   -0.2171118685
 C   -2.6012044592   -1.0563344090   -1.2279212748
 C   -3.6599065478   -1.9575899871   -0.5160839982
 C   -2.5887920765   -2.4087856483    0.4873025963
 C   -2.5166596915   -3.8036025131    1.0441638783
 C   -2.0368901010   -1.1755387880    1.1734778514
 C   -1.1252896109   -1.3142324331    2.3756114737
 H    1.6860912946   -0.6692465303   -1.2116492495
 H    0.1700561746    0.0681860011   -1.7456193325
 H    0.6719357341    0.2125658862   -0.0579692881
 H   -0.0564904377   -2.4355423334   -1.4511756540
 H    0.4209895657   -2.2841912348    0.2266669589
 H   -2.8052276536    0.0199740618   -1.2516033275
 H   -2.3924231553   -1.3901975299   -2.2484893382
 H   -4.5349403523   -1.4531207365   -0.0903742305
 H   -4.0099054657   -2.7703605530   -1.1587972634
 H   -2.5551879062   -4.5506899452    0.2426202206
 H   -1.6011233576   -3.9806832467    1.6151712049
 H   -3.3630191066   -4.0015927604    1.7146527093
 H   -2.7086763129   -0.3182097131    1.2558717560
 H   -0.4390622391   -2.1606835918    2.2917887412
 H   -0.5164894953   -0.4133032308    2.5107427916
 H   -1.7084544821   -1.4578109385    3.2922486944