18

 O    0.0122464397    0.0097812551    0.1491274362
 C    0.0108446826    1.2092666590    0.0062212556
 N   -1.1034896173    2.0374509811   -0.0715273378
 C   -0.6447064291    3.4390833439    0.0158969659
 C    0.5978785853    3.3197093009   -0.8911179984
 C    1.2115418280    2.1845010505   -0.0486909853
 C    1.2029220379    2.7729020034    1.3817814716
 C    1.3081181638    4.2646037953    1.5959258696
 C   -0.0499688270    3.6301247529    1.4248796953
 H   -1.9634264361    1.7286722238    0.3581617168
 H   -1.4180308942    4.1415727215   -0.2955441911
 H    0.3247384157    2.9997373113   -1.8977203988
 H    1.2035900132    4.2221565974   -0.9560359770
 H    2.1395934991    1.7248340925   -0.3822947520
 H    1.4597018694    2.1064327392    2.1965395736
 H    1.5594736307    4.5692973450    2.6069219356
 H    1.7249150230    4.9180565154    0.8389367091
 H   -0.7311706646    3.5956863720    2.2680922112