18

 C    0.0598486817    1.5124957679    0.0721404554
 C    0.0368156579    0.0235539581   -0.0371230299
 C    0.0230466030   -0.8015242813   -1.1404878126
 C    0.0026263275   -2.1580996722   -0.6941092380
 C   -0.0171569670   -3.3924196737   -1.5431026376
 C    0.0046119059   -2.1176675818    0.6857523273
 N   -0.0096936824   -3.1101429984    1.6976351186
 N    0.0253575176   -0.7923304816    1.0662341790
 H    0.9495384093    1.8779615382    0.6010244684
 H    0.0653199061    1.9564604328   -0.9261578777
 H   -0.8167641900    1.9050896001    0.6034100598
 H    0.0272109179   -0.4656411113   -2.1678736715
 H    0.8619786878   -3.4570789631   -2.1957545649
 H   -0.0304323957   -4.2941219553   -0.9220255144
 H   -0.8990881268   -3.4300034667   -2.1940988041
 H    0.7972275488   -3.7227105975    1.6387016784
 H   -0.8351616877   -3.6976276298    1.6402094559
 H    0.0307399963   -0.5006857244    2.0288423979