20

 C   -1.0335742841    1.1110157924    0.1173431146
 C   -0.0709601158   -0.0594050763   -0.0097227108
 C    1.1753266760    0.0755755908   -0.9341369185
 C    2.0492426265   -0.6206928930    0.1497966217
 C    3.2532705361    0.1713434267    0.6863404180
 N    2.6327093575    1.0799456803    1.6358159998
 C    1.3493020336    0.7753465650    2.0141133140
 O    0.7074011676    1.3594100806    2.8620766666
 C    0.8935604789   -0.4135896210    1.1675351271
 H   -0.5105574808    2.0346065970    0.3819380569
 H   -1.5605289464    1.2773453852   -0.8290139272
 H   -1.7813673627    0.9271123805    0.8950141118
 H   -0.6276965762   -0.9639752223   -0.2772130328
 H    1.1221658115   -0.4113055488   -1.9105663264
 H    1.4664294493    1.1205559876   -1.0841232987
 H    2.3023589724   -1.6541615887   -0.0876656982
 H    3.9884920500   -0.4831201466    1.1758106707
 H    3.7716546471    0.7174285441   -0.1113055582
 H    3.1417244133    1.7945514214    2.1319551647
 H    0.5868307460   -1.2293838249    1.8256148648