17

 N   -0.2643935677    1.0963637573   -0.5180636379
 C   -0.1333392355   -0.1009263053   -0.1613972052
 O    0.9849805196   -0.8509392800    0.1109599577
 C    0.1626043069   -1.9867376605    0.5428780377
 C   -1.1182842095   -1.1955126238    0.1987888158
 C   -2.0954089157   -0.8259784546    1.3157990157
 N   -2.9460752732    0.2682975825    0.8886086520
 C   -4.3027739945    0.1940404714    0.9114990005
 O   -4.9471329497   -0.7440549949    1.3337500473
 H    0.6346330920    1.5675844604   -0.6274814510
 H    0.3704523887   -2.8720646234   -0.0604300461
 H    0.3255582718   -2.1968095966    1.6030675096
 H   -1.6594188048   -1.5814015904   -0.6683055190
 H   -2.7506348940   -1.6620917655    1.5696213078
 H   -1.5341628034   -0.5482904929    2.2183371437
 H   -2.4926717076    1.0655378172    0.4615881048
 H   -4.7685504833    1.1090733090    0.4966629667