17

 C    0.1349740381    1.6243812142    0.0410034842
 C    0.0742000541    0.1065975660    0.0191317112
 C    1.0522426003   -0.6598176766   -0.9113076500
 C    1.2538005966   -1.7363227616    0.2246232948
 C    0.6562625530   -0.6747810061    1.2275714534
 C    0.3679429772   -2.8871449351    0.0525687012
 N   -0.3663140897   -3.7677199635   -0.0895226439
 C    2.6252856457   -2.1670380971    0.4755190873
 N    3.7263782088   -2.4527966266    0.6773699892
 H    1.1549094776    1.9760461262    0.2322788448
 H   -0.1918425479    2.0453718647   -0.9155811152
 H   -0.5136605970    2.0332053218    0.8228171184
 H   -0.9503355644   -0.2274980744   -0.1728833598
 H    0.6848640576   -1.0384642142   -1.8651494149
 H    1.9858084770   -0.1145987810   -1.0675860017
 H    1.4706469316   -0.1340652135    1.7150512324
 H   -0.0272763585   -1.0653741934    1.9814718886