21

 C   -0.0524727036    1.6097966403    0.0196285543
 C   -0.0542360849    0.0787868505   -0.0229104868
 C    0.7140821833   -0.5022818541   -1.2164691220
 C    2.2678011746   -0.3034707502   -1.1527379973
 C    2.7397907135   -1.7500605435   -1.2239055232
 C    1.8219526386   -2.5544041684   -2.1911110571
 O    1.9519211565   -3.7655221129   -1.3688845488
 C    1.7691505859   -2.6609528742   -0.4162623847
 C    0.6569673562   -2.0261398807   -1.3057222107
 H    0.9653898203    2.0092841107    0.0814055044
 H   -0.5168497708    2.0286919311   -0.8801513502
 H   -0.6076910169    1.9834742986    0.8854448198
 H    0.3736899895   -0.3168265540    0.9084809888
 H   -1.0906987766   -0.2811727774   -0.0566636163
 H    0.3107861124   -0.0579481600   -2.1357725604
 H    2.6523788238    0.2996926884   -1.9809328606
 H    2.5820010254    0.1841505759   -0.2232040210
 H    3.8027477465   -1.9889221012   -1.2048791760
 H    1.8773233609   -2.6635883871   -3.2752310458
 H    1.7629249773   -2.9036998960    0.6469683014
 H   -0.3060197821   -2.5335780659   -1.3658016979