19

 C   -0.0334345351    1.4953226341    0.1165611897
 C    0.0887756935    0.0125338000   -0.0166847141
 C   -0.0183659207   -0.7540605851   -1.1148238636
 C    0.0357255379   -2.1886280670   -0.7470203136
 C    0.6261771773   -2.2957686351    0.6438678303
 C    0.1072772747   -0.9307207007    1.1676202797
 O   -1.2737621793   -1.4948826839    1.2286296872
 C   -0.8203835155   -2.6253704989    0.5104624772
 C   -1.6419416365   -3.8688692268    0.5749238434
 H    0.8218841039    1.9243501215    0.6543664382
 H   -0.0939372067    1.9792901883   -0.8622094858
 H   -0.9316945878    1.7709661265    0.6837894576
 H   -0.2226732284   -0.3973533020   -2.1177664454
 H    0.2331377063   -2.9672571522   -1.4744860382
 H    1.5016235816   -2.8592872053    0.9425173121
 H    0.4074188416   -0.5497396427    2.1436534774
 H   -2.6396054995   -3.6871267878    0.1608525504
 H   -1.1726865548   -4.6690465227   -0.0044762207
 H   -1.7596680626   -4.2090367203    1.6090072383