16

 O    0.7477494305    0.6304373664   -1.3787454247
 C    0.3695544531    1.4361813562   -0.5528711781
 N    1.0812953008    1.7988418956    0.5446670864
 C    2.3809005880    1.2150141527    0.8441218214
 C    3.4832106786    1.7283888496   -0.0873348082
 C    4.8334149525    1.1462759769    0.2389197585
 O    5.0443789803    0.3332360694    1.1105640233
 C    6.0278311646    1.6335410947   -0.5952792922
 O    5.9451475160    2.4858479477   -1.4389250597
 H   -0.6053197686    1.9588967350   -0.6140714909
 H    0.6927790091    2.4877896527    1.1672329033
 H    2.6254006534    1.4356070108    1.8854971771
 H    2.3087781508    0.1283129387    0.7495207986
 H    3.2384054007    1.4771384941   -1.1267070490
 H    3.5615149045    2.8227004444   -0.0668473249
 H    6.9761031757    1.1227136151   -0.3247227311