18

 C    0.0410795727    1.5299878989   -0.2013157188
 C   -0.0131195436    0.0183696970    0.0709231021
 C   -1.4174923064   -0.5283798007    0.0320957835
 N   -2.2702914098   -0.1309477963    0.9941073525
 C   -3.5074458337   -0.5931792288    0.9538934135
 C   -3.9425476516   -1.4804738350   -0.0524109628
 N   -5.2495337005   -1.9179510184   -0.1213354352
 N   -3.1027063116   -1.8902772713   -1.0043402105
 C   -1.8588203944   -1.4076829807   -0.9532521758
 H    1.0650740215    1.9066212769   -0.1168554535
 H   -0.3251519408    1.7626035710   -1.2066604785
 H   -0.5846250815    2.0656869145    0.5178007690
 H    0.6042421893   -0.5170104315   -0.6590341086
 H    0.4152112404   -0.1829839584    1.0599701612
 H   -4.1909578554   -0.2649886622    1.7354151549
 H   -5.7684884122   -1.9448823768    0.7421769753
 H   -5.3815392120   -2.7257676713   -0.7118296377
 H   -1.1801652004   -1.7460340170   -1.7334567607