21

 O   -0.0711930120    1.4378179705    0.0415147085
 C    0.0343642429    0.0196050785    0.0365485204
 C   -1.3834948106   -0.5517259975   -0.0506958615
 C   -2.0647312263   -0.1615656804   -1.3433536731
 C   -2.9035007021   -0.9603589543   -2.0055055148
 C   -3.2924706793   -2.3395273865   -1.5368720759
 C   -2.8100906163   -2.6268626941   -0.1041579794
 C   -1.3944137378   -2.0814816357    0.1260115249
 O   -0.4442835833   -2.7196163469   -0.7287178462
 H    0.8141552273    1.8045247802   -0.0340229408
 H    0.6348356089   -0.3353547660   -0.8119038323
 H    0.5170029030   -0.3470140360    0.9562948862
 H   -1.9387488238   -0.1082087904    0.7893476082
 H   -1.8292009451    0.8276093253   -1.7249096380
 H   -3.3408892523   -0.6205029673   -2.9420076159
 H   -4.3807642175   -2.4616122744   -1.5991018291
 H   -2.8842609982   -3.0903777551   -2.2296998066
 H   -3.4873010414   -2.1516646960    0.6159083492
 H   -2.8251500627   -3.7027735692    0.0944450135
 H   -1.0625100295   -2.3321533274    1.1397226655
 H   -0.6257793542   -2.4230407372   -1.6280766826