16

 C   -0.0933528180    1.4315376966    0.0114377141
 C   -0.1318427968   -0.0216599118    0.0358259624
 C   -0.1955441259   -1.2247593026    0.0614246872
 C   -0.2350975756   -2.6635833184    0.0813336942
 N   -1.3175562935   -3.2944241925    0.2949353242
 N    1.0471186307   -3.2183566729   -0.1545197277
 C    1.3469195116   -4.5707217931   -0.2206492842
 N    2.6816752601   -4.8237115092   -0.4817232324
 O    0.5226007743   -5.4576514175   -0.1033326573
 H    0.5783264417    1.8230584888    0.7831991869
 H    0.2596815946    1.8017263344   -0.9572521634
 H   -1.0889562019    1.8513378020    0.1884849755
 H   -1.1422316384   -4.3005343875    0.2590947727
 H    1.7725366650   -2.5536594900   -0.3719151509
 H    3.3771826354   -4.1634013260   -0.1703147316
 H    2.9307152167   -5.7922171602   -0.3506975597