22

 C   -0.7227806899    1.1189618031    0.0080666671
 C    0.1378928474   -0.1283423144   -0.1176294693
 C    1.5542023097   -0.0212699561   -0.7499230104
 C    2.0569402904   -1.0591150066    0.2881134693
 C    0.7957464604   -0.7670548565    1.1413318370
 C    1.0109115804    0.0428781201    2.4761280070
 C    0.3493926855   -1.1135016572    3.2313902640
 N   -1.0177349692   -1.2429752113    2.6670418323
 C    0.1383462536   -1.8696321080    1.9694560483
 H   -0.1676114314    1.9429518789    0.4705537585
 H   -1.0585654416    1.4619899731   -0.9774706601
 H   -1.6052376643    0.9211651686    0.6235342460
 H   -0.4324005433   -0.9118411589   -0.6329510191
 H    1.6621316113   -0.2677909401   -1.8091087452
 H    1.9923113283    0.9675883628   -0.5787272293
 H    2.0402712073   -2.0774982797   -0.1149259753
 H    3.0319930731   -0.8890445695    0.7532022529
 H    2.0709866529    0.1648824310    2.7128750025
 H    0.5010382334    1.0046808551    2.5688238127
 H    0.5682161086   -1.4686808435    4.2309320336
 H   -1.4832186174   -1.9871592556    3.1875863763
 H    0.1548117549   -2.9363855151    1.7742469414