18

 C   -0.2421508528    1.5186245885   -0.0055178011
 C    0.1137993775    0.0504196894   -0.1192684975
 C    1.3397766441   -0.4014845453   -0.9396434485
 C    1.7755795904   -1.2211219706    0.2749141152
 N    0.7416195049   -0.5438944159    1.1699290338
 H    1.1280350896    0.1943463157    1.7611925366
 C    0.1137925766   -1.5794573348    1.9817032594
 C    0.6054574368   -2.7614635035    1.6112720142
 C    1.5294077986   -2.6210785987    0.4104496202
 O    1.8973300356   -3.5655644105   -0.2835976957
 H    0.6361075067    2.1219402195    0.2495560632
 H   -0.6142830054    1.8736687847   -0.9713225360
 H   -1.0230034806    1.6960788921    0.7418107362
 H   -0.7620098070   -0.5669295089   -0.3250969698
 H    1.1035246388   -0.9841576579   -1.8343009090
 H    1.9994324024    0.4277183859   -1.2258423860
 H   -0.5495317187   -1.2862625220    2.7835785233
 H    0.3328273925   -3.7186315175    2.0368093712