16

 O   -0.0367612497    1.4110490715    0.0594608933
 C    0.0424118853    0.0350405392    0.0302382484
 C    0.6629363897   -0.9665031289    1.0156886753
 N    0.0227198805   -1.8796456346   -0.0328404235
 C   -1.1826774891   -0.9035415036   -0.0358377612
 C   -1.7813931432   -0.9427599966   -1.4293663656
 C   -0.4661634501   -0.9121728225   -2.2226375639
 O   -0.2923172866   -0.8670280041   -3.4103511613
 C    0.5609832871   -0.9137532846   -1.1156124821
 H    0.8530146315    1.7817742357    0.0489839998
 H    1.7515389200   -1.0548019335    1.0604110927
 H    0.2110534587   -1.0595585092    2.0076732789
 H   -1.8345349447   -0.9953737558    0.8333157919
 H   -2.3453673344   -1.8583783498   -1.6313207394
 H   -2.4129364317   -0.0814970031   -1.6643312944
 H    1.6170965466   -1.0045276403   -1.3646729289