20

 N    0.0696739994   -1.1894512082    0.0208993668
 C    0.0241498504   -0.0342583769    0.0216750057
 C   -0.0236032698    1.4282590761    0.0360810619
 C   -0.7911171134    1.9570067935    1.2673508359
 C   -1.0196363823    3.4690452539    1.1313978633
 C    0.2391217231    4.2458944903    0.7868119665
 C    1.5058494367    4.0942975305    1.5848409301
 C    1.4340690476    3.5319647332    0.1826488702
 C    1.4074271413    2.0192819750   -0.0291372943
 H   -0.5727424420    1.7424958231   -0.8618666483
 H   -1.7519119741    1.4428720213    1.3595738475
 H   -0.2213033294    1.7197849272    2.1733396030
 H   -1.7596871051    3.6337174702    0.3369110249
 H   -1.4663468727    3.8592969315    2.0536865821
 H    0.0457528873    5.2445320637    0.4056352989
 H    2.1124115283    4.9759979369    1.7598388945
 H    1.5173367485    3.3824200335    2.4050361020
 H    1.9837102233    4.0804445937   -0.5751948467
 H    2.0244763308    1.5148939417    0.7229034146
 H    1.8456261722    1.7715834497   -1.0000188985