15

 C    0.0162130242    1.5144328052    0.0084252619
 C    0.0354210841   -0.0012987198    0.0022515709
 O    1.0767485980   -0.6233112611   -0.0089747405
 C   -1.2739291343   -0.7298161216    0.0099399157
 C   -2.5259990974   -0.1144914117    0.0219087854
 N   -3.6689302182   -0.8034237534    0.0283637035
 C   -3.5458135090   -2.1315011357    0.0227081767
 N   -2.4121048658   -2.8398189061    0.0113221090
 C   -1.2865435626   -2.1294286883    0.0050336437
 H    1.0429688690    1.8801746690    0.0018579163
 H   -0.5153140354    1.9016419599   -0.8677830806
 H   -0.5016433977    1.8946797082    0.8957892025
 H   -2.6221894872    0.9687549583    0.0265242126
 H   -4.4715343697   -2.7021550762    0.0278273632
 H   -0.3450134681   -2.6712623967   -0.0042540803