22

 C    1.3184168971    1.1131909546   -0.8943988222
 C    0.2296752765    0.8019312444    0.1390405074
 C    0.7610982843   -0.0698406205    1.2717342130
 N   -0.1678460019   -0.5178227457    2.3694756984
 C   -1.5591100525   -0.1070814322    2.3908318779
 C    0.1405306008   -1.9175581322    2.1068949090
 C   -0.1472653288   -2.3402712242    0.6745229596
 C    1.0954679028   -1.5465307422    1.0004019247
 O    2.3773408764   -2.0264798395    0.8012685103
 H    1.6941735936    0.1979378535   -1.3650552796
 H    0.9367231613    1.7597342190   -1.6899926491
 H    2.1720416821    1.6190666932   -0.4306567633
 H   -0.1553171203    1.7408471567    0.5566030563
 H   -0.6176622654    0.3143669753   -0.3559042760
 H    1.6296599325    0.4254529468    1.7269615361
 H   -2.1467870181   -0.3950621109    1.5017888821
 H   -2.0432580129   -0.5569344447    3.2645197790
 H   -1.6232170340    0.9797408927    2.5027810274
 H    0.2440601631   -2.6335608147    2.9150472647
 H    0.0511619044   -3.3897504379    0.4777564260
 H   -0.9756281275   -1.9209071862    0.1108482965
 H    2.5213724564   -2.1200224756   -0.1462645184