18

 N    1.6601658868   -0.0830163253   -0.7939895378
 C    0.8649466127    0.6704426735   -0.4263102669
 C   -0.1549833553    1.6366004812    0.0320517611
 O    0.2026164307    2.9778515034   -0.1723784392
 C    1.0210098378    3.5704988395    0.8333207144
 C    2.5062070047    3.2589146375    0.6778147180
 C    3.2261219309    3.8644688350   -0.5443211381
 C    4.0441976821    4.6417534819    0.5075352063
 O    3.2769594018    4.0697089554    1.5939434680
 H   -1.0696077441    1.4568641627   -0.5430600691
 H   -0.3792258291    1.4286324725    1.0890306737
 H    0.8733346423    4.6500868277    0.7330890661
 H    0.6785010324    3.2736303624    1.8362255832
 H    2.7036716056    2.1917455767    0.8342560477
 H    3.7845935195    3.1584863243   -1.1587717677
 H    2.5890613816    4.4750975713   -1.1867639549
 H    5.1037899295    4.3681962177    0.5751926239
 H    3.9610184702    5.7343665425    0.4822873013