13

 C   -0.2215621979   -0.9208818332   -0.9306938202
 C   -0.0764118671    0.0410259899   -0.2252894753
 C    0.1344437920    1.2167545034    0.6140366294
 C    1.4304301162    1.9252064238    0.3239611684
 C    2.0308783825    3.0456000279    0.8532539459
 N    3.2175453537    3.2531848444    0.2180480759
 N    3.3902553964    2.3238143369   -0.6783235292
 N    2.3126995620    1.5197004295   -0.6173227937
 H   -0.3745308042   -1.7764327957   -1.5417988718
 H   -0.7015196758    1.9151982619    0.4799638544
 H    0.1089986680    0.9200721749    1.6704201388
 H    1.6852418599    3.7001111347    1.6372495977
 H    2.2306057242    0.7218963015   -1.2296003404