16

 O    0.1639697753    1.3881730123   -0.2466193722
 C    0.0425377012   -0.0051141105   -0.0430224071
 C    0.6746899299   -0.5169752112    1.2432749831
 C   -0.1544481065   -1.2881675591    1.9459854563
 C   -1.4905767806   -1.3953507979    1.2807216636
 C   -2.2906816509   -0.0890082005    1.1856440110
 C   -1.9599443388    1.0612909960    1.9798720392
 N   -1.6939446600    2.0012525991    2.6016785869
 C   -1.3964270426   -0.5515661505    0.0406820499
 H   -0.1523554406    1.8397562050    0.5459541424
 H    0.5343999622   -0.4531650556   -0.9157942620
 H    1.6777603351   -0.2251406407    1.5298975903
 H    0.0596157531   -1.7551994280    2.8996685043
 H   -2.0640320540   -2.3136779878    1.3265086794
 H   -3.3557832769   -0.1983004286    1.0075000418
 H   -1.9057947859   -0.8182288619   -0.8765761569