20

 C    0.0103018861    1.4266605786    0.0067248659
 O   -0.1474176316    0.0313819646   -0.1032358566
 C    0.6239574635   -0.5550054083   -1.1401466087
 C    2.1172622308   -0.8045188238   -0.7707995466
 C    2.1621769267   -2.3027416095   -0.4532427905
 C    1.1109550404   -2.6471000517    0.6312865847
 N    0.0837589964   -3.0107469400   -0.4070760365
 C    1.1656185848   -2.9517690623   -1.4501748090
 C    0.0858444212   -1.9444952579   -1.4514397460
 H    1.0397779757    1.7163042385    0.2671765350
 H   -0.2621225644    1.9391016188   -0.9296717162
 H   -0.6582838595    1.7660058078    0.8016378911
 H    0.5446576918    0.0753630332   -2.0396882754
 H    2.7634385325   -0.5701896221   -1.6241519324
 H    2.4324983986   -0.1828611115    0.0734192158
 H    3.1597709111   -2.7276097852   -0.3440450732
 H    1.3522758425   -3.5512250839    1.1953425812
 H    0.8052877677   -1.8492648959    1.3131659561
 H    1.3303878989   -3.7329211587   -2.1832141916
 H   -0.7659684732   -2.0371577808   -2.1161211970