18

 C    0.0657586629    1.5575845051    0.0784030435
 C   -0.0198449445    0.0295565102    0.0070077539
 C    0.8101547651   -0.5768233900   -1.1647898912
 N    2.0181068683   -1.1751900150   -0.5690813451
 C    1.8059936166   -1.1636985570    0.6960747330
 C    2.7540133450   -1.7109657021    1.6326750378
 N    3.4942581712   -2.1391857047    2.4099479117
 N    0.6191714287   -0.6382415848    1.1552651913
 C    0.3037317046   -0.3289037349    2.5320794679
 H    1.1086774697    1.8875465969    0.1297007203
 H   -0.3851511788    1.9916486277   -0.8195537813
 H   -0.4681976611    1.9593337266    0.9446040608
 H   -1.0719567184   -0.2728605690   -0.0452689814
 H    0.2561492162   -1.3625011984   -1.6930300364
 H    1.0879708504    0.1786252778   -1.9063822752
 H    0.8526927476   -1.0054557566    3.1903530395
 H    0.5592992684    0.7023917965    2.8114790222
 H   -0.7667875018   -0.4775278686    2.7092788587