20

 C   -0.0418066382    1.4746950442   -0.0185444737
 C    1.2819165742    0.7361153425   -0.0097595347
 C   -0.0108942030   -0.0254746934   -0.0193747490
 C   -0.5054223169   -0.8977649200    1.1590631037
 C   -1.1388527233   -2.0428115117    0.3396253419
 C   -0.0570256004   -2.2989688327   -0.7523190003
 C   -0.4727447676   -0.8673343602   -1.2056254387
 C   -1.9138977723   -1.2629280730   -0.7646344699
 H   -0.3468465370    1.9838846381    0.8905465442
 H   -0.3316383340    1.9871031286   -0.9310884572
 H    1.8793977340    0.7534570162   -0.9164105659
 H    1.8661941886    0.7490951138    0.9052386782
 H    0.3112703282   -1.2466422683    1.7996107643
 H   -1.2376756727   -0.3824093947    1.7893168547
 H   -1.5981381725   -2.8593376795    0.8982141702
 H    0.9769812306   -2.4568463469   -0.4314709801
 H   -0.3562317416   -3.0702892933   -1.4660268645
 H   -0.2519150398   -0.4834016414   -2.2029910557
 H   -2.4059107034   -1.9266771467   -1.4796160885
 H   -2.5944920531   -0.4641435217   -0.4551608991