20

 C   -0.3686892386    1.3184110654    0.0398559753
 O   -0.2551157834   -0.0803028447   -0.0537279578
 C    0.7520423511   -0.4860723379   -0.9567928524
 C    0.7735462336   -1.9893521018   -0.9863967688
 N   -0.0585769652   -2.6449583492   -1.9975586802
 C    1.4193531360   -2.7474619102   -2.1034223748
 C    2.0647426513   -2.1064066072   -3.2176389954
 C    2.6406653616   -1.5882734700   -4.1401842391
 C    3.3214144329   -0.9613397680   -5.2634706831
 H    0.5670312019    1.7833745992    0.3911413226
 H   -0.6327102121    1.7735652258   -0.9279270344
 H   -1.1617165847    1.5356905159    0.7597064173
 H    0.5590990726   -0.1013035866   -1.9687386493
 H    1.7360032136   -0.1023908495   -0.6337783252
 H    0.8339040291   -2.4467637513   -0.0002265934
 H   -0.4335746335   -3.5196567448   -1.6394019740
 H    1.8655941797   -3.6981277048   -1.8165296062
 H    3.9868531793   -1.6695580871   -5.7694812379
 H    2.6033855096   -0.5945843019   -6.0052977877
 H    3.9289662151   -0.1088119211   -4.9398001857