16

 C    0.0023722096    1.5794103663   -0.1991772534
 C   -0.0137283065    0.0987599348    0.2239293089
 C   -1.3507617562   -0.4808590502    0.2298669308
 C   -2.4603143845   -0.9500708041    0.2181625723
 C   -3.7826917454   -1.4995513186    0.2298962882
 O   -4.3425903863   -1.9558964391   -1.0129508581
 C   -4.0514285917   -2.9414252492   -0.0310999830
 C   -2.9709311800   -3.8601070316   -0.3165551330
 N   -2.1268565766   -4.6226457672   -0.5192837380
 H    1.0261021344    1.9637157538   -0.1856039393
 H   -0.3982782725    1.6992457992   -1.2090335587
 H   -0.6030082569    2.1853469414    0.4800689424
 H    0.6235413924   -0.4883990140   -0.4487106733
 H    0.4241930625   -0.0067357591    1.2245566931
 H   -4.5069452573   -0.9964084395    0.8700045903
 H   -4.9181467050   -3.4024891929    0.4400264608