19

 C   -0.1201096696    1.4835186798    0.0570657304
 N   -0.0255786430    0.0246478316    0.0166867399
 C    0.7185870026   -0.5024431674    1.1520840692
 C    2.1262033293   -0.0842622249    1.1307483245
 N    3.2340858953    0.2420938114    1.1317927325
 C   -1.3270014716   -0.6258443878   -0.1102623538
 C   -1.9552490127   -0.3773498151   -1.4604667289
 C   -3.4080396511   -0.4563240365   -1.6521360241
 O   -2.7453004242    0.8068716876   -1.6103211158
 H    0.8844281407    1.9138991089    0.0695205082
 H   -0.6422583333    1.8449465436   -0.8290049847
 H   -0.6676452333    1.8453397995    0.9468686622
 H    0.2941689522   -0.2039495838    2.1311235803
 H    0.6958910363   -1.5973805104    1.1187853544
 H   -1.1767921455   -1.7073763842   -0.0009660802
 H   -2.0391221796   -0.3100649602    0.6760242782
 H   -1.3047554952   -0.5891502469   -2.3093849510
 H   -3.8083931042   -0.7464128465   -2.6220198379
 H   -4.0520289131   -0.6732085386   -0.8005054335