19

 O   -0.1505069574    1.4684803389    0.1270945810
 C    0.0314860911    0.0588028728    0.0792765264
 C   -1.3498030769   -0.5728219762    0.0097348519
 C   -2.1563825892   -0.2376406641   -1.2571776200
 C   -3.1297904442   -1.4071132119   -1.4292625917
 O   -4.0336690171   -1.4735029790   -2.2199724738
 C   -2.7543637767   -2.4916022204   -0.4070273815
 C   -1.3393984686   -2.1163848973    0.0460745087
 O   -0.3642561741   -2.5506718184   -0.8994712004
 H    0.7142784997    1.8845407140    0.0693899115
 H    0.6188525085   -0.2447796675   -0.7972923621
 H    0.5608966457   -0.3053211371    0.9751593767
 H   -1.9141990373   -0.2324609547    0.8873548076
 H   -2.6846055001    0.7163856108   -1.2194973336
 H   -1.5069847545   -0.2136956135   -2.1407332437
 H   -3.4612586614   -2.4236997038    0.4307101647
 H   -2.8448516976   -3.4962355409   -0.8292754899
 H   -1.0983351154   -2.4965626875    1.0484162427
 H   -0.4185310147   -3.5086512342   -0.9709324844