20

 C   -0.4318941409    1.3131364678    0.0169677050
 C    0.1002229433   -0.1305078455   -0.0858764633
 C    0.9694386780   -0.2697564350   -1.2631671367
 N    1.6607850935   -0.3583129067   -2.1853225755
 C    0.8337901878   -0.5962645802    1.1789802307
 C    2.1379900249    0.1103764952    1.4966068727
 C   -0.0426226021   -1.0291828392    2.3434839733
 C    0.7213195942   -2.0537367295    1.5371971289
 O    0.0256038975   -2.8783338149    0.6488692180
 H    0.3833531381    2.0318297005    0.1298260229
 H   -0.9956304295    1.5808816550   -0.8800731344
 H   -1.0926455785    1.3995042502    0.8837490076
 H   -0.7423844184   -0.8102979570   -0.2450334340
 H    1.9756948359    1.1696099497    1.7226357888
 H    2.6187468428   -0.3395578294    2.3701983492
 H    2.8365885588    0.0448413171    0.6562437097
 H    0.2837721142   -0.7945844226    3.3511832459
 H   -1.1182037669   -1.0087546847    2.1982335398
 H    1.5975113359   -2.5140986460    1.9934550635
 H   -0.4588192988   -3.5329665047    1.1624479880