23

 C   -0.5880839840    1.4150611474   -0.0138475208
 C    0.1844614110    0.0987701182   -0.0277808876
 C    1.2920332001    0.0248936077   -1.0891501228
 O    2.2364043148   -0.9373801493   -0.6324533544
 C    2.0140334004   -1.2394378784    0.7558620739
 C    3.3423454783   -1.2317718403    1.5026221684
 C    4.3331915800   -2.2549218133    0.9625593524
 O    5.5092373063   -2.1813485542    1.7577094181
 C    0.9880115127   -0.2097135747    1.2451849335
 H    0.0831124686    2.2610838081    0.1732866210
 H   -1.0906546357    1.5925494382   -0.9707659260
 H   -1.3550164185    1.4175023523    0.7672255869
 H   -0.5165262839   -0.7277542951   -0.2038177252
 H    0.9214991156   -0.2813033756   -2.0744177034
 H    1.7799781523    1.0066095729   -1.2042951674
 H    1.5760557225   -2.2503154382    0.8145864816
 H    3.7904957926   -0.2334245697    1.4386780749
 H    3.1608724161   -1.4409696365    2.5642154727
 H    3.8866064397   -3.2626847996    1.0069112507
 H    4.5430851503   -2.0340447961   -0.0929678774
 H    6.1670708055   -2.7661030828    1.3709873857
 H    1.4990622311    0.6962691545    1.5958895670
 H    0.3735488842   -0.5874968556    2.0665834483