16

 C   -0.0135050003    1.5167058945    0.0959988690
 O    1.1485392888    0.6889487185   -0.1032438656
 C   -0.1085370394    0.0639778296    0.0046940716
 C   -0.4177456151   -0.9975120204    1.0530948443
 N   -1.8769524278   -1.2524959219    0.9233723054
 C   -0.9266087263   -1.9240467964   -0.0023352461
 C   -0.6333651187   -0.8910431999   -1.0832473702
 C   -1.2186297854   -0.6761572679   -2.4019953110
 O    0.1193998465   -1.1836479898   -2.2365840219
 H   -0.0819284148    2.0021302554    1.0681841392
 H   -0.2915337062    2.1338980286   -0.7567339737
 H    0.1316067942   -1.2043260864    1.9619627792
 H   -2.1252921403   -1.9338672575    1.6411698624
 H   -0.8548564724   -3.0005056564   -0.0841171289
 H   -1.9445226690   -1.3873316049   -2.7928579565
 H   -1.2824121437    0.3310750750   -2.8104001571