20

 C   -0.2194207309    1.6156939499    0.0543428651
 C   -0.0502957152    0.0945383564    0.0356119674
 C    0.6659086947   -0.4046525552   -1.2199891078
 N    0.7549810777   -1.8660764170   -1.2354692512
 C    1.8879687410   -2.4604731317   -0.4622411665
 C    1.9714270014   -3.6770630952   -1.4268990493
 O    3.4078389041   -3.5822626615   -1.6338728278
 C    2.9867383295   -2.1919922133   -1.5602858082
 C    1.6205207288   -2.4421408564   -2.3042627417
 H    0.7494630463    2.1261076006    0.0163905961
 H   -0.8073692508    1.9600869707   -0.8037878503
 H   -0.7327308179    1.9463850758    0.9621645199
 H    0.5117207163   -0.2234720743    0.9233569086
 H   -1.0264913582   -0.3993813601    0.0967066867
 H    0.0958573281   -0.1025672207   -2.1084558062
 H    1.6557641392    0.0832654780   -1.2995456732
 H    1.9720830452   -2.4382647414    0.6244921394
 H    1.4984942893   -4.6553538309   -1.3675009682
 H    3.7511383085   -1.4227342211   -1.6639426463
 H    1.3890834430   -2.3918530026   -3.3690742764