14

 O    0.1279863281    1.4035794803   -0.0380132504
 C    0.0747639889   -0.0084031159    0.0154750862
 C   -1.3663786160   -0.5404090558   -0.1135807528
 C   -1.4212245238   -2.0290212221   -0.0725264405
 N   -1.5096653389   -2.8100279291   -1.1464553348
 N   -1.4851179806   -4.0137021454   -0.5899699003
 N   -1.3896725503   -4.0148464550    0.7304473556
 N   -1.3455283893   -2.7556156764    1.0770461057
 H   -0.2707945157    1.7479262188    0.7675206923
 H    0.6726868014   -0.3667793892   -0.8285345872
 H    0.5306925422   -0.4035368679    0.9349039119
 H   -1.9686292213   -0.1453623926    0.7123525353
 H   -1.7977762115   -0.1819945114   -1.0511761247
 H   -1.5472122233   -4.8663041482   -1.1262552563