16

 N   -0.3454005688   -1.1483713227    0.6446654635
 C   -0.2044979655   -0.0310325998    0.3855762572
 C   -0.0833290239    1.3795883719    0.0461000212
 C    0.7786786531    2.2221337476    0.8996593083
 O    1.2239034949    1.7759619732   -0.3789972236
 C   -1.2586327582    1.9351352768   -0.7259431599
 C   -1.1266399062    3.3461906648   -1.3415612995
 O   -1.4188050345    2.8432368774   -2.6580141238
 C   -1.4153249202    1.4781007257   -2.1975832676
 H    0.5539823079    3.2845584587    0.9756972257
 H    1.2848918682    1.7788221416    1.7539639505
 H   -2.1674782775    1.7975770757   -0.1358338204
 H   -1.8619725111    4.0864338908   -1.0080524809
 H   -0.1189135939    3.7744590750   -1.2854542076
 H   -0.5609907402    0.9129409577   -2.5905649000
 H   -2.3434311343    0.9535314157   -2.4464676530