17

 C   -0.1174330820    1.6851862015    0.1792041842
 C   -0.0265369108    0.1598452007    0.0497947698
 C    0.6939145641   -0.3490188069   -1.2170351927
 C   -0.0101931090    0.0556260867   -2.5343414142
 O   -1.0914421460    0.5698936865   -2.5922511448
 C    2.1781211923    0.0811717294   -1.3000940316
 O    2.7777210409    0.6151147171   -0.4099810727
 C    0.7441471556   -1.8118603117   -1.2757269125
 C    0.8074714235   -3.0098734585   -1.3632914432
 H    0.8734924461    2.1410198763    0.2239126841
 H   -0.6764802692    2.1228084242   -0.6500549729
 H   -0.6424176120    1.9388320490    1.1049826137
 H    0.5030157513   -0.2566887250    0.9112919843
 H   -1.0301657133   -0.2746895060    0.0466065003
 H    0.5630662754   -0.2096413309   -3.4488778834
 H    2.6689408472   -0.1851400727   -2.2611059453
 H    0.8494669359   -4.0703355397   -1.4164186331