12

 N    0.2841505397    0.7747541406    0.6478269156
 C   -0.3498476912    0.5374146520   -0.5336897193
 O   -0.0985359578    1.1193614491   -1.5697600149
 C   -1.3780555952   -0.4966280867   -0.4499955817
 C   -2.2368429427   -1.3391585647   -0.4440117880
 C   -3.2809757190   -2.3589567712   -0.4508985959
 C   -3.4846164439   -2.9823930908    0.8632548814
 N   -3.6498192053   -3.4764044216    1.8933254148
 H    1.0065139328    1.4758752832    0.6708593497
 H    0.0485349435    0.2739216171    1.4867713296
 H   -4.2321988628   -1.9227695682   -0.7819496115
 H   -3.0359261483   -3.1450921787   -1.1765897197