17

 C    0.1692659176    1.4727172908    0.0750242167
 C   -0.0164487981   -0.0406418397   -0.0349807692
 C    0.7340992253   -0.6256126562   -1.3056661283
 C    1.9089292506   -1.2163407464   -0.6173031130
 C    1.7690800121   -1.2613471824    0.7186837416
 N    0.5470122749   -0.7512024995    1.1700357201
 N    2.8349085435   -1.9125344689    1.3014194974
 C    3.5611513161   -2.2362248976    0.2689100347
 O    3.0654473971   -1.8683763671   -0.9455230863
 H    1.2335799770    1.7287411587    0.1165029156
 H   -0.2725159858    1.9817734129   -0.7878606322
 H   -0.3157366065    1.8638735429    0.9760380861
 H   -1.0831792931   -0.2712579647   -0.1005169349
 H    0.1165091900   -1.3730092673   -1.8202256264
 H    0.9568188957    0.1674581298   -2.0287109020
 H    0.6133746141   -0.1424301239    1.9786692867
 H    4.5093761093   -2.7497615016    0.2616782832