17

 N   -0.0387733472    1.4865646133    0.0806430103
 C    0.0195643991    0.0370362994   -0.0245054773
 C    0.2307543989   -0.6045978899    1.3823353602
 C   -1.3072485235   -0.6932544398    1.5429087703
 C   -1.4392743375   -0.5718896856   -0.0073516884
 C   -2.5077547341    0.2042408012   -0.5941688803
 C   -3.3852738362    0.8643776899   -1.0849393378
 C    0.8919805937   -0.4432659795   -1.1039899215
 N    1.5899351384   -0.8004227392   -1.9549087402
 H    0.8984449787    1.8743405283    0.1313227073
 H   -0.4931481422    1.8793220412   -0.7392482897
 H    0.7014761300   -1.5872487274    1.3093279302
 H    0.7821641797    0.0156840527    2.0897119108
 H   -1.7186087551   -1.5974829622    1.9921404404
 H   -1.7166182997    0.1856209357    2.0398931647
 H   -1.4023541510   -1.5674948911   -0.4595828768
 H   -4.1703249720    1.4365339730   -1.5145524021