23

 C   -0.1678778216    1.5914090341   -0.0248372162
 C   -0.0339354190    0.0749206960   -0.0007985805
 C    1.1853887955   -0.5967233129   -0.6770360402
 C    1.5640802492   -0.5945804414   -2.1335644329
 C    2.1302681750   -0.2942605835    0.5481588117
 C    2.5820794880   -1.7636979774    0.6534690578
 C    1.0920138280   -1.8460110951    0.2733086490
 C    0.7152987730   -0.6089895970    1.1679906555
 C    0.3508791379   -0.6262355488    2.6280547847
 H    0.7786737930    2.0855513955    0.2195410272
 H   -0.4818345085    1.9459325733   -1.0131024148
 H   -0.9174528938    1.9345626034    0.6971792942
 H   -0.9938248904   -0.4015357365   -0.2485363697
 H    1.7269291786    0.4257463219   -2.4991316486
 H    2.4854608056   -1.1609161711   -2.3093067194
 H    0.7744505643   -1.0441891710   -2.7466350840
 H    2.7209956832    0.6104720405    0.7046858655
 H    3.3045776444   -2.1148433533   -0.0903804381
 H    2.8617285283   -2.1264249963    1.6478738899
 H    0.4655292349   -2.7260470787    0.1078401659
 H    1.0776569660   -1.1976229357    3.2161652609
 H    0.3156786919    0.3889266810    3.0396763641
 H   -0.6343896635   -1.0809765171    2.7828920679