21

 C    0.0931326315    1.4342174798   -0.2852688743
 C    0.0687728440   -0.0500843825    0.1121926641
 C    0.7047430460   -0.2865492371    1.4894447856
 C   -1.3551407265   -0.5840585485    0.0779203924
 O   -2.2578046853    0.0166979737    0.9767675395
 C   -1.9680324097   -1.1016247360   -1.2169727889
 O   -1.1986695126   -1.1960170666   -2.3763905101
 C   -1.6385220051   -2.0531872901   -0.0785161258
 O   -0.5296874452   -2.8930983079   -0.2903531667
 H    1.1194333717    1.8137293885   -0.3030660839
 H   -0.3399182803    1.5817616393   -1.2796508471
 H   -0.4640699959    2.0476407188    0.4328106220
 H    0.6431227506   -0.6036925287   -0.6364333805
 H    0.7644043071   -1.3559888615    1.7103563261
 H    1.7172110032    0.1284743252    1.5281360204
 H    0.1097032348    0.1903456388    2.2744917319
 H   -2.4901961120    0.8819783150    0.6215597131
 H   -3.0093549761   -0.8603254090   -1.4136742967
 H   -0.5697909474   -1.9148294147   -2.2208770218
 H   -2.4383904682   -2.4648774364    0.5316416082
 H   -0.8610971846   -3.7468049101   -0.5894363375