16

 C    0.0993398773    1.4061237273    0.1626063427
 C   -0.0372438653   -0.0725595066    0.0874166073
 N   -1.1185106203   -0.7807390709    0.1837284077
 C   -0.6972081883   -2.1037618210    0.0454998205
 C   -1.6450700588   -3.2521120141    0.0966563325
 C    0.6466811365   -2.1225673399   -0.1308831768
 N    1.5580813535   -3.1592095858   -0.3147866974
 O    1.0870149679   -0.8021179509   -0.1050465848
 H    0.7570687612    1.7013234975    0.9869964245
 H    0.5279548475    1.8112411114   -0.7601901438
 H   -0.8868993555    1.8436343375    0.3194059164
 H   -1.1063746703   -4.1932556803   -0.0333882844
 H   -2.1760529011   -3.2794741403    1.0543765290
 H   -2.4039925481   -3.1689526312   -0.6888567415
 H    2.2560396466   -3.2009680329    0.4213804124
 H    2.0443897872   -3.0987901299   -1.2039930242