14

 N    0.0674224757   -1.1623067127   -0.0106397763
 C    0.0344560216   -0.0070194395   -0.0108461056
 C   -0.0096345237    1.4381630863    0.0177831211
 C   -0.3285310334    2.2582384314    1.3190541141
 C    0.3978094297    3.3293572366    0.4453408160
 N    1.2985806590    2.2252851349   -0.1114827036
 C   -0.5793555794    3.4659128557   -0.7290106541
 C   -0.8598619773    2.1974476045   -1.0215687950
 H   -1.3775326825    2.4092510856    1.5838920420
 H    0.2582967444    1.9262421844    2.1806455932
 H    0.8744932879    4.2160653934    0.8572929130
 H    1.9049570959    1.9156184552    0.6555205599
 H   -0.9186819260    4.3829604924   -1.1857191904
 H   -1.4829378416    1.7447150319   -1.7766260945