22

 C   -0.2190389472    1.6669502368    0.1515944211
 C    0.1513623583    0.1913346430   -0.0001311306
 C    0.7771692035   -0.3789575119    1.2729324082
 O    1.4235304095    0.3061949249    2.0460690136
 N    0.5762036457   -1.7200551834    1.4580988470
 C    1.1321327334   -2.4676126672    2.5557460548
 C    0.1949071535   -3.3410163648    3.4347376842
 C    1.3414351354   -4.3849771255    3.5251808190
 C    1.9774010424   -3.7386515886    2.2641300151
 H    0.6426354928    2.2319607591    0.5123518056
 H   -0.5467775667    2.0865494837   -0.8035989857
 H   -1.0274220317    1.7978064468    0.8772893266
 H   -0.7187482442   -0.4059522235   -0.2980912868
 H    0.8938000474    0.0736348557   -0.8009711280
 H    0.0272788371   -2.2193193511    0.7761270263
 H    1.6887716991   -1.7504914310    3.1606085979
 H   -0.1920883878   -2.9029650775    4.3575274016
 H   -0.6475297825   -3.7249050074    2.8486907492
 H    1.9593733007   -4.2311092029    4.4137501565
 H    1.0691513250   -5.4404370355    3.4692825392
 H    1.6370166075   -4.2346761377    1.3483519646
 H    3.0633678789   -3.6293907621    2.2194005905