18

 C   -0.2371876410    1.5342683227    0.0300806845
 C    0.0526312424    0.0347960986   -0.0018129517
 C    0.8659218360   -0.4658709611   -1.2414055574
 O    1.5860229558    0.5466819436   -1.9406857475
 C    1.8064472212   -1.4965188395   -0.6576312948
 C    1.8251898087   -1.4695714242    0.6823024655
 C    0.8508478789   -0.4974847334    1.1814564007
 N    0.6221563456   -0.1104089645    2.3777833432
 O    1.4508112246   -0.7648360851    3.3052118024
 H    0.6856691942    2.1202814400    0.0271674776
 H   -0.8252313953    1.8349034998   -0.8413106276
 H   -0.7923420186    1.7871921312    0.9364069188
 H   -0.9038959425   -0.5043088274   -0.0082641203
 H    0.1990079742   -0.8873244217   -1.9998504140
 H    2.2999159707    0.8464032022   -1.3664128651
 H    2.4365956153   -2.1130961466   -1.2887860258
 H    2.4545369078   -2.0582420282    1.3348645262
 H    1.1647363419   -0.3786124663    4.1394162151