20

 C    0.1918068758    1.3118922399    0.1268887836
 O   -0.2659685118    0.0340143648   -0.2535742224
 C    0.5063403695   -0.5553018851   -1.2674597661
 C    1.8383871815   -1.2460598349   -0.8142721728
 C    0.9321143701   -2.4011951653   -0.2948001531
 C    0.0724868903   -2.0202326235   -1.5379019710
 C    1.0018334871   -2.3996642176   -2.7047089726
 C    2.3459581256   -1.8025213656   -2.1566448274
 H    1.2011489607    1.2805915794    0.5628998293
 H    0.2092417043    2.0059804541   -0.7282592118
 H   -0.5037710354    1.6955829782    0.8772375355
 H    0.5743419589    0.1221912909   -2.1346968794
 H    2.5621948811   -0.7422826968   -0.1725678024
 H    1.3590431285   -3.4078651112   -0.2563275957
 H    0.4366894453   -2.1545466332    0.6429606101
 H   -0.9831333072   -2.2801142349   -1.6167136543
 H    1.0520972365   -3.4814865793   -2.8546611877
 H    0.6950728119   -1.9438809415   -3.6508049054
 H    2.7522533824   -1.0214935826   -2.8067580610
 H    3.1215614849   -2.5616496859   -2.0226061952