21

 C   -0.0074356767    1.5945725997    0.1246741736
 C   -0.0357956952    0.0738413420   -0.0632545963
 C   -1.4500401502   -0.5410586220   -0.0797205506
 C   -2.1919612435   -0.2208406449   -1.3818651085
 O   -3.5785828799   -0.5410335793   -1.3450764718
 C   -1.3499930428   -2.0689201231    0.1960295032
 O   -0.7350463402   -2.2990817655    1.4369816061
 C   -2.6951415859   -2.7836918090    0.1676074826
 O   -3.1397134615   -3.2904283765    1.1733615090
 H    1.0239259349    1.9585498994    0.1608144941
 H   -0.5115756686    2.1297447357   -0.6864810023
 H   -0.4917591778    1.8821579270    1.0643887117
 H    0.4817466428   -0.1975011726   -0.9942091943
 H    0.5216280031   -0.3964995653    0.7507376928
 H   -2.0207857415   -0.1118369662    0.7578156508
 H   -2.0489563353    0.8361803858   -1.6421154647
 H   -1.7752552630   -0.8097458842   -2.2081316480
 H   -3.9992710708    0.0333222712   -0.6968623401
 H   -0.7408415839   -2.5125976100   -0.6131027644
 H   -1.4055010151   -2.7597122592    1.9685154312
 H   -3.2266410087   -2.8351506830   -0.7944369742