21

 C   -0.7879324527    1.2322468440    0.2304456338
 C    0.0582486134   -0.0061778747    0.0133719225
 C    0.7468160091   -0.1990871339   -1.3530886687
 C    2.0630018165   -0.2386180317   -0.5463280761
 C    2.8117602479   -1.5893548657   -0.4258972107
 C    4.2469644971   -1.1855077100   -0.1998061391
 C    4.4382833650    0.1142257220   -0.4203554392
 C    3.1637503688    0.8075934026   -0.8305410239
 O    1.3401532106    0.0739639051    0.6807544842
 H   -0.2653729578    2.1262927400   -0.1242995746
 H   -1.7389810324    1.1462157041   -0.3071144698
 H   -1.0078993316    1.3638198741    1.2946780094
 H   -0.4905812415   -0.8983443468    0.3481681677
 H    0.4935435148   -1.1070131887   -1.9037631653
 H    0.6573073432    0.6626525504   -2.0199128695
 H    2.3877249301   -2.1817091682    0.3922501136
 H    2.7072172339   -2.1864943964   -1.3431702871
 H    5.0163865332   -1.8940065851    0.0860556649
 H    5.3880557095    0.6314797399   -0.3429426146
 H    3.1820139055    1.0825408298   -1.8951662620
 H    2.9575375972    1.7240441089   -0.2671479056