12

 O   -0.1157064609    1.4553916714    0.1038306819
 C    0.0278562045    0.0513491810    0.0298035079
 C    0.7394939671   -0.3936702524   -1.2595976564
 C    0.0113629896    0.1369236209   -2.4830774525
 O    0.5561678641    0.6567771286   -3.4180286355
 C    0.7118939256   -0.4934715476    1.2196543482
 N    1.2734027894   -0.9030038713    2.1426136667
 H    0.7620636774    1.8552399804    0.1291010862
 H   -0.9970276922   -0.3386897371    0.0287181055
 H    1.7777431133   -0.0496364851   -1.2802177922
 H    0.7467792759   -1.4910476754   -1.3086633847
 H   -1.0927376638   -0.0102714935   -2.4614363052