18

 C    0.0605593253    1.4987109074   -0.1007278054
 C    0.0402638582   -0.0176429141    0.0914519552
 O    0.6683599819   -0.3989547186    1.3146840141
 C   -1.3803224427   -0.5773989584    0.0463240815
 C   -2.0939249818   -0.7725539896   -1.3292707182
 N   -1.1271630897   -1.9324595854   -1.5660302051
 C   -1.5516048997   -2.1196203020   -0.1081004367
 C   -2.9807700708   -1.8263598638   -0.6206169682
 O   -4.0839079515   -2.2755193631   -0.6294142825
 H    1.0844702999    1.8729617087   -0.0192731512
 H   -0.3350748146    1.7808779426   -1.0815524674
 H   -0.5493317894    2.0005951945    0.6618528855
 H    0.6342458566   -0.4962066607   -0.6893341668
 H    0.2364561659    0.0797974491    2.0313642649
 H   -2.0051893971   -0.1223456958    0.8231891116
 H   -2.3177613729   -0.0392653888   -2.1019197770
 H   -1.5490406122   -2.6463100284   -2.1663362311
 H   -1.1462475555   -2.9133095137    0.5149275569