21

 C   -0.0200847699    1.4753116846   -0.1611706298
 C    0.0058516733   -0.0476121548   -0.0517641768
 O    0.6566170153   -0.5359600588   -1.2190638335
 C    0.9876093014   -1.9232650667   -1.1628430410
 C    1.4544335109   -2.2820002266   -2.5684098610
 O    0.4553536421   -2.0098879275   -3.5282221027
 C    2.0291695673   -2.1768468383   -0.0718600413
 C    1.6327722746   -1.4630762771    1.1939280899
 C    0.6946707573   -0.5196392676    1.2040331869
 H    0.9985166445    1.8732704289   -0.1554365682
 H   -0.5084577026    1.7778144725   -1.0915073037
 H   -0.5714802349    1.9098186972    0.6779078054
 H   -1.0379833591   -0.4149146033   -0.0440581588
 H    0.0748048285   -2.4991228272   -0.9372745934
 H    2.3837221469   -1.7284515813   -2.7835935526
 H    1.6798662004   -3.3522696725   -2.6242462228
 H    0.1501399621   -1.1161559139   -3.3292985573
 H    2.1161502081   -3.2551461625    0.1129554195
 H    3.0205459208   -1.8405864350   -0.4078510769
 H    2.1297611220   -1.7542863582    2.1155454172
 H    0.3895662511   -0.0401344519    2.1304859708