20

 C   -0.5891317461    0.9274455265   -0.6569645535
 O    0.4390851671    0.3543319817   -1.4342558380
 C    1.3272105590   -0.4699605762   -0.7074909186
 C    0.7446337106   -1.8586705703   -0.3790624288
 C    0.3883944493   -2.6876570575   -1.6260727749
 C    1.6166858730   -3.6023513499   -1.8538776723
 N    2.2093368249   -3.6729542249   -0.5287003654
 C    1.8237537317   -2.6838567786    0.3346594021
 O    2.2796194456   -2.4804108839    1.4400987549
 H   -1.2932928309    0.1787596571   -0.2653477193
 H   -0.1826968014    1.4953769815    0.1937309358
 H   -1.1394465399    1.6108818522   -1.3082986371
 H    2.2121292028   -0.5818407419   -1.3449207010
 H    1.6452193944    0.0149463784    0.2269586134
 H   -0.1044854686   -1.7376767234    0.2981819327
 H   -0.4938509453   -3.3032279584   -1.4308800288
 H    0.1718028411   -2.0583338712   -2.4912913687
 H    1.3310946286   -4.5948659381   -2.2164267885
 H    2.3150451219   -3.1713801091   -2.5850510993
 H    3.0146033522   -4.2391387842   -0.3118439147