16

 C   -0.1736863935    1.2840611265    0.1459031034
 O    0.0266693891   -0.1091026702   -0.1049786565
 C    0.6797128138   -0.3810856124   -1.2698759916
 O    1.0686383565    0.4469245655   -2.0445607945
 N    0.7913214618   -1.7591017206   -1.3601425041
 C    1.3821855358   -2.5252794484   -2.3710752026
 C    1.2845788870   -4.0081346081   -2.0698054544
 N    1.9169268351   -1.9868826756   -3.3888407848
 H    0.7830116017    1.8090389407    0.2083546957
 H   -0.7715161263    1.7396357030   -0.6476996154
 H   -0.7008592894    1.3397185561    1.0987357374
 H    0.3871509196   -2.2564487237   -0.5832937116
 H    0.2383232783   -4.3211139868   -1.9765059713
 H    1.7491228326   -4.5892267302   -2.8673643766
 H    1.7869068305   -4.2502452521   -1.1262095578
 H    2.2881685274   -2.7092807135   -4.0039434752