13

 O    0.0115802000   -0.0854254473    0.0671663536
 C   -0.0151412336    1.1029752285    0.0221902818
 C   -1.0278756234    2.2464886814    0.0167296825
 C   -0.0352632685    3.1097309896    0.8951546808
 N    0.0129830741    4.2925078246   -0.0224993633
 C   -0.0607872377    3.0920904131   -0.9163596215
 C   -0.0871091768    3.1578624823   -2.3541830633
 N   -0.1249707179    3.2140284786   -3.5080866507
 C    0.9505244477    2.2852279755   -0.0111667474
 H   -2.1149994770    2.2819060342    0.0150416619
 H   -0.0115226745    3.1795888276    1.9797745356
 H   -0.8856739180    4.7829008998   -0.0218948453
 H    2.0323721657    2.3743651321   -0.0422952145