14

 O    0.4068643515    0.4813990915   -1.1547439987
 C    0.4521095606    1.5989872301   -0.7439071478
 O    0.7789648099    1.8860592298    0.5368826942
 C    0.8513043274    3.2767284911    0.8888890332
 C    2.1690658162    3.8446872064    0.6333980214
 C    3.2557786373    4.3072321729    0.4118489629
 C    4.5803733245    4.8630092646    0.1481315358
 C    4.5699538859    5.9071596494   -0.8848698008
 N    4.5712588145    6.7305958461   -1.6937887871
 H    0.2256951398    2.5014120230   -1.3442744123
 H    0.0822058704    3.8452001362    0.3496443415
 H    0.6081137764    3.3205191769    1.9536957113
 H    5.0079755796    5.2869562807    1.0655509369
 H    5.2654752759    4.0667753314   -0.1699721107