17

 C    0.0893395032   -1.1854094945    0.0422053546
 C   -0.0072277023    0.0158575472    0.0217992783
 C   -0.0576748305    1.4252163036    0.0054494551
 C   -1.1223042770    2.2278700962   -0.1309687868
 C   -0.6948883466    3.6353924382   -0.0887238065
 C   -1.2975386629    4.7310034157   -0.9338197569
 C   -1.4821381635    4.7419996286    0.5695512670
 O    0.7084273553    3.6334680672    0.0836242167
 C    1.1809263506    2.2917392185    0.1510635923
 H    0.1579863587   -2.2448137300    0.0581667176
 H   -2.1504609013    1.9170430982   -0.2548679907
 H   -0.5948658423    5.4412935496   -1.3548560181
 H   -2.1460344378    4.4938047726   -1.5666188056
 H   -2.4589396556    4.5124559774    0.9816347695
 H   -0.9009377257    5.4595212819    1.1377947541
 H    1.6922662933    2.1182861729    1.1091263093
 H    1.9081593644    2.1057342265   -0.6526697599