20

 C   -0.1268574563    1.5811018602   -0.0966372817
 C   -0.0153736237    0.0565371164   -0.0115640445
 C   -1.4084990738   -0.5920150601   -0.0344308563
 C    0.8525394465   -0.5243470452   -1.1542349574
 O    1.4046084597   -1.7274308181   -0.6475256818
 C    1.8690080747   -1.4051119183    0.6452028438
 C    0.7722018408   -0.4765044854    1.2567165701
 C    1.3422069190    0.5513717703    2.1174956857
 N    1.8084592895    1.3574035118    2.8031083711
 H    0.8531058012    2.0645275313   -0.0535616693
 H   -0.6053011273    1.8687552763   -1.0389533430
 H   -0.7326634076    1.9843917839    0.7202072717
 H   -1.9669532207   -0.2747314154   -0.9213493245
 H   -1.3277043289   -1.6833698646   -0.0560642581
 H   -1.9919093640   -0.3076894154    0.8475839628
 H    0.2759018193   -0.7663197716   -2.0503353445
 H    1.6528941455    0.1828596654   -1.4277915783
 H    2.0079945416   -2.3301919919    1.2076495869
 H    2.8290026129   -0.8692807358    0.5992098367
 H    0.0901107517   -1.0715957237    1.8705887307