20

 C    0.0129958619    1.4001879988   -0.0442054340
 O   -0.0956812469   -0.0101870895    0.0571286673
 C    0.6737487805   -0.6025888095    1.0723802198
 C    0.0170089759   -1.9327735532    1.4449480156
 C    0.8982510505   -2.7058085658    2.4268424887
 C    2.2458178751   -3.0241868078    1.7838814688
 N    2.8263070214   -1.8295112039    1.1811509537
 C    2.1515610301   -0.7632455758    0.6493549456
 O    2.7108437394    0.0485161634   -0.0659153003
 H    1.0208335069    1.7055278559   -0.3359791590
 H   -0.7057048224    1.7130580956   -0.8059473832
 H   -0.2518893534    1.8847150259    0.9094742649
 H    0.6907340334    0.0478391337    1.9662558438
 H   -0.9744019695   -1.7356151671    1.8627185449
 H   -0.1330528691   -2.5149256654    0.5271836387
 H    1.0559594309   -2.1109221668    3.3350888732
 H    0.4170070866   -3.6395422068    2.7329869241
 H    2.9465616899   -3.4141606495    2.5301036472
 H    2.1126542039   -3.8106393684    1.0249167016
 H    3.7817017248   -1.8869815437    0.8545342985