16

 C   -0.3383331973    1.7080024615   -0.1576559722
 C   -0.0749718922    0.2161035331   -0.1494706003
 C   -1.3114481650   -0.6235612690    0.1571182192
 O   -1.8424940698   -0.3203124136    1.4291681797
 C    0.8562564111   -0.3476200823   -1.2427423397
 C    1.7966557290   -0.6466695907   -0.0767573424
 O    2.8659957512   -1.1360393822    0.0913091993
 O    0.9575598306   -0.1225966367    0.8741245646
 H    0.5958731646    2.2685342556   -0.2464223974
 H   -0.9832512673    1.9693049228   -1.0031235653
 H   -0.8458007321    2.0038420812    0.7632329211
 H   -2.0968327831   -0.4080915306   -0.5756260940
 H   -1.0529219713   -1.6904167576    0.0696455684
 H   -1.1426993276   -0.4950596107    2.0701813414
 H    0.5039092390   -1.2332542509   -1.7757884930
 H    1.2481744502    0.3791158500   -1.9562965494