17

 C   -0.0496708115    1.6077167754   -0.0158449761
 C    0.1408505105    0.0940437150    0.0589729649
 C    1.3707214714   -0.7080788365   -0.1967714284
 C    2.6633183085   -0.1554014639    0.4657544237
 O    2.3778641699    1.0853513346    1.1216493175
 C    2.0482468441   -0.1395481709    1.7873819982
 C    0.7095033891   -0.6975613208    1.2324839592
 C    0.0200920566   -1.8283242686    1.8442889122
 O    0.3121360387   -2.3053858130    2.9191331090
 H    0.7286275959    2.0834450691   -0.6134273116
 H   -1.0177168457    1.8288023811   -0.4759190102
 H   -0.0305416262    2.0686272734    0.9723822417
 H   -0.7202635372   -0.4522694963   -0.3271427891
 H    1.3841657327   -1.5631690674   -0.8613375756
 H    3.6801333678   -0.3444828805    0.1465659860
 H    2.4454081728   -0.3244390461    2.7759388132
 H   -0.8141238473   -2.2441773949    1.2323317154