15

 C   -0.0557371095    1.5183968123   -0.0097519314
 C    1.4394088753    1.8997723656   -0.0270645926
 O    2.1779331077    1.4860710768    1.1184456320
 C    2.2790539616    0.6792266189   -0.0828509236
 C    1.3361346611   -0.4642182265   -0.0830712340
 C    0.0468669507    0.0192202562   -0.0105224949
 N   -0.7675575114   -1.0496147547    0.0767864433
 N   -0.0800100991   -2.2216084505    0.0401994180
 C    1.2028477097   -1.8654321234   -0.0484963364
 H   -0.5553497637    1.9237684346    0.8769534479
 H   -0.5704248641    1.9158512338   -0.8928481751
 H    1.7374296586    2.8523667408   -0.4578815577
 H    3.2639257028    0.6520834347   -0.5369416288
 H   -1.7711101649   -1.0850189661    0.1358071657
 H    1.9605094950   -2.6340211525   -0.0874384623