18

 C   -0.0122564516    1.4741902735   -0.0004991579
 C    1.4887986819    1.8088273340    0.0245251154
 O    1.9339461247    1.5896308647    1.3703542989
 C    2.0597094712    0.1789553278    1.4014875531
 C    0.6605432646   -0.4666088820    1.2500009693
 N   -0.0104180353   -0.0085252412    0.0006650704
 C    0.9112296305   -0.2615883416   -1.1329025043
 C    2.1335176114    0.5970166481   -0.7660506100
 O    2.8414495510   -0.1161091427    0.2575479378
 H   -0.5239420936    1.8788854376    0.8748031663
 H   -0.5146997943    1.8290103791   -0.9070242750
 H    1.7874526057    2.8083366748   -0.2926772535
 H    2.5989550215   -0.1221119838    2.3027348279
 H    0.7560225855   -1.5565688015    1.2187907994
 H    0.0329463320   -0.1974799554    2.1054511367
 H    1.1767087433   -1.3176387178   -1.2105749979
 H    0.4279208967    0.0572612946   -2.0628928102
 H    2.8267901148    0.8548051817   -1.5671423664