21

 C   -0.0026380054    1.5493060815    0.0659009398
 C    0.0447259404    0.0182537575    0.0155194362
 C    0.7412414150   -0.4989149001   -1.2479434244
 N    0.6996803515   -0.5120548996    1.2130952217
 N    1.9922577494   -0.1916068931    1.4467490154
 C    2.2962253763   -0.8104807824    2.5826499556
 C    1.2014075527   -1.5346582630    3.0891620741
 C    0.1807752636   -1.3217864870    2.1794081300
 C   -1.2251141240   -1.8307284038    2.1750655038
 H    1.0117192486    1.9543835089    0.0912071263
 H   -0.5178841488    1.9408176664   -0.8163599971
 H   -0.5319422929    1.8956487247    0.9583059078
 H   -0.9778695919   -0.3695004701    0.0410676453
 H    1.7804815447   -0.1623230058   -1.2666543701
 H    0.7349000364   -1.5923042887   -1.2790262279
 H    0.2319459656   -0.1239511923   -2.1407857233
 H    3.2903097969   -0.7131952594    2.9947708764
 H    1.1480575162   -2.1305171758    3.9864618576
 H   -1.9621021041   -1.0199090651    2.2052455288
 H   -1.4447611154   -2.4413154258    1.2916505319
 H   -1.3871994847   -2.4558136571    3.0558054122