17

 C   -0.2820534252    1.3344570114   -0.1075863143
 N    0.0487281296   -0.0717627759    0.0362109792
 C    0.6237923723   -0.7572815514   -1.0058014694
 C    0.7276058611   -2.1239657928   -1.2287271595
 C    0.1828476208   -3.2124713903   -0.3661464394
 O   -1.1463195161   -2.9131201683    0.0884242452
 N    1.4105921251   -2.3151801508   -2.3906331814
 N    1.7509202354   -1.1762210903   -2.9063019016
 N    1.2668332758   -0.2097068524   -2.0624662795
 H    0.6312612084    1.9296315496   -0.2234495480
 H   -0.9437290962    1.5469371355   -0.9621283055
 H   -0.7758290380    1.6756194187    0.8041294799
 H   -0.6442776432   -0.6431652677    0.5024112346
 H    0.2264473575   -4.1647960921   -0.9094331632
 H    0.7633930041   -3.3314150643    0.5559667127
 H   -1.7056514641   -2.8657425385   -0.6950131528
 H    1.4118272627    0.7596488697   -2.2895515968