19

 C   -0.0130781531    1.5172840719    0.0572155467
 C   -0.0232993744    0.0160207497    0.0196213125
 C    1.1684173216   -0.8344918209   -0.3566045174
 C    0.5908999407   -0.9879227852    1.0319242051
 C    1.3467328715   -0.7055005040    2.2985205157
 C   -0.6775948914   -1.8061920715    0.9410435378
 N   -1.8055537760   -0.9274741256    1.3556345349
 C   -1.2665248970   -0.8435608665   -0.0295530974
 H    0.9559761846    1.9021807900    0.3920069609
 H   -0.2082164337    1.9447348916   -0.9339323670
 H   -0.7802487007    1.8886637421    0.7441341193
 H    1.0743429489   -1.6317807894   -1.0902206224
 H    2.1161289731   -0.3046300522   -0.4061169525
 H    2.0366391049    0.1357077405    2.1732324731
 H    0.6553089898   -0.4579846692    3.1103076223
 H    1.9428320904   -1.5714409470    2.6115377762
 H   -0.7791494288   -2.8856491829    0.9701479561
 H   -2.6551534402   -1.4938495339    1.3094556528
 H   -1.9037343402   -1.0474741776   -0.8832341165