14

 O   -0.2272107869    1.3645179047    0.1071845661
 C   -0.0524872261   -0.0159858357    0.0912269665
 C   -0.3963789796   -0.7536193849    1.3300156677
 C   -1.3741351986   -0.8255337422    0.1622639907
 O   -2.5517735863   -0.1020316609    0.2124357647
 C   -1.4097468837   -2.0626832141   -0.6411250314
 O   -0.5123115423   -2.8769377542   -0.6678123265
 C   -2.6119430388   -2.2499073555   -1.4788211348
 N   -3.5206046359   -2.4423520959   -2.1669673709
 H   -0.1092902750    1.6974579207   -0.7896902552
 H    0.7349512070   -0.4044999239   -0.5489650288
 H    0.1699319102   -1.6510251498    1.5505304697
 H   -0.7503126236   -0.1730872239    2.1744234570
 H   -2.3142273605    0.8305291056    0.1011377051