22

 C   -0.7820248062    1.2731770869   -0.0859048086
 C   -0.0233314756   -0.0590497372   -0.0828229133
 C    1.0389176261   -0.1709545258   -1.1705155659
 C    2.3421018759    0.5176342938   -0.9869021553
 N    2.2129865073   -0.9171561830   -0.6921939996
 C    1.9832047771   -1.2149631740    0.7364127120
 C    0.7206610429   -0.4514987099    1.2329739785
 C    1.0413270093    0.6885175310    2.2018504595
 O    1.6460802347    0.0944062074    3.3441059864
 H   -0.1161857333    2.1236653511    0.0906222001
 H   -1.2642654801    1.4322591836   -1.0560585752
 H   -1.5675646624    1.2921047897    0.6764551432
 H   -0.7557015649   -0.8508371245   -0.2857354987
 H    0.6971910187   -0.3986717991   -2.1777345121
 H    2.9575418213    0.7457377254   -1.8530988305
 H    2.4599714159    1.2167150307   -0.1640567484
 H    1.8294467259   -2.2956192812    0.8163688220
 H    2.8683235090   -0.9692706342    1.3299670531
 H    0.0933040749   -1.1380841302    1.8106439610
 H    1.7148889374    1.4321132191    1.7501544539
 H    0.1161246908    1.2152995899    2.4803431694
 H    1.8823091053    0.7952293104    3.9585953185