18

 C   -0.0904935535    1.5700667439    0.0177122104
 C    1.4475131550    1.2861541956   -0.0346600554
 C    1.3264882736    0.1453971044    1.0203680955
 C    1.8516343354   -1.0268896261    0.1656098565
 C    0.7652892306   -2.1229377000    0.3048582978
 N   -0.0621917961   -2.0227347806    1.5377373393
 C   -0.5227073832   -1.3654677232    0.2892276845
 C    0.0375119633    0.0345020219    0.1416479451
 C    1.2502416492   -0.0176118316   -0.8595232191
 H   -0.4590305691    2.1060044520    0.8978690866
 H   -0.5532221942    1.9608725044   -0.8944588310
 H    2.2517070425    2.0159513911   -0.1288733978
 H    1.3190278392    0.2501611918    2.1033082442
 H    2.8966536558   -1.3416704354    0.1542209903
 H    0.8732263683   -3.0864088907   -0.1820225042
 H   -0.5725129696   -2.8963272379    1.6599427159
 H   -1.4058528378   -1.7207592315   -0.2289603734
 H    1.1641023208   -0.1060440381   -1.9447899052