16

 C   -0.0197208623    1.4937326140    0.0996577714
 C    1.3785801822    2.1438479403   -0.0607279250
 C    2.1572841258    1.3595248297   -1.0587435768
 C    1.9649320567    0.0346333998   -1.3253321312
 C    2.9948485507   -0.2495755083   -2.2627660857
 N    3.7295352127    0.8035618034   -2.5325078860
 O    3.1915539152    1.8410463539   -1.7505119181
 C    0.9032089324   -0.7043316904   -0.6579233091
 C   -0.0113634067   -0.0223382891    0.0450780818
 H   -0.4722656289    1.8392900341    1.0338631775
 H   -0.6767620499    1.8593496566   -0.7045823407
 H    1.2882874120    3.1937589609   -0.3525317811
 H    1.9178334850    2.1283905765    0.8977328716
 H    3.2269880524   -1.1822836611   -2.7585031806
 H    0.8696755258   -1.7860191616   -0.7327663542
 H   -0.8210303032   -0.5439310588    0.5452401261