22

 C    0.0942528559    1.4981074762    0.0862949534
 O   -0.0244222987    0.0966597320    0.0523011861
 C    0.6961800364   -0.5438257068    1.0844199109
 C    0.5492207015   -2.0496779878    0.9279822359
 N    1.2343611499   -2.5585888095   -0.2408643295
 C    0.6660197725   -2.3309509812   -1.5916931442
 C    1.1941375756   -3.7299773693   -1.9967817792
 O    2.4483867509   -3.7347594051   -2.6383017069
 C    1.2345500668   -4.0182238431   -0.4729569119
 H    1.1398744284    1.8237698247   -0.0322320698
 H   -0.4965406502    1.8981724769   -0.7413177657
 H   -0.2885728573    1.9168530409    1.0308774989
 H    1.7628678695   -0.2698317873    1.0388166786
 H    0.3100191186   -0.2322687280    2.0702367423
 H    0.9872286717   -2.5279638862    1.8129741623
 H   -0.5298810105   -2.3003029264    0.9199465963
 H   -0.4336360320   -2.2761027274   -1.5953045088
 H    1.0661895263   -1.4684352869   -2.1317272687
 H    0.5370823193   -4.3557420409   -2.6015391859
 H    3.0317338440   -3.1654589928   -2.1231809060
 H    2.1082416143   -4.5566965036   -0.0882967705
 H    0.3160931771   -4.5179758582   -0.1211125875