25

 C   -0.3381113330    1.4786451286   -0.0919830308
 C   -0.0422223222   -0.0158783848    0.0110729820
 C    1.1530411274   -0.4915581834   -0.8661681105
 C    2.0511062436   -0.5391789153    0.4015354242
 C    3.1411217676   -1.6309707244    0.5325983488
 C    4.2077247893   -0.5740639529    0.1403834707
 C    3.1782934894    0.5317190507    0.4951912451
 C    0.7651271495   -0.4800638622    1.2707087015
 C    0.7467947286    0.3420361535    2.5512506714
 H    0.5651748737    2.0859184203    0.0306265505
 H   -0.7603165100    1.7167531311   -1.0746442249
 H   -1.0598775461    1.8011875234    0.6663554297
 H   -0.9719079889   -0.5716289206   -0.1480566901
 H    0.9904638794   -1.4860447868   -1.2935991616
 H    1.4668370231    0.1830926706   -1.6696834622
 H    3.2582597202   -1.9595195057    1.5714226574
 H    3.0382288022   -2.5175682827   -0.1004761300
 H    5.1529885574   -0.5781385765    0.6883683404
 H    4.4292661012   -0.5974503872   -0.9302090272
 H    3.1097479596    1.3975648654   -0.1696341947
 H    3.3150425032    0.8923454651    1.5197081549
 H    0.4722712535   -1.5109419566    1.5085716655
 H    1.0125942821    1.3881568090    2.3720124237
 H   -0.2454829653    0.3271022258    3.0161401378
 H    1.4567700646   -0.0579842645    3.2844707085