19

 C   -0.2063347782    1.5491090166   -0.0646049277
 C    0.0381970951    0.0523152629    0.0216600073
 O    0.8618711332   -0.4028507979   -1.0806350615
 C    1.8868756057   -1.1821806163   -0.4620979297
 O    1.2612824645   -1.7507535084    0.6753276261
 C    0.8375664208   -0.4946414182    1.2375541015
 C    2.1506718750    0.2801697507    1.3561188853
 C    3.4081548780   -0.5357898892    1.5163356353
 C    2.9077023592   -0.2116890858    0.1331387103
 H    0.7303556522    2.1110273348   -0.0499840306
 H   -0.7274125881    1.7873418309   -0.9959869429
 H   -0.8345701599    1.8847481030    0.7679235932
 H   -0.9200642950   -0.4819962395   -0.0299085845
 H    2.2309822497   -1.9561527045   -1.1477824387
 H    0.2591224213   -0.6662428214    2.1450497320
 H    2.1361544224    1.3226223395    1.6449837148
 H    4.2846299180    0.0108871244    1.8464693228
 H    3.3365513254   -1.5549492778    1.8770960691
 H    3.4452648010    0.4536477963   -0.5297697720