17

 O    0.1030295836    1.4484293940   -0.0674594111
 C    0.0408006514    0.0299967743   -0.0377678746
 C    0.6888112663   -0.5497656615    1.2093567334
 C   -0.1414495559   -1.2648703008    1.9697992729
 C   -1.5112860237   -1.3510850260    1.3647022813
 C   -2.6048775505   -0.3422673357    1.8215847681
 O   -2.0514963405    0.9776114583    1.7616989332
 C   -2.5183754546    0.3816356209    0.5414428912
 C   -1.4026506217   -0.5493410591    0.0226288281
 H   -0.3145145822    1.7451614022    0.7520288270
 H    0.5602692369   -0.2890687039   -0.9481470796
 H    1.7247415928   -0.3284779863    1.4448245692
 H    0.1180596878   -1.7183465052    2.9204768128
 H   -1.9136967703   -2.3628155568    1.2659210408
 H   -3.4347847456   -0.4895400305    2.5027773163
 H   -3.2664083914    0.9319474063   -0.0163555487
 H   -1.6923148126   -1.1102539702   -0.8665887703