20

 C   -0.0080692176    1.4884928315    0.0248730051
 N   -0.0448122794    0.0445553214    0.1246796498
 C   -1.3072414420   -0.6068792833    0.5248640627
 C   -0.4691375897   -1.6897919888    1.2465173510
 O   -0.2281091479   -2.8586408902    0.4978306971
 C    0.6751817140   -0.6313420302    1.2249839992
 C    2.1039039130   -1.1040103220    0.9391696070
 C    3.0677827135   -0.0132950216    0.8514812469
 C    3.8533133421    0.8952288667    0.7917567745
 H    1.0151803109    1.8186203912   -0.1698467000
 H   -0.6402008717    1.8168400301   -0.8072511938
 H   -0.3651504190    1.9895571997    0.9447473823
 H   -1.9070183075   -0.0072409249    1.2302671021
 H   -1.9498267548   -0.9387617973   -0.2988970866
 H   -0.8097189586   -2.0185090584    2.2287978922
 H   -0.0467285386   -2.5881050081   -0.4096743810
 H    0.6642658212   -0.0388065862    2.1561414741
 H    2.4034352032   -1.7960558842    1.7371481988
 H    2.1115235876   -1.6835394945    0.0099554527
 H    4.5573604315    1.6878846991    0.7351897857