20

 C   -0.0376996019    1.6024243215    0.1032883229
 C    0.0578542909    0.0757275856    0.1112347344
 C    0.7295339193   -0.4644434238    1.3748155677
 C   -1.3352241289   -0.5516471762   -0.0671678814
 O   -2.1401313057   -0.1662653191    1.0337178334
 O    0.7336716197   -0.4105357183   -1.0880330770
 C    2.0273169282   -0.0905037980   -1.3202524377
 N    2.4481380874   -0.7178996546   -2.4636758214
 O    2.7318866401    0.6097368789   -0.6294069474
 H    0.9422742820    2.0541965078    0.2528938032
 H   -0.4464711707    1.9502145582   -0.8510895477
 H   -0.7146122548    1.9202394618    0.8996420746
 H    0.0885453250   -0.2549864226    2.2343006756
 H    0.8575153404   -1.5491613641    1.2998382032
 H    1.7054888647   -0.0040170928    1.5244687490
 H   -1.7578797186   -0.2029076601   -1.0212918396
 H   -1.2230463303   -1.6443612798   -0.1263554696
 H   -3.0066272737   -0.5678132082    0.9286678873
 H    1.7568205807   -1.0841122058   -3.0956461411
 H    3.3122905862   -0.3828610103   -2.8536329683