21

 C    0.0438187307    1.4475031487    0.0591929717
 C    1.3608423460    0.7100178685   -0.0912704157
 C    1.7463049689    0.1301910199    1.2758234662
 C    0.4240508152   -0.7142003748    1.2902348043
 C    0.6369441895   -2.2208673881    1.0743121199
 C   -0.4636847074   -2.7933170983    0.1695377616
 C   -0.4873663293   -2.0289881635   -1.1548643128
 O   -0.7842538532   -0.6460869022   -0.9662267553
 C    0.0094078249   -0.0351235306   -0.0188472181
 H   -0.1963700053    1.9771322803    0.9804323533
 H   -0.3063232813    1.9337010408   -0.8462933011
 H    2.0309689787    0.9088178219   -0.9184133863
 H    2.6412517128   -0.4964071095    1.2653074599
 H    1.8474781497    0.8688136961    2.0784977430
 H   -0.2557148840   -0.5414666047    2.1340203591
 H    1.6025849471   -2.3845943813    0.5776400766
 H    0.6830485535   -2.7473227063    2.0333081575
 H   -0.2902025986   -3.8571104351   -0.0286697750
 H   -1.4459229110   -2.7054432679    0.6504932245
 H    0.4850599904   -2.1354638517   -1.6631792402
 H   -1.2647595672   -2.4062545521   -1.8245711831