25

 C   -0.1724471446    1.5564852304    0.0813325767
 C   -0.0237677844    0.0289478812    0.0292666323
 C   -1.3987884173   -0.6460941420    0.1289803417
 C    0.7170098777   -0.4498161749   -1.2362380454
 C    2.1879939847   -0.0470439307   -1.3009711947
 C    3.1505749463   -0.8524826746   -0.3983955018
 O    3.7810040065   -1.4720721771   -1.5355501709
 C    3.0572524873   -0.6233209513   -2.4593095129
 C    2.4344720132   -1.4049674433   -3.5989987219
 H    0.7936949010    2.0695598697    0.0811510034
 H   -0.7437469319    1.9205203888   -0.7813262320
 H   -0.7068872431    1.8651985435    0.9857226122
 H    0.5660245447   -0.2841046038    0.9033334599
 H   -2.0278262667   -0.3798468611   -0.7291848615
 H   -1.3086437932   -1.7372443590    0.1483082436
 H   -1.9286613469   -0.3360761974    1.0357062971
 H    0.6443618014   -1.5433689143   -1.2879832597
 H    0.1893910779   -0.0653466047   -2.1206486507
 H    2.2895992942    1.0360404520   -1.2008935838
 H    3.8588933378   -0.2507486309    0.1868540183
 H    2.6865386871   -1.5937988003    0.2652520486
 H    3.7325441749    0.1411854081   -2.8730911666
 H    1.7497914835   -2.1752705331   -3.2357495581
 H    1.8879932224   -0.7369017039   -4.2736400220
 H    3.2226185573   -1.8978103513   -4.1772605819