21

 C    0.1016326334    1.5566434275    0.1822941039
 C    0.0057694874    0.0398181887   -0.0034295751
 O    0.7385208041   -0.6562539278    1.0036333385
 C   -1.4123510936   -0.4499226258   -0.0424814771
 C   -2.3979030238   -0.7796335654    1.0604417905
 C   -3.4827718548    0.0920213068    0.4334213602
 C   -2.7050328342   -0.0817007883   -0.8997879377
 C   -2.8514258910   -1.5928799101   -1.2283277081
 C   -1.9969679253   -1.8382367946    0.0124129055
 H    1.1499558095    1.8655843276    0.2173697246
 H   -0.3918985595    2.0869945423   -0.6383990191
 H   -0.3823893657    1.8614142180    1.1179325952
 H    0.5103445151   -0.2315456600   -0.9402373987
 H    0.3533290985   -0.4108637881    1.8527795833
 H   -2.1953037132   -0.9479761640    2.1115282445
 H   -4.5231267829   -0.2544322162    0.4555344524
 H   -3.4316592146    1.1201944806    0.8029188839
 H   -2.7674805475    0.6707082235   -1.6839484123
 H   -3.8682735229   -2.0014935030   -1.2688192486
 H   -2.3114014175   -1.8641547858   -2.1399139261
 H   -1.4875814516   -2.7434494256    0.3165355102