15

 O    0.0941385213    1.2842919439    0.1038775420
 C    0.1410578014   -0.0597957351    0.0468654891
 N    0.0217537751   -0.7108957130   -1.1066010096
 N   -0.0620214290   -2.0120775309   -0.6893934373
 C    0.5981883986   -3.2781767671   -1.0488977123
 C    1.9785428186   -3.3643881811   -0.4562544487
 C    0.7622421775   -3.5420262094    0.4471901535
 C    0.1829973001   -2.1586301570    0.6490009935
 C    0.2992269676   -0.9024286864    1.1939657054
 H   -0.0247228892    1.5994387366   -0.8014844690
 H    0.2122555122   -3.9110988455   -1.8366459111
 H    2.5359774970   -4.2683708387   -0.6895358257
 H    2.5814222785   -2.4665533648   -0.3670306376
 H    0.5523626617   -4.4489419054    0.9956573099
 H    0.4604189585   -0.5884598761    2.2109534578