19

 N   -0.1443591788    1.4286265068    0.0527429681
 C    0.0241920868   -0.0189865136   -0.0929039936
 C    0.8052538866   -0.4015577245   -1.2909857034
 N    1.4350696378   -0.6565464203   -2.2270576113
 C    0.6797436225   -0.6018151996    1.1667382478
 C   -0.1102478018   -0.5143790165    2.5143782822
 C    0.0460730381   -2.0329452292    2.6763218736
 C   -0.5981814270   -2.7378058071    1.5204960752
 C    0.7629164976   -2.1247143471    1.3234650735
 H    0.7664694501    1.8775798418    0.0997851071
 H   -0.6116033939    1.8129367131   -0.7631171505
 H   -0.9747972480   -0.4554573595   -0.2050650632
 H    1.6707135318   -0.1497306507    1.2771748746
 H    0.4186910649    0.0723872492    3.2669405723
 H   -1.1375881784   -0.1435738019    2.4452638654
 H    0.2849755466   -2.5430665632    3.6008432919
 H   -0.5978818179   -3.8216858352    1.5714821568
 H   -1.4853560433   -2.3227440866    1.0468983692
 H    1.6167661963   -2.7271189659    1.0401241543