17

 O   -0.0903357642   -0.0285818753   -0.1988035997
 C   -0.0974678822    1.1543060554   -0.0678204515
 C   -1.2531446678    2.2216862125    0.2163453592
 C   -0.1552139958    2.9358523895    1.0499705731
 C    0.8651584905    4.1507139181    1.0206880961
 C    1.9912653884    3.0081817191    1.1064638282
 C    0.9276588298    2.2928324328    0.1660229845
 C    0.9570905245    3.2745097949   -1.0373457475
 C    0.9272817023    4.4780657110   -0.4666658765
 H   -1.5408386324    2.7278327300   -0.7071249417
 H   -2.1367408542    1.8492066002    0.7372615442
 H   -0.1439724832    2.4906528759    2.0503700612
 H    0.8234785578    4.9583181583    1.7515331118
 H    2.9643836637    3.2534599934    0.6772779357
 H    2.0913479073    2.5555678353    2.0967404069
 H    1.0348492351    2.9815989200   -2.0745397562
 H    0.9705896804    5.4634963488   -0.9076833081