14

 C   -0.0364255572    1.4121842278    0.0100948205
 O    0.0081391491    0.0010009251    0.0032073598
 C   -1.1748132874   -0.6597526453    0.0111984202
 C   -1.3707701858   -2.0195403215    0.0095404449
 C   -2.7822788117   -2.2287178618    0.0199844850
 C   -3.3957417784   -1.0036347411    0.0276346526
 N   -2.3999737632   -0.0397132378    0.0221716538
 H    0.9993114099    1.7546140841    0.0032754045
 H   -0.5455170028    1.8085778230   -0.8803128130
 H   -0.5311354296    1.8002508064    0.9121779618
 H   -0.5898908140   -2.7620870800    0.0017534480
 H   -3.2842257463   -3.1841097175    0.0216815139
 H   -4.4344643031   -0.7186987027    0.0365101367
 H   -2.5563023094    0.9512681712    0.0255403111