18

 C    0.0401888057    1.5222482595   -0.0399561246
 C   -0.0229963474    0.0334453081    0.0430025172
 C   -1.0869332066   -0.7753497253    0.1587728874
 C   -0.7058982725   -2.2317473475    0.1306395248
 C   -1.4998776201   -3.2472588791    0.9085623226
 N   -0.1203145393   -2.5709112165   -1.1971243325
 C    0.7639293187   -2.2479524939   -0.0291312018
 C    1.2200236244   -0.8017893443   -0.0337971449
 O    2.3581083253   -0.3952469933   -0.0563345439
 H    0.7168644128    1.9215914310    0.7228925577
 H    0.4476148100    1.8366871676   -1.0075448539
 H   -0.9450272101    1.9776487318    0.0865431605
 H   -2.1213361285   -0.4514382871    0.2146245843
 H   -2.5219280996   -3.3264117995    0.5207523601
 H   -1.0376696599   -4.2374681005    0.8477135488
 H   -1.5644505227   -2.9691954533    1.9656036975
 H   -0.1163813319   -3.5875742350   -1.3011837719
 H    1.4100577917   -3.0173576929    0.3766241828