17

 C    0.0071569204    1.5123110838   -0.0112475701
 C    0.0377727628    0.0048897851   -0.0167231294
 C    0.4655571295   -0.7386935248   -1.2776774092
 O    0.3584154812   -2.1166636218   -0.8706661435
 C   -0.0802442095   -1.9927448510    0.4595701657
 C    0.6267365466   -0.8123924309    1.1884002097
 N   -0.6102880188   -0.4932209198    1.9882325465
 C   -1.1217257319   -0.8458261454    0.6149405176
 H    0.9989920135    1.9277185335   -0.2223864001
 H   -0.6806880298    1.8956074421   -0.7733714134
 H   -0.3203015442    1.8745458357    0.9659073533
 H   -0.1955144879   -0.5484452208   -2.1327584975
 H    1.4975111406   -0.5160728090   -1.5774849515
 H   -0.2183783341   -2.9630162168    0.9373048424
 H    1.6318365137   -0.7573180739    1.6103072263
 H   -0.8072653418   -1.2645928235    2.6337811808
 H   -2.1826831903   -0.8302587925    0.3592227725