23

 C   -0.2539405480    1.4239618368    0.0742263219
 C    0.2329153371   -0.0212784944   -0.0547794497
 C    0.6973433703   -0.6013562867    1.2741946147
 O    1.1284593173   -1.9314239981    1.0646761419
 C    1.5942003619   -2.5653581007    2.2282740516
 C    0.5458669540   -3.0774257379    3.2852630046
 C    1.0870610287   -4.4950132498    3.0730964507
 C    0.9253955077   -4.8853683398    1.6338845977
 C    2.0753193324   -3.9925105450    2.0118851031
 H    0.5386119330    2.0810485811    0.4493831348
 H   -0.5792049867    1.8171781912   -0.8932469873
 H   -1.1011580982    1.5004681967    0.7648107987
 H   -0.5663979026   -0.6580542246   -0.4510640410
 H    1.0621176941   -0.0818964521   -0.7689455563
 H    1.5216881030    0.0049760437    1.6899107832
 H   -0.1235924419   -0.5711216874    2.0106172513
 H    2.3602576231   -1.9443386533    2.7162212223
 H    0.7239205677   -2.6725254705    4.2839236432
 H   -0.5065294872   -2.9298287760    3.0211542150
 H    1.2592663888   -5.2244980039    3.8542901030
 H    1.2053763972   -5.9047814209    1.3887654869
 H    0.1020277262   -4.4906250144    1.0452310838
 H    3.1044860121   -4.2803005541    1.8359657459