16

 O   -0.3384626309    0.1037728854    0.1891990616
 C   -0.0783446608    1.2755186557    0.2203726846
 C    1.2998652977    1.8928878827    0.0076053213
 O    2.3603538953    0.9526821151   -0.0047410735
 C    2.8524306616    0.8975812882   -1.3401023093
 C    1.7391649344    0.4844397005   -2.3259959933
 N    1.4109919093    1.9322778042   -2.6143055684
 C    2.7019004787    2.3192844927   -1.9314625944
 C    1.4140211822    2.6645020645   -1.3133590921
 H   -0.8612131213    2.0440450974    0.4238443559
 H    1.4491502969    2.5983162642    0.8419598772
 H    3.8066278348    0.3743157984   -1.3389234561
 H    2.1266580575    0.0457235997   -3.2486315472
 H    0.9277254591   -0.1255506086   -1.9252643357
 H    3.4351230817    2.9954159126   -2.3526844110
 H    0.9959233140    3.6616753673   -1.3831551096