15

 C   -0.0836755363    1.5200304611   -0.1195495338
 C   -0.0046413602    0.0227878175    0.0293935203
 N    1.3009056980   -0.6009376683   -0.1633069499
 C    0.6866056081   -0.6451759261    1.1900108737
 C    1.3238457060    0.1030471099    2.2299010384
 C    1.8270172911    0.7201134112    3.1402160944
 C    2.4570863575    1.4779033375    4.1870525990
 O    2.2987734134    1.2805908950    5.3709050558
 H    0.8099413470    1.9961396868    0.2889517176
 H   -0.1636987248    1.7904300727   -1.1774107451
 H   -0.9614982497    1.9153482967    0.4013930964
 H   -0.8747666350   -0.5233506875   -0.3338584226
 H    1.2094369826   -1.5164341085   -0.5965750265
 H    0.2587458423   -1.5913596693    1.5136338860
 H    3.1228475300    2.2854771012    3.8195003463