22

 C   -0.0757486377    1.5134196593    0.0153314093
 C    0.0198234590   -0.0180136559    0.0418024691
 C   -1.3526283836   -0.5537866204   -0.3756453264
 N    1.2350630843   -0.6206043477   -0.7443651966
 C    2.0946454568   -0.1384295841    0.4413104683
 C    0.8578881360   -0.7301431198    1.1598130012
 C    0.5783417419   -0.8210240242    2.6376052479
 O    1.6357606530   -1.5602889206    3.2339653820
 C    1.0459878921   -1.8731153399    0.1378186383
 H   -0.0419939739    1.8606642218   -1.0233139114
 H   -1.0332941190    1.8342665172    0.4367997205
 H    0.7082042291    2.0318865579    0.5669890179
 H   -1.6271790826   -0.1249281763   -1.3455448599
 H   -1.4207464486   -1.6367278486   -0.4663886232
 H   -2.1107572911   -0.2343879064    0.3475899500
 H    3.0304535482   -0.6917504392    0.5383389356
 H    2.2829185586    0.9329960409    0.4639863990
 H    0.5077993941    0.1944529617    3.0619472049
 H   -0.3962986731   -1.3110523039    2.7989519998
 H    1.4641758353   -1.6231727233    4.1780324382
 H    0.2058582123   -2.5096566951   -0.1314536368
 H    1.9579363589   -2.4664083635    0.2253593222