23

 C    0.0149956589    1.5219588875    0.1983824029
 C    0.0057034540   -0.0031996922    0.0486461422
 C    0.6213579624   -0.4996955521   -1.2664540451
 C    0.8628235544   -1.9983817507   -1.3207100181
 O   -0.2904552211   -2.7806114515   -1.6750381307
 C    0.6792945836   -2.4775885779   -2.6917701450
 C    0.2988170483   -1.3086219172   -3.5771846302
 C   -0.1599521708   -0.1912914816   -2.5921122583
 C   -1.6893202766   -0.1635307827   -2.4551951374
 H    1.0369919283    1.9146925962    0.1463669312
 H   -0.5650603651    2.0132626076   -0.5893515253
 H   -0.4088305362    1.8269769217    1.1602381888
 H    0.5737669591   -0.4422715139    0.8793172204
 H   -1.0150157821   -0.3877765159    0.1475964220
 H    1.6187774026   -0.0401189823   -1.3554684776
 H    1.5390022373   -2.4713307998   -0.6108696866
 H    1.2096820724   -3.3372654381   -3.0944946894
 H    1.1862992529   -1.0011431127   -4.1445240321
 H   -0.4794306839   -1.5621856832   -4.3044838442
 H    0.1588440287    0.7833946622   -2.9747715537
 H   -2.0675766759   -1.1174376913   -2.0823851337
 H   -2.0279486967    0.6309624186   -1.7835733523
 H   -2.1449238743    0.0246815794   -3.4336673276