23

 C   -0.1159494020    1.5617544757    0.2753268810
 C   -0.0279101299    0.0823379609   -0.0334646768
 C    0.5955222329   -0.4814918545   -1.2951797662
 C    1.3238473595    0.3544433057   -2.3273402412
 C    2.5447020913   -0.3837580706   -2.9001238763
 C    3.6725218136   -0.6708014653   -1.9379454443
 C    3.7172503024   -0.5581441395   -0.6082288511
 C    2.6154382008   -0.1134404394    0.3354760997
 C    1.2538196412   -0.7280495299    0.0417854276
 H    0.7557922147    2.1248271007   -0.0659661305
 H   -0.9951286466    2.0050023390   -0.2058263509
 H   -0.2103048669    1.7295239399    1.3542454252
 H   -0.9091855868   -0.4607123110    0.3011014372
 H    0.0784509271   -1.3348821856   -1.7294856814
 H    0.6420142140    0.6096217929   -3.1482628900
 H    1.6537127541    1.3076868566   -1.9031928954
 H    2.2161270545   -1.3332915164   -3.3512668610
 H    2.9561321386    0.1960360195   -3.7385948698
 H    4.5821207613   -1.0161760630   -2.4291109153
 H    4.6639195119   -0.7992233563   -0.1278741633
 H    2.9049645496   -0.3726927244    1.3602754210
 H    2.5560001647    0.9816241554    0.3318455371
 H    1.1484511097   -1.7344519503    0.4384393744