13

 N    0.1002646175   -6.2698855545   -0.0500074337
 C    0.0794715645   -5.1062748582   -0.0373420365
 C    0.0560101228   -3.7480474544   -0.0216014352
 C    0.0356416754   -2.5315602775   -0.0063917966
 C    0.0150472516   -1.1831082954    0.0122542406
 C    0.0002273059    0.0314143467    0.0395501519
 C   -0.0124820894    1.4584206100    0.0401134019
 C    0.5114099695    2.1996341991    1.2348574936
 N    1.2662919887    2.2123647163   -0.0141853115
 H   -0.8093836705    1.9154409811   -0.5407484136
 H    0.0405752148    3.1416427028    1.4995225683
 H    0.8739169351    1.6085168555    2.0702810472
 H    2.0447825042    1.5591226186    0.0391372836