18

 O   -0.1184392468    1.3916326140   -0.4658771270
 C   -0.1029470087    0.0844939337    0.0096690785
 C   -0.2369862008   -1.0821457049   -0.9326762555
 C   -1.3664906324   -0.7347815241    0.0196998269
 C   -1.4204216660   -1.5009609098    1.3292911985
 N   -0.0638962674   -1.3500984972    1.8651285988
 C    0.6089104853   -0.1702004184    1.3355108951
 C    0.5155432060   -2.2909591314    2.6534965496
 O   -0.0375004650   -3.2901927488    3.0656277755
 H    0.6917717453    1.5418097604   -0.9649064746
 H   -0.4016878791   -0.8328073778   -1.9749234915
 H    0.3439559566   -1.9831804725   -0.7587476668
 H   -2.2812403172   -0.3264884903   -0.3908962513
 H   -2.1663805367   -1.0616512449    2.0051081930
 H   -1.6434421202   -2.5661967698    1.2309110961
 H    1.6846330149   -0.3551029566    1.2391167060
 H    0.4670657400    0.7146388232    1.9722818646
 H    1.5720909222   -2.0456354648    2.8832615640