14

 O    0.0666328940    1.3027363841    0.1979614862
 C    0.0784276232   -0.0291762109    0.0050468716
 C    0.1313201245   -0.7948495021   -1.1566276569
 C    0.1158613314   -2.1428768236   -0.7276929255
 O    0.1522854655   -3.2583888582   -1.4925616596
 C    0.0547166198   -2.1716477302    0.6643002231
 N    0.0333864076   -0.8362023570    1.0766322307
 C    0.0150381893   -3.2291686595    1.6249650899
 O   -0.0386603412   -3.0418516719    2.8337433304
 H    0.1033026521    1.7438185975   -0.6565942918
 H    0.1748889597   -0.4235302684   -2.1693102951
 H    0.1921745696   -3.0039755532   -2.4194715830
 H   -0.0099248776   -0.5682375466    2.0464951606
 H    0.0364630420   -4.2498052001    1.1933208195