20

 C   -0.0964267203    1.5708100094   -0.0858687342
 C    0.0565428776    0.0583167546   -0.0014807908
 O   -1.2171683701   -0.5735326485   -0.0600166844
 C    1.0907027509   -0.6300620182   -0.9238451439
 C    2.5008815440   -0.2504014936   -0.5620829376
 C    1.7863658423   -1.2681859345    0.2824427251
 C    0.8100464561   -0.5681148354    1.2034594117
 C    0.9478370376   -0.0342156935    2.5775905767
 N    0.1354681460   -1.2366127977    2.2983339189
 H    0.8654399625    2.0832600945   -0.0072874175
 H   -0.5480548700    1.8587378121   -1.0440703161
 H   -0.7479302396    1.9336895062    0.7157641648
 H   -1.6854159983   -0.2270130737   -0.8271900512
 H    0.8348047275   -1.0820744012   -1.8748672947
 H    3.2650662635   -0.6457299865   -1.2240579407
 H    2.7342929189    0.7318528210   -0.1588123329
 H    2.1362210445   -2.2837363378    0.4156865321
 H    1.8533909020   -0.2185756275    3.1500364025
 H    0.4415989016    0.8979007123    2.8196154029
 H   -0.8569525166   -1.0133620019    2.2651122392