13

 N   -0.0422915534    1.3574560723    0.1414741288
 C    0.0308000644   -0.0169463163    0.0397908839
 N   -1.0603381299   -0.7620157216    0.0277589004
 N   -0.5913807536   -2.0490068085    0.0019177447
 C   -1.4324269017   -3.1598527079   -0.0154497894
 O   -2.6304394811   -3.1266671228   -0.0037755446
 C    0.7823872187   -2.0939618767   -0.0155985244
 C    1.2280623970   -0.8078452356    0.0091531762
 H    0.6907472476    1.8617613019   -0.3341861322
 H   -0.9613479670    1.7244282716   -0.0641540095
 H   -0.8316344709   -4.0888349123   -0.0429610635
 H    1.3086567688   -3.0354429799   -0.0400051232
 H    2.2498788811   -0.4642227142    0.0168136928