20

 C   -0.1077337055    1.5212566812    0.0344746626
 C    0.0229526965    0.0034980975   -0.0014092520
 C    0.8400902180   -0.5828152515   -1.2002233847
 C    2.1164611259   -0.4306299620   -0.3204730711
 C    1.1523828900   -0.6142358639    0.8833130477
 N    0.8827320819   -2.0378835804    1.0555055395
 C    0.5613188719   -2.8337369799   -0.0102809670
 O    0.3391672829   -4.0247131167    0.0860811199
 C    0.5082148965   -2.0747014338   -1.3485927675
 H    0.8491740554    2.0299534767   -0.1184917507
 H   -0.7909454539    1.8657232993   -0.7493356944
 H   -0.5113489313    1.8566996024    0.9960567177
 H   -0.9579782619   -0.4564343066    0.1598772534
 H    0.7997089281   -0.0560451730   -2.1572925626
 H    2.9113881367   -1.1722997552   -0.4306894794
 H    2.5417808627    0.5728859209   -0.3681164357
 H    1.3893885203   -0.1653339355    1.8493706686
 H    0.9423792070   -2.4797899719    1.9593682517
 H   -0.4952061433   -2.2217716412   -1.7635582947
 H    1.2035231525   -2.5760365566   -2.0309142614