18

 O    0.2743981971    1.3018253948    0.4074934275
 C    0.0504269676   -0.0503071035    0.0749630402
 C   -0.7440776094   -0.8695726164    1.0659036063
 C   -1.3990444304   -0.3422858522   -0.1952914747
 C    1.1307860923   -0.6605010812   -0.7399173150
 C    1.7029774915   -1.9068146885   -0.5956482569
 N    2.6658027419   -2.0466857598   -1.5625094934
 C    2.7339561680   -0.9037509045   -2.3192365539
 C    1.7956987167   -0.0260345786   -1.8353991405
 H    1.1210641884    1.3426570890    0.8665442049
 H   -0.5612917123   -1.9354443657    1.1474167205
 H   -0.9960816449   -0.3760138668    1.9974462684
 H   -2.0850681377    0.4909345290   -0.0918476739
 H   -1.6356421766   -1.0443502331   -0.9860803317
 H    1.5076696950   -2.6963047352    0.1116604166
 H    3.2439022861   -2.8586935507   -1.6866477771
 H    3.4392761684   -0.8154495450   -3.1299634269
 H    1.5933952284    0.9662654083   -2.2066895306