21

 C    0.0488665240    1.6102029913    0.1293020330
 C   -0.1346023828    0.1000491535   -0.0700634814
 C    0.6494750477   -0.4615321321   -1.2545305824
 O    0.2210972042    0.1103432602   -2.4807913145
 C    2.1774966608   -0.6881056374   -1.1130561885
 C    1.9733084238   -2.0234007641   -0.3140009356
 C    2.9072094040   -2.8109425499   -1.2525164478
 C    2.1596167312   -1.8378740747   -2.1829964232
 C    0.8195488647   -1.9839801493   -1.3781921874
 H    1.1033201113    1.8709654858    0.2731245561
 H   -0.3274658785    2.1812500630   -0.7272991155
 H   -0.5010729320    1.9592967371    1.0080459229
 H    0.1664773637   -0.4236261156    0.8438344318
 H   -1.1972473555   -0.1216976013   -0.2277845871
 H    0.3746306715    1.0595708060   -2.4415598939
 H    2.9818375758    0.0353076958   -0.9605982852
 H    1.8526459382   -2.1183138330    0.7655994104
 H    3.9827831985   -2.6479214022   -1.1268406182
 H    2.6935965972   -3.8775398323   -1.3786454001
 H    2.2424435902   -1.7074156480   -3.2600665355
 H    0.0526215120   -2.7454883827   -1.5313763580