17

 O   -0.3363643952    0.0207255309   -0.2421241618
 C   -0.0064636856    1.1600960452   -0.0382551261
 C    1.3918299046    1.7070597549   -0.2208404554
 C    1.4189377944    2.8684534413   -1.2108354143
 C    0.8267750333    4.2938101423   -0.9124795311
 C    1.5801065073    4.7097946093    0.3656786626
 C    2.8353417946    4.3856861414    0.0485064849
 C    2.6542181538    3.8226129299   -1.3732179665
 O    1.7253166452    4.7944122626   -1.9542911378
 H   -0.7502148207    1.9142321790    0.3133359187
 H    1.7481751786    2.0533578034    0.7580097830
 H    2.0385183816    0.8926688426   -0.5613874810
 H    1.0862611122    2.5445976887   -2.2011675128
 H   -0.2201323304    4.5613224164   -1.0477314754
 H    1.1624049363    5.1472434932    1.2601053565
 H    3.7561303682    4.4760423216    0.6049559400
 H    3.5200896017    3.5890280873   -1.9909746934