18

 C   -0.0335476939    1.6610367994    0.0757379943
 C    0.0408252362    0.1440805626    0.0113313869
 C    1.0913865657   -0.5716711661   -0.8914125319
 N    1.6137677546   -1.3922067686    0.2579100276
 C    2.1403791402   -0.4160412247    1.2261500266
 C    0.6797225076   -0.6156176070    1.1715553422
 O   -1.2882075027   -0.4045723676   -0.1459837120
 C   -1.9002239575   -0.2688796062   -1.3365117355
 O   -3.0187786622   -0.6424827670   -1.5301380052
 H    0.9435598171    2.0902427300    0.3101361246
 H   -0.3643834902    2.0852252751   -0.8778291276
 H   -0.7431237485    1.9670354017    0.8503217384
 H    0.6438052818   -1.2237094918   -1.6425284435
 H    1.8481844545    0.0638633103   -1.3634260873
 H    2.6696241865   -0.8822514273    2.0512820914
 H    2.5934556681    0.5040550943    0.8628168722
 H    0.1064297687   -1.0957259263    1.9569091251
 H   -1.2680323360    0.2101370992   -2.1071752463