20

 C    0.5642868401   -1.0008121776   -1.0480261107
 N   -0.1060667327    0.0227865611   -0.2627898117
 C    0.2649497631    1.3693848890   -0.6797519596
 C   -1.5391773159   -0.1833101900   -0.0716489926
 C   -1.9387571381    0.5738130529    1.1980553609
 O   -2.8485696743    1.3557795498    1.2777485746
 C   -2.4601591655    0.1507252873   -1.2344141410
 C   -2.7217447760   -0.8157268265   -2.3101869569
 O   -3.6830128674   -0.5874981095   -1.2820264165
 H    1.6481114821   -0.8694194854   -0.9599057692
 H    0.3130512668   -1.9923758834   -0.6596015435
 H    0.3125677839   -0.9759308288   -2.1229352608
 H    0.0257879817    1.5879621235   -1.7354628478
 H   -0.2424888341    2.1130555128   -0.0579710587
 H    1.3438897045    1.5030441720   -0.5500221944
 H   -1.6861635287   -1.2475090775    0.1632300669
 H   -1.2719378615    0.3502870572    2.0599996160
 H   -2.5800755187    1.2105230864   -1.4523916500
 H   -2.9988161767   -0.4567803421   -3.3003969172
 H   -2.2414578824   -1.7933239813   -2.2913985976