19

 C   -0.1077332871    1.5174275973    0.0416943042
 C    0.1195352331    0.0393747895   -0.0009347806
 N   -0.7446862943   -0.9293872763    0.7382359335
 C    0.7229784302   -0.9019737252    0.9871924405
 C    1.3072727419   -1.7853227888   -0.1324796736
 O    0.8923995700   -3.1201715392   -0.1685429711
 C    0.6855288776   -0.7839182818   -1.1482873559
 C    0.1446115452   -1.0156213808   -2.4973685076
 N    1.4265974117   -0.2911367135   -2.3036354560
 H    0.7713603792    2.0608411703   -0.3215742086
 H   -0.9644904041    1.8097156848   -0.5770734302
 H   -0.3054810066    1.8552734416    1.0644518325
 H   -1.1913418328   -0.4220394488    1.5021188518
 H    1.1159486738   -0.7178146864    1.9800044697
 H    2.3984590942   -1.7686683673   -0.1817792493
 H   -0.0610297931   -3.0950340956   -0.0076969811
 H    0.2452969009   -1.9980052152   -2.9497487877
 H   -0.7325380767   -0.4532631788   -2.8078958792
 H    1.2745969568    0.7091593241   -2.4210184312