17

 O    0.2067740707    1.1392549864   -0.7943832619
 C    0.0464958868    0.1505782815    0.2144137464
 C   -1.3010352108   -0.4148627464    0.2709425554
 C   -2.4269762197   -0.8395445333    0.3182062862
 C   -3.7764154939   -1.3837847282    0.3566822004
 C   -3.8075721796   -2.9120286499    0.0906456484
 O   -3.1467731780   -3.6196353770    1.0961849555
 C   -5.2427021173   -3.3860939169   -0.0395513303
 O   -5.6864423534   -4.2638517954    0.6593518439
 H   -0.4843514625    1.7968028453   -0.6640010011
 H    0.7724273558   -0.6352000714   -0.0219927536
 H    0.3183173233    0.5432433173    1.2072639984
 H   -4.2361369182   -1.1999845225    1.3356327648
 H   -4.3991777474   -0.8769005276   -0.3933047651
 H   -3.3284408188   -3.0858662650   -0.8895270647
 H   -3.7971717039   -4.2492903971    1.4457455561
 H   -5.8608928930   -2.8854113196   -0.8130092788