19

 C   -0.0500172611    1.3847297338   -0.3877409839
 N    0.0588831115   -0.0263508323   -0.0494069978
 C   -1.1687288282   -0.7305793463    0.3126305261
 C   -1.5177575871   -1.8846584142   -0.6303860280
 C   -0.5354090136   -3.0140252343   -0.5371527912
 C    0.6941038482   -2.9645354250   -0.0169627729
 N    1.4064055599   -1.8810771972    0.5093176040
 C    1.3044495693   -0.5065684858    0.2576986923
 O    2.3055582256    0.1889329923    0.3287902623
 H    0.9287456528    1.7441274681   -0.7005419441
 H   -0.7696099411    1.5159417323   -1.2029302044
 H   -0.3816810654    1.9860543273    0.4696544812
 H   -1.0947976740   -1.1089992251    1.3397541352
 H   -1.9735303787    0.0084568043    0.3029035081
 H   -2.5203395687   -2.2546333093   -0.3751599807
 H   -1.5921917954   -1.4995028916   -1.6572753473
 H   -0.8614219530   -3.9838973876   -0.8983914078
 H    1.2761625413   -3.8794814057    0.0347620226
 H    2.3580828976   -2.0863538835    0.7722848563