19

 C   -0.2794359676    1.4589377485    0.2587193040
 N    0.0112595621    0.0483377450    0.0331242143
 C    0.5008683434   -0.4346540820   -1.2598586465
 C    0.8500135781    0.5046695379   -2.4121585553
 C    2.2900748019    1.0140965660   -2.3065959993
 O    2.5643697426    1.5140854529   -1.0087549981
 C    2.5917957404    0.4868665765   -0.0312940517
 C    1.3811894918   -0.4322136676   -0.0452601194
 H    0.4393049730    2.1606084233   -0.1812957430
 H   -1.2768069904    1.6782892919   -0.1369836727
 H   -0.3101793442    1.6328792113    1.3393925898
 H    0.0366679145   -1.3718809733   -1.5606404778
 H    0.7236183340   -0.0268578381   -3.3611846846
 H    0.1597357667    1.3556852860   -2.4364996763
 H    2.9962174695    0.2036788085   -2.5538261929
 H    2.4721418218    1.8423682630   -2.9975372240
 H    3.4904655082   -0.1394707338   -0.1689031487
 H    2.6893885942    0.9957059336    0.9341807179
 H    1.5594667299   -1.3661421196    0.4884744142