21

 C   -0.3071434855    1.5142088692   -0.0392307113
 C   -0.0328890488    0.0150345096    0.0235947978
 C    0.7797004434   -0.5430330561   -1.1609919606
 C    1.4280533420   -1.8594518447   -0.6742807458
 O    2.8195575327   -1.7791302273   -0.9604167417
 C    1.1196850225   -1.9308343296    0.8447706633
 C    0.7631278998   -0.4833689042    1.2677034820
 C    1.9445351368    0.3237728181    1.5580716235
 C    2.9113772594    0.9922434389    1.8127307964
 H    0.6283065544    2.0814901503   -0.0402296428
 H   -0.8618385574    1.7688957179   -0.9484008609
 H   -0.9020183659    1.8478204700    0.8177840335
 H   -0.9952742822   -0.5141561911    0.0619554899
 H    0.1676683275   -0.6774316231   -2.0566677461
 H    1.5934755160    0.1432969220   -1.4156796148
 H    0.9956883177   -2.7316223695   -1.1857685953
 H    3.2353601342   -2.5882981684   -0.6462357678
 H    0.2432463000   -2.5665273817    1.0144951837
 H    1.9534373091   -2.3512666284    1.4129233602
 H    0.1211590028   -0.4830423487    2.1564153642
 H    3.7712568716    1.5755711767    2.0307350826