21

 C   -0.3088728045    1.5537141280    0.0328663135
 C    0.8687812958    2.5573900312   -0.0237270448
 C    1.8709373034    2.2014307793   -1.0821162242
 C    2.9169927192    1.3970238091   -0.8941521916
 C    3.3705540849    0.7801289426    0.4147892942
 C    2.4505999557   -0.1338974528    1.2263779579
 O    1.4519957406    0.4398733497    2.0793645085
 C    1.0196929315   -0.4511011401    1.0407171030
 C    0.0827743892    0.0681272039   -0.0448623280
 H   -0.8704131963    1.7353472997    0.9556572235
 H   -0.9983626033    1.7501510534   -0.7975362887
 H    0.4647191605    3.5600657519   -0.2043329983
 H    1.3506790118    2.5703186607    0.9565087844
 H    1.6859047444    2.5786573746   -2.0866051628
 H    3.5516279967    1.1720040811   -1.7483328433
 H    4.2695331845    0.1893291883    0.2095849089
 H    3.7002468874    1.5714587096    1.1039230148
 H    3.0268395453   -0.9036318833    1.7464808029
 H    0.7221919485   -1.4283688066    1.4291335471
 H   -0.8403559091   -0.5199369415    0.0130658923
 H    0.5199849639   -0.1491822290   -1.0247604392