15

 N    0.1375079510    1.4340521981    0.1312684381
 C   -0.0237544992    0.0562191098    0.0470965856
 C   -1.1456194582   -0.7089233725    0.0333329285
 O   -0.7338479474   -2.0410268905    0.0187883995
 C    0.5937300106   -1.9666014143    0.0210428354
 N    1.3615084087   -3.1077477930    0.0111771422
 C    0.9853019118   -4.4369705058   -0.0338215041
 N   -0.2186073184   -4.8375952308   -0.0784934222
 N    1.0964362045   -0.7640832037    0.0359387598
 H    1.0278142888    1.7276736975   -0.2476139797
 H   -0.6216519547    1.9628921251   -0.2744013583
 H   -2.2057074525   -0.5383283677    0.0397442674
 H    2.3477244300   -2.9049482850    0.0346110939
 H    1.8749085277   -5.0781264424   -0.0247933306
 H   -0.2420487528   -5.8546870348   -0.1043247553