22

 C   -0.0184185609    1.3903784500    0.0701227583
 O   -0.0255953398   -0.0152338190    0.1297520667
 C   -1.2978494395   -0.5748826869   -0.1258118929
 C   -1.1802767161   -2.0918929410   -0.0372491774
 C   -0.2425728124   -2.6301034935   -1.1192193974
 C   -0.8812497929   -2.7057407153    1.3628182679
 N   -2.1003547257   -3.5945955257    1.3076657159
 C   -3.2486789710   -2.6748117848    1.2761084072
 C   -2.4958719878   -2.8803256428    0.0227115228
 H    0.9992372516    1.7233896783    0.2884504882
 H   -0.3073165047    1.7585825941   -0.9271107896
 H   -0.7039428536    1.8348041921    0.8093768339
 H   -2.0302662399   -0.1925161490    0.6031768924
 H   -1.6561429374   -0.2802290460   -1.1288436599
 H    0.7486532617   -2.1804360441   -1.0210163169
 H   -0.1451154137   -3.7174645513   -1.0459852171
 H   -0.6249653612   -2.3921588686   -2.1190861645
 H    0.0291592439   -3.3068893620    1.3957953972
 H   -0.8833675895   -2.0143499332    2.2120140347
 H   -4.2031351793   -3.1850688970    1.3678899132
 H   -3.1881256348   -1.7345034056    1.8199775058
 H   -2.9160412670   -3.4264217588   -0.8177333485