23

 C   -0.0130097924    1.4249289122   -0.0956309771
 O    0.0143841085    0.0186562545   -0.0968240223
 C   -1.2684708914   -0.5572652623    0.0061388314
 C   -1.1224664188   -2.0742312046   -0.0153165972
 C   -2.4703673940   -2.7835592247    0.0637751997
 C   -3.3035663517   -2.8319705271   -1.2375370156
 O   -3.1525715769   -4.2596320563   -1.3431415063
 C   -2.4953543249   -4.3366372336   -0.0545716802
 C   -1.2074188885   -5.1340857513   -0.1082660869
 H    1.0193259357    1.7734551932   -0.1791308819
 H   -0.5922537266    1.8244290544   -0.9436556637
 H   -0.4489820703    1.8260217435    0.8335599343
 H   -1.7629643495   -0.2326824061    0.9392112494
 H   -1.9088821479   -0.2179966947   -0.8276406453
 H   -0.5913496017   -2.3563633429   -0.9312591646
 H   -0.4850051414   -2.3729231780    0.8251782508
 H   -3.0294150459   -2.4172550584    0.9304171695
 H   -4.3558218769   -2.5356420082   -1.1337114699
 H   -2.8743393269   -2.3106400248   -2.1032907674
 H   -3.1720460202   -4.7889431847    0.6857796510
 H   -0.4999807373   -4.7114765823   -0.8260080176
 H   -0.7312305926   -5.1686562240    0.8776172748
 H   -1.4273321381   -6.1620238038   -0.4135840151