14

 O   -0.0674766373   -0.1227147817   -0.2193062650
 C   -0.1082777860    1.0804895233   -0.2010589117
 C    1.1192628828    1.9589383373   -0.0351013522
 C    1.3914633734    2.8354890880   -1.2674608689
 C    0.4196397685    4.0079742718   -1.4104435417
 O   -0.5341932561    4.1698697912   -0.6965253070
 C    2.8193352695    3.3917212562   -1.3058744931
 O    3.2259585682    4.0935358417   -2.1922791518
 H   -1.0639981883    1.6323599832   -0.3115255489
 H    0.9574963554    2.6113895920    0.8320317214
 H    1.9741205869    1.3060042751    0.1638781243
 H    1.2926680990    2.2560439165   -2.1987106342
 H    0.6775176539    4.7095923775   -2.2278362298
 H    3.4560836303    3.1106899679   -0.4385878813