20

 C    2.5464611221    1.4562650885   -1.0271138271
 C    2.4111686870   -0.0473437853   -1.2449441056
 N    0.9917484395   -0.4348784297   -1.2442051467
 C    0.7590353842   -1.8504913059   -1.4034017907
 C   -0.6396897654   -2.2731600589   -1.9533840553
 O   -0.0369142495   -3.0952096326   -2.9683828891
 C    1.2554752040   -2.5152171935   -2.7142844495
 C    1.0788789829   -2.6894258641   -0.1754744869
 O    1.3508664739   -2.2222484941    0.9013813424
 H    1.9899262240    2.0089295000   -1.7893881891
 H    2.1566020283    1.7463022837   -0.0448393363
 H    3.5964354925    1.7601759836   -1.0691530614
 H    2.8323620296   -0.3135037887   -2.2220828669
 H    2.9969154806   -0.5858560294   -0.4837745762
 H    0.5996927595   -0.1562156286   -0.3468689506
 H   -1.3007678146   -2.8492373232   -1.2960468184
 H   -1.1760411914   -1.4103560807   -2.3665215684
 H    1.5335054250   -1.7757696747   -3.4750849263
 H    2.0401415571   -3.2757652138   -2.6329036964
 H    1.0050491805   -3.7906792925   -0.3294074014