20

 C    0.3682148728    1.5321598703    0.1202031316
 C    0.0553635201    0.0371372360    0.0079562136
 C    0.4246683844   -0.5278539169   -1.3476834835
 O    1.8792849865   -0.4706792369   -1.6007714664
 C    1.9770080962   -1.8419116822   -1.6562033907
 N    2.9751167744   -2.5929093909   -1.7746800120
 C    0.4750645274   -2.0677257125   -1.5031051991
 O    0.0313548408   -2.7759917630   -0.3865216768
 C    0.2103702055   -4.1796511083   -0.5082704887
 H    1.4330766539    1.7179119554   -0.0466004850
 H   -0.1936756851    2.1143103751   -0.6186616414
 H    0.1081099942    1.9113108416    1.1124851422
 H    0.5823485891   -0.5289202830    0.7817517478
 H   -1.0143993444   -0.1468250527    0.1649668071
 H   -0.0954294686   -0.0080714436   -2.1585783363
 H    3.8436325386   -2.0558833204   -1.8214800087
 H    0.0077924457   -2.4404268263   -2.4270948877
 H   -0.3549189174   -4.5767916142   -1.3652127354
 H    1.2681011053   -4.4382196048   -0.6316367323
 H   -0.1744848394   -4.6259475126    0.4109070118