24

 C    0.2177159575    1.0824389430   -0.6276737576
 C    0.0619013586   -0.2254036072    0.1309702929
 O   -1.1679256069   -0.8166524050   -0.2487269328
 C   -1.4307216424   -2.0898238609    0.3292032055
 C   -1.9212098397   -1.9572870844    1.7773626801
 C   -2.4717988226   -2.8294507724   -0.5039076805
 C   -3.2607593562   -2.1519980410   -1.5722535678
 N   -2.3050703014   -3.2029565107   -1.9068762280
 C   -1.0914003981   -2.8301022524   -2.6233715473
 H    1.1554102472    1.5733102356   -0.3501096640
 H    0.2248995526    0.9062839623   -1.7071890854
 H   -0.6095760150    1.7597190705   -0.3973326224
 H    0.8957835278   -0.9091766592   -0.0991591533
 H    0.0887699735   -0.0368194290    1.2149455006
 H   -0.4961823037   -2.6781130387    0.3250096061
 H   -2.8621338953   -1.3993942504    1.8064289563
 H   -2.0879722327   -2.9442828525    2.2195667516
 H   -1.1899286902   -1.4350227833    2.3996676899
 H   -2.9634341506   -3.6107369152    0.0749637057
 H   -4.3099219124   -2.3948445333   -1.7240333193
 H   -2.9840374076   -1.1241790894   -1.7918545402
 H   -0.7186618375   -1.8257635437   -2.3870174935
 H   -0.3046265981   -3.5590441837   -2.3994550409
 H   -1.2951084768   -2.8839903590   -3.6978903857