25

 C   -0.0477002652    1.2748019303   -0.5453266198
 C    1.0232855319    2.0556653690    0.2605740059
 C    1.9435948651    0.9951016662    0.9438926895
 C    1.5553255311   -0.3338407888    0.2551440877
 C    0.0544624816   -0.1942638604   -0.0762438078
 C   -0.8822310785   -0.5262832039    1.1000397415
 C   -0.7196604145    0.2944218451    2.3921709190
 C    0.6494098722    0.1359935717    3.0750120324
 C    1.8113410207    0.9596781343    2.4843350134
 H   -1.0553255667    1.6823874062   -0.4143566615
 H    0.1754742382    1.3305224418   -1.6160168713
 H    1.6053870520    2.7058558156   -0.3992208818
 H    0.5673979563    2.7113674681    1.0083867418
 H    2.9892542899    1.2348346582    0.7256843627
 H    2.1177267541   -0.4376247354   -0.6804778890
 H    1.7834636275   -1.2170287336    0.8608116881
 H   -0.2161558686   -0.8720206743   -0.8941049189
 H   -1.9174574153   -0.4213283338    0.7495699530
 H   -0.7551705133   -1.5882080552    1.3534860631
 H   -0.9287295875    1.3549826589    2.2026839548
 H   -1.4973975516   -0.0379637216    3.0906090398
 H    0.5577290682    0.4049036012    4.1341663244
 H    0.9135622927   -0.9298376236    3.0661546779
 H    2.7431762466    0.5666977210    2.9102537285
 H    1.7364928333    1.9948159731    2.8423122665