20

 C   -0.2182710925    1.5247627643    0.2266239172
 C   -0.0964484762   -0.0011629204    0.2251282734
 O    0.4741614453   -0.4963950650    1.4237111341
 C   -1.4360400024   -0.6747869271   -0.0747067119
 C   -1.6584430120   -2.1279104228    0.2472587995
 N   -2.3385293086   -1.0772801490    0.9779753243
 C   -2.2819862298   -0.8136245653    2.3304604663
 C   -2.7137662173   -1.9694508590    3.2111077836
 O   -1.9672053627    0.2758786786    2.7823159479
 H    0.7607870037    1.9741597297    0.4142320796
 H   -0.5851187322    1.8908621503   -0.7380151129
 H   -0.9137030010    1.8442472847    1.0076968674
 H    0.5917313149   -0.3029818226   -0.5761720284
 H    0.0102002460   -0.0532183429    2.1484229420
 H   -1.9411698936   -0.2822937227   -0.9569202646
 H   -2.2716086329   -2.7470785902   -0.4023652836
 H   -0.8443830702   -2.6319041004    0.7617608713
 H   -1.8591178602   -2.6360127453    3.3742023309
 H   -3.0348903165   -1.5806081170    4.1776293474
 H   -3.5118810218   -2.5546773580    2.7492536866