18

 N   -0.0103471865   -1.1410142069   -0.0316827629
 C   -0.0056545011    0.0156902489   -0.0093207045
 C    0.0046540923    1.4679704177    0.0167979316
 C   -0.1436810942    2.0749452046    1.4606599373
 C    1.4000020528    1.9394448644    1.5916298582
 C    1.4475680667    2.1052695064    0.0431380130
 C    1.2899825318    3.5736537236   -0.2897557084
 C    0.3351714260    4.2612047203    0.3376301140
 C   -0.5483263081    3.5540572427    1.3411790105
 H   -0.6708188045    1.8531899365   -0.7511649607
 H   -0.7743949779    1.5316576657    2.1657010683
 H    1.9306120577    2.6850756932    2.1868615537
 H    1.6867440581    0.9332692140    1.9048521129
 H    2.2334560295    1.6054391618   -0.5215621902
 H    1.9493565460    4.0285693676   -1.0214055466
 H    0.1685458419    5.3177555417    0.1513530708
 H   -1.6042034484    3.6389235329    1.0486528734
 H   -0.4713886520    4.0376410047    2.3249792996