18

 O    0.0420686618    1.3870363688    0.1105200690
 C    0.0424634585   -0.0101815453    0.0088893426
 C   -1.3319117652   -0.6884263825    0.0825349852
 N   -2.0798031395   -0.0750536733   -1.0455616729
 C   -1.1840210493   -1.2326083836   -1.2929192801
 C    0.2312776856   -0.6635657145   -1.4343258425
 C    0.5254127334    0.2447550084   -2.6310248148
 C    1.8857444144    0.9013027953   -2.5279255986
 O    2.7762284205    0.7496078736   -3.3268413546
 H   -0.7628209434    1.6774237143   -0.3416146887
 H    0.7681246286   -0.3917762882    0.7292584528
 H   -1.8520455337   -1.0811513838    0.9472410369
 H   -3.0374454090   -0.4186688102   -1.0089961848
 H   -1.5753828398   -2.1499087102   -1.7149951205
 H    0.9718240504   -1.4669194986   -1.3727324029
 H    0.4845536446   -0.3219624239   -3.5666139036
 H   -0.2374262062    1.0321334612   -2.6690160728
 H    2.0142481881    1.5485392124   -1.6342759897