14

 N   -0.0093268510    1.4143648955    0.1552096263
 C    0.0048662736    0.0413373855    0.0576362730
 C   -1.1552451856   -0.6859467413    0.0344782914
 O   -2.3715128804   -0.0726591766    0.0499762019
 C   -1.1669393771   -2.1176453942   -0.0173786329
 O   -2.1829023685   -2.7844057117   -0.0512203566
 O    0.0659292715   -2.7501109259   -0.0395297851
 C    1.2093920303   -2.0366680567   -0.0160027011
 C    1.2397307658   -0.6925560027    0.0312569366
 H    0.7920222642    1.9058770449   -0.2080187277
 H   -0.8941495891    1.8504439033   -0.0581998160
 H   -3.0168377054   -0.7976232290    0.0079228576
 H    2.0830124374   -2.6744997033   -0.0380871457
 H    2.1911586442   -0.1762537378    0.0572413383