18

 C   -0.7949797558    1.3194393418   -0.1630699145
 C   -0.1219106907   -0.0465405317   -0.2004270907
 N    0.7908229237   -0.3221786791   -1.3321360330
 C    0.5305664232   -0.7919441052   -2.5784389733
 O    1.3605050267   -1.2993751793   -3.3037604491
 C    1.9882831889   -0.6179563006   -0.5172528179
 C    3.2371274304    0.2071071821   -0.7969623621
 C    1.1231404649   -0.2368859690    0.7023286419
 O    1.3309850616   -0.0845222210    1.8665372425
 H   -0.0658918951    2.1197179537   -0.3159282538
 H   -1.5632810485    1.3994678079   -0.9376511943
 H   -1.2728490440    1.4639663017    0.8104377651
 H   -0.8597681476   -0.8464709564   -0.0456864671
 H   -0.5272967431   -0.6410070330   -2.8745261719
 H    2.2297344180   -1.6899460119   -0.5329858304
 H    3.0147973235    1.2777109750   -0.7811119990
 H    3.9954212308   -0.0028914131   -0.0371195160
 H    3.6374743230   -0.0538193718   -1.7792278764