21

 C   -0.1284412937    1.2518504184   -0.5777639085
 C    1.2541796908    0.9668446066   -0.0901222464
 O    1.6321305253    1.5565029122    1.1078961378
 C    2.2394336229    0.6904831656    2.0670771195
 C    1.4060751859    0.7038834572    3.3518232660
 C   -0.1049071976    0.6125783409    3.0518087080
 C   -0.5205268068   -0.6206757908    2.2882909154
 C   -0.3712837785   -0.9068130132    0.9888549638
 C    0.2430832053   -0.1698072886   -0.1489690541
 H   -0.7617124667    1.8095458802    0.1021996310
 H   -0.3012640278    1.4491231590   -1.6299790080
 H    2.0543847455    0.9123692035   -0.8300053662
 H    2.3041881735   -0.3254483904    1.6644368961
 H    3.2603857826    1.0425964663    2.2634812321
 H    1.7323281325   -0.1238444390    3.9937649247
 H    1.5930417298    1.6316636337    3.9052823688
 H   -0.6524780758    0.6464050400    3.9993251519
 H   -0.3785780796    1.5143413665    2.4977565836
 H   -1.0022960473   -1.3916568657    2.8866107360
 H   -0.7575435291   -1.8759322301    0.6767385267
 H    0.4239387787   -0.8290925024   -0.9937826981