21

 O   -0.2929365119    1.5980595868    0.0073684164
 C   -0.0239523687    0.2151723341    0.2005725682
 C   -1.3359838547   -0.5246657442   -0.0140654380
 C   -1.9266022007   -0.3579200087   -1.4230552439
 O   -2.8761665170   -1.4005450794   -1.5380787317
 C   -2.2908664388   -2.5564180137   -0.9536720916
 C   -1.3151866674   -2.0718326558    0.1585868334
 C    0.0509566411   -2.7381629546    0.0221182584
 O   -0.1579829030   -4.1340209606    0.1918727355
 H    0.5290312827    2.0847201056    0.1178242727
 H    0.7382396346   -0.1375245192   -0.5126672504
 H    0.3603240554    0.0252519452    1.2152348847
 H   -2.0593154102   -0.1096784001    0.6957567414
 H   -2.4379028901    0.5939466889   -1.5740306394
 H   -1.1339288576   -0.4514319791   -2.1881876075
 H   -3.0991289611   -3.1871630585   -0.5762722234
 H   -1.7380476113   -3.1349874781   -1.7097940097
 H   -1.7009093744   -2.3451505317    1.1449127208
 H    0.4826887633   -2.5230215852   -0.9689642760
 H    0.7494510736   -2.3520857916    0.7804795937
 H    0.6764056662   -4.5869420702    0.0394871364