17

 O   -0.2795099619    1.6070854116   -0.3447265618
 C    0.0113981880    0.2335934699   -0.2529347234
 C   -1.2272504405   -0.6030207922    0.1027042308
 C   -1.0205990955   -2.1261633836    0.1569746062
 C   -1.9494627806   -2.6535372851    1.2582468338
 O   -2.2340192810   -3.8069144132    1.4376147967
 C   -2.4500217077   -1.4705866208    2.0918320322
 C   -1.7874693065   -0.2441636216    1.4850490615
 O   -1.6825653143    0.8381055762    2.0145165348
 H   -0.6529288958    1.8582636688    0.5115585207
 H    0.3972281058   -0.0796224680   -1.2289805369
 H    0.8015812917    0.0273059958    0.4898956895
 H   -2.0180209370   -0.3566039972   -0.6206332942
 H   -1.2041674440   -2.6486614878   -0.7840836229
 H    0.0086866540   -2.3674974703    0.4593038310
 H   -3.5406585486   -1.3906783028    1.9970184447
 H   -2.2369102160   -1.5834746797    3.1583637674