15

 N   -0.0756878035    1.4944599386    0.1502405541
 C    0.0367317709    0.0543774309   -0.0332375161
 C   -1.2695435732   -0.5959951952    0.0762662532
 C   -2.3485486707   -1.1198512259    0.1272644276
 C    0.6696205267   -0.3488393752   -1.3832192722
 O    0.8377936373    0.3943737720   -2.3086111699
 O    1.0303967985   -1.6647994161   -1.3599048687
 C    1.5619791745   -2.2141376210   -2.5058182919
 N    1.9371063557   -3.4117840920   -2.4595089754
 H    0.8419876103    1.9154187257    0.0317326038
 H   -0.6547105538    1.8766658849   -0.5925074849
 H    0.6935662148   -0.3500564756    0.7483735056
 H   -3.3000645912   -1.5877616104    0.1912029515
 H    1.5879286285   -1.5114502201   -3.3386351547
 H    2.3015323353   -3.6960636406   -3.3678140417