15

 O    0.0269390390    1.4136985449    0.0429792872
 C   -0.0138828834    0.0429356628    0.0434493164
 C    0.3260127649   -0.8432557581    1.2936468335
 C   -0.4353088832   -1.9515312042    0.4909057826
 C   -1.3380596531   -0.7937863024   -0.0541796643
 C    0.5097351076   -2.1514420184   -0.6831114908
 O    0.9153207849   -3.1413993104   -1.2200671763
 C    0.8192227327   -0.6534067166   -1.0101841097
 O    1.5107279143   -0.1352835219   -1.8446488475
 H    0.6203445690    1.6760422623   -0.6775322635
 H    1.3743091014   -1.0080259999    1.5550160524
 H   -0.2433770802   -0.5170229109    2.1664882890
 H   -0.8452362911   -2.8384449757    0.9644235665
 H   -2.0618596930   -0.4630738630    0.6936415372
 H   -1.8166281499   -0.9132353785   -1.0294264729