19

 C   -0.1326798516    1.5466933670   -0.2512455180
 C    0.1878482897    0.0718275558   -0.1667439829
 O    1.5592629400   -0.2181704692   -0.6339016399
 C    1.9021895519   -0.7724215270    0.5721386308
 O    2.9488228959   -1.2447176992    0.8883915360
 C    0.5335241068   -0.5414472794    1.2033204630
 C    0.4806703998    0.1823142986    2.5755454119
 C    0.2354479344   -1.1976719843    3.2437366973
 C   -0.1723073304   -1.7590626050    1.8553599109
 H    0.5751138313    2.1368500113    0.3379378601
 H   -0.0877567556    1.8887722892   -1.2891380959
 H   -1.1430392224    1.7366962844    0.1259086806
 H   -0.5154979337   -0.5301440806   -0.7510789768
 H    1.3664023531    0.7455258581    2.8760355627
 H   -0.3957103895    0.8340303576    2.6414259477
 H    1.1700558256   -1.6414867817    3.5929829048
 H   -0.5040118148   -1.2453859467    4.0450943950
 H   -1.2536892897   -1.7145712432    1.6935062627
 H    0.1893156491   -2.7507689857    1.5758193201