19

 C   -0.1687045246    1.5309181534   -0.0628161258
 C    0.0518641127    0.0169772457   -0.0356967719
 N    0.7691137109   -0.4704865838   -1.1970171503
 N    0.1284443209   -0.6449008391   -2.3986000982
 C    1.0917741454   -1.1068372825   -3.1751873110
 C    0.8627439636   -1.4649870887   -4.6049247420
 N    2.3135628921   -1.2252134594   -2.5681154017
 C    2.0684949504   -0.8134914598   -1.3368316222
 N    2.9794521843   -0.8053445117   -0.2911686718
 H    0.7826958528    2.0726751111   -0.0588487454
 H   -0.7178848064    1.8127706617   -0.9645102573
 H   -0.7461749929    1.8462587285    0.8114892133
 H    0.6195921348   -0.2876273667    0.8492002868
 H   -0.9083816955   -0.5054614691   -0.0060926885
 H    1.5118040653   -0.8766858818   -5.2615587250
 H    1.0953053205   -2.5200744563   -4.7820082193
 H   -0.1781152772   -1.2807101855   -4.8763446058
 H    3.9062191626   -1.0207244551   -0.6346256268
 H    2.9892137304    0.0467729191    0.2535920028