23

 C   -0.1341834121    1.4699603940   -0.4465093832
 C   -0.0927769596   -0.0228686298   -0.1110896839
 C   -1.4826420450   -0.6243886576    0.1249642707
 C   -1.4394862060   -2.1142560441    0.4112885044
 C   -2.7722906117   -2.8989279790    0.3820933612
 C   -2.1185807562   -3.6680889213   -0.7586741661
 C   -2.0788520401   -5.1363176752   -1.0267738937
 C   -2.6836290752   -4.1727065119   -2.0432773394
 O   -0.9278654720   -2.8807058982   -0.7170459535
 H    0.8715001248    1.8693384090   -0.6108195851
 H   -0.7178208803    1.6553800498   -1.3551291867
 H   -0.5935483015    2.0479986269    0.3635235821
 H    0.3908623875   -0.5761606825   -0.9240185513
 H    0.5266083912   -0.1827534254    0.7815737867
 H   -1.9733903052   -0.1232880352    0.9717669664
 H   -2.1161881293   -0.4534855756   -0.7554015781
 H   -0.8297928267   -2.3135883825    1.3034456344
 H   -3.0030176747   -3.4802702427    1.2768156139
 H   -3.6426487398   -2.3003148238    0.1011535416
 H   -1.1126754582   -5.5676302776   -1.2661336299
 H   -2.7426241762   -5.7874483249   -0.4665322218
 H   -3.7607260315   -4.1642178721   -2.1782404211
 H   -2.1107365022   -3.9772434402   -2.9435790476