18

 O   -0.0883481840    1.3846526673   -0.1225097390
 C   -0.0687744714   -0.0064806958   -0.0036416928
 C   -0.5246203971   -0.6579653205    1.2681484859
 C   -1.4227463173   -0.6801287422    0.0526273357
 C   -2.7294303711    0.0820877290   -0.0796532287
 C   -3.4047085163   -0.5722171331   -1.3121903599
 N   -2.7682813360   -1.8807627541   -1.3799832835
 C   -1.5705301577   -1.9627195618   -0.7199393738
 O   -0.7816348819   -2.8855404436   -0.7628121217
 H    0.6229473115    1.7403569714    0.4201067734
 H    0.6979644876   -0.5179625530   -0.5838842130
 H   -0.0666525026   -1.6003842244    1.5499824169
 H   -0.8224265032   -0.0039510155    2.0814924092
 H   -3.3519528248   -0.0658698947    0.8085286782
 H   -2.5750721081    1.1537055408   -0.2129542285
 H   -4.4880222017   -0.6642953243   -1.1886774968
 H   -3.2189455030    0.0109606845   -2.2246523595
 H   -2.9910043828   -2.5605778801   -2.0900239619