18

 C   -0.0189901813    1.5261256145   -0.0392618831
 C    1.4113528638    2.0562070484    0.0272743061
 O    2.0354970818    1.6866312451    1.2553526643
 C    1.9280186626    0.3704469148    1.5718573393
 C    2.6794752081   -0.3638813434    2.4554584670
 C    2.1120302314   -1.6735446377    2.4720435559
 C    1.0503450410   -1.6883207711    1.6047423774
 N    0.9293447024   -0.4227986517    1.0560128604
 C    0.0024193670   -0.0037502722    0.0202789205
 H   -0.5865776497    1.9310629310    0.8053386576
 H   -0.5036754384    1.8576649477   -0.9622937444
 H    2.0018052469    1.6731715959   -0.8194601590
 H    1.4383348118    3.1476096518    0.0006113985
 H    3.5156624594    0.0051468415    3.0264424885
 H    2.4537093040   -2.5092786775    3.0633011684
 H    0.3730574539   -2.4743902883    1.3122086245
 H   -0.9920310205   -0.4040607290    0.2418211738
 H    0.3125517658   -0.4131217199   -0.9513386658