15

 O    0.3190053647    0.3072168905   -0.8018677391
 C   -0.2427765648    0.3018081502    0.5155772012
 C   -1.5858786965   -0.4168868684    0.4550691494
 C   -1.4692260399   -1.8917305592   -0.0313225258
 O   -1.0319528372   -1.9821039133   -1.3627618641
 C   -0.5471525370   -2.6374498820    0.8743595871
 N    0.2149011390   -3.1634270184    1.5648730692
 C   -2.8064438241   -2.5231544530    0.0465024860
 N   -3.8652885549   -2.9749042678    0.1260636070
 H    1.2506167345    0.5402752085   -0.7465827895
 H    0.4267959084   -0.2051123779    1.2220028413
 H   -0.4012566256    1.3285661840    0.8703873271
 H   -2.0495086599   -0.3953023706    1.4452396563
 H   -2.2544262723    0.0904207810   -0.2467108401
 H   -0.3679347843   -1.2774427337   -1.4750019262