17

 C    0.2102434693    1.3976076477    0.0944261661
 C   -0.0144466256   -0.0707472333   -0.0290695496
 C   -0.0268633005   -0.8250038290   -1.1414503006
 C   -0.1878756372   -2.2646135201   -0.8309957805
 O   -0.2372831813   -3.1840431755   -1.6157492788
 C   -0.2519617518   -2.3740863599    0.6929150638
 C    1.1095674640   -2.5201938045    1.4254568412
 O    1.0608398738   -1.1555001483    1.8983806086
 C   -0.1975816939   -0.9287890860    1.2054882855
 H    1.0723706495    1.5840612270    0.7461674521
 H    0.3906734881    1.8718657531   -0.8726715166
 H   -0.6511333462    1.8843747102    0.5686429627
 H    0.0997451117   -0.4696570484   -2.1574160789
 H   -1.0450926526   -3.0371994869    1.0340431417
 H    1.1049104195   -3.2318965676    2.2574331941
 H    1.9791692710   -2.7122173747    0.7867186956
 H   -0.9696078476   -0.5577097238    1.8888809936