22

 C    0.0095887033    1.4217999550   -0.0460005954
 N    0.1808729535   -0.0196615637    0.1062718322
 C    1.4985361398   -0.5817322088   -0.1644015064
 C    0.9622793226   -0.5511267687    1.2336361865
 C    1.5905254731    0.3985279213    2.2566588722
 O    2.5844137255    1.2777187659    1.7522180333
 C    0.3695305418   -1.8230556702    1.7880653439
 C    1.1025189173   -2.7317873529    2.7448859799
 C   -0.1145520408   -1.9717932947    3.2114117158
 H    0.8875205220    2.0154004046    0.2393029572
 H   -0.2296580078    1.6304194056   -1.0938967514
 H   -0.8446047931    1.7448027937    0.5587405692
 H    1.5162977303   -1.5174911268   -0.7194729217
 H    2.2986946001    0.1119458596   -0.4160023679
 H    0.8146729999    1.0484750579    2.6761381305
 H    1.9931192977   -0.1903497432    3.0923252638
 H    3.3300695438    0.7404666031    1.4657526509
 H   -0.2393920765   -2.3227610512    1.0415823846
 H    1.0198953640   -3.8022812163    2.5924546136
 H    2.0710578771   -2.4187115541    3.1213339308
 H    0.0365205958   -1.1525213923    3.9057605399
 H   -1.0353911294   -2.5195479638    3.3781491184