19

 O    0.0413734539    1.4405575227   -0.0077929983
 C    0.0300349837    0.0355525358    0.1595090794
 C   -1.3896937969   -0.5473429281    0.0358811000
 C   -2.1991054700    0.0717704074    1.0817991239
 C   -2.7769416673    0.6490432730    1.9673039081
 C   -2.0610689592   -0.6930966203   -1.3865581991
 C   -1.0955433152   -1.8786504675   -1.6746547627
 C   -1.5952915550   -2.0923171202   -0.2156036197
 C   -3.0163850195   -1.7478624165   -0.7531948290
 H   -0.5683348694    1.8053463169    0.6453295681
 H    0.6959484258   -0.3596767480   -0.6078559311
 H    0.4414536715   -0.2577839895    1.1383883945
 H   -3.3175897601    1.1310745091    2.7443224506
 H   -2.3238628118    0.1305466132   -2.0501997997
 H   -1.4591364078   -2.6085493274   -2.4014242462
 H   -0.0408795986   -1.6660225176   -1.8432827589
 H   -1.3235525701   -2.8927609778    0.4741594148
 H   -3.7481050202   -1.3871269437   -0.0301629561
 H   -3.4509853238   -2.4738387716   -1.4439602886