15

 O   -0.0353596554    1.3879164694   -0.0549893523
 C    0.0533724188   -0.0039227286    0.0004640373
 C    0.0988715299   -0.6264430839    1.4447497341
 O   -1.3498322514   -0.5293615744    1.5055808663
 C   -1.3659005861   -0.6268726791    0.0565257751
 C   -1.2874634091   -2.1124115369   -0.3263710251
 O   -1.9512876691   -2.6204927907   -1.2016892218
 C   -0.2483667510   -2.8211081001    0.4692772347
 C    0.4757136345   -2.0821972229    1.3245910831
 H    0.8540774432    1.7531817599   -0.0987279578
 H    0.7633598447   -0.4140766033   -0.7272929270
 H    0.5966122863   -0.0791311075    2.2475013600
 H   -2.1935253360   -0.0997991175   -0.4192713609
 H   -0.0983290487   -3.8808753373    0.2958621685
 H    1.3107480094   -2.4837478272    1.8898943756