25

 C   -0.1510639333    1.5695883019   -0.0042426334
 C   -0.0115700034    0.0516908119    0.0296692642
 C    1.0879921969   -0.5900037374   -0.8766646041
 C    2.0955818210   -0.2846366228    0.2665381384
 C    0.8598026789   -0.5842124658    1.1722394708
 C    0.7747257725   -0.1306482316    2.6115377673
 C    0.6440715615   -2.0879685347    0.8830700774
 C    0.8557670462   -2.1055909200   -0.6719874565
 C   -0.2827998146   -2.7219959006   -1.4828250106
 H    0.8052651685    2.0944481870    0.0712604229
 H   -0.6248380678    1.8881422159   -0.9394971154
 H   -0.7847500409    1.9209592705    0.8179223460
 H   -1.0110589731   -0.3882714327   -0.0682259125
 H    1.2560316421   -0.2464836338   -1.8996396655
 H    2.9669891477   -0.9412350945    0.3627454423
 H    2.4195878276    0.7559645539    0.3064024363
 H    0.9253365441    0.9501123826    2.7055999808
 H   -0.2035928729   -0.3700454293    3.0457289783
 H    1.5358081843   -0.6259761076    3.2260086833
 H    1.3619383066   -2.7197484373    1.4165085280
 H   -0.3626335208   -2.4153089930    1.1674784183
 H    1.7778657583   -2.6459653175   -0.9170100213
 H   -1.2366567900   -2.2151178563   -1.3030278935
 H   -0.0749502867   -2.6685448034   -2.5574415870
 H   -0.4198062227   -3.7777848953   -1.2242061545