24

 C   -0.2241222462    1.6444994083   -0.7978000819
 C    0.0539980069    0.2729945976   -0.1859397469
 N   -1.2018558105   -0.4294893514    0.0547641104
 C   -1.7254152384   -1.2817537849   -1.0055316409
 C   -1.2166675005   -1.8845321669    0.2617122417
 C    0.0160021751   -2.7623700877    0.3348019037
 C    0.7224885173   -3.1454710534   -0.9548831758
 C    0.8655165713   -2.6243067119    1.5850920794
 C   -0.0175194715   -3.8302689901    1.4106435354
 H    0.7071377981    2.2016004195   -0.9410643589
 H   -0.7123267120    1.5449128296   -1.7730213301
 H   -0.8848179829    2.2268160503   -0.1494415765
 H    0.7456624274   -0.2847892077   -0.8370963939
 H    0.5588647624    0.3924519919    0.7796531095
 H   -2.7932646119   -1.2132738625   -1.2007500224
 H   -1.1155608741   -1.4119891257   -1.8984540716
 H   -1.9668968583   -2.1620161210    1.0013720167
 H    1.1360222701   -2.2811081283   -1.4838382997
 H    1.5554555829   -3.8241617400   -0.7442426751
 H    0.0397592182   -3.6593490312   -1.6403890755
 H    1.9386559227   -2.7515024612    1.4876051085
 H    0.5705402943   -1.8821037417    2.3187692347
 H   -0.9056922210   -3.9055481965    2.0292666884
 H    0.4503657906   -4.7835076554    1.1891149508