15

 O   -0.0698776286   -0.0693094438    0.0115234693
 C   -0.0116408179    1.1380749532    0.0255704230
 C    1.2176255021    1.8916530424    0.0182534853
 C    2.2317915090    2.5464104545    0.0213389562
 C    3.4652682920    3.3168177960   -0.0007206420
 N    3.2087478731    4.7555178433    0.0828340120
 C    4.4363301937    5.5348904025   -0.0372138966
 C    4.1486529105    6.9702317815   -0.0021801009
 N    3.9228847743    8.1026045497    0.0011793274
 H   -0.9256593063    1.7649584565    0.0458708915
 H    4.0833260119    3.0260941211    0.8604199905
 H    4.0429289475    3.0256502159   -0.8993685533
 H    2.5505959470    5.0297886006   -0.6391623041
 H    5.0921146993    5.2924203357    0.8087865074
 H    5.0178620924    5.3252208508   -0.9540094259