23

 C    2.6845239834    0.1435243525   -0.4094802308
 C    1.3264142333   -0.5084376307   -0.2687734109
 C    1.1541056821   -1.7546249167    0.5598315903
 C    0.5481242171   -0.4494851430    1.0310995317
 C    1.0669123907    0.3248368161    2.2253893174
 C    0.2710750222    0.3196835049    3.5726690744
 C    0.7952376989   -1.1239040587    3.8229709369
 C    2.0169956277   -0.3125105364    3.2969302952
 C    1.5716291795    0.8294455798    4.2541450806
 H    3.2741634353    0.0479894674    0.5073133614
 H    3.2583623675   -0.3193034693   -1.2199947071
 H    2.5963453150    1.2125443304   -0.6354479504
 H    0.7195355364   -0.4573271342   -1.1695315108
 H    0.4944591904   -2.5401602479    0.2063178033
 H    2.0268360554   -2.1182238987    1.0937232385
 H   -0.5297142158   -0.3708799959    0.9039039980
 H    1.3741767749    1.3336917553    1.9228145552
 H   -0.7441549540    0.6905540010    3.7287298072
 H    0.8438728640   -1.4468392568    4.8669419873
 H    0.4058975995   -1.9137416104    3.1803710175
 H    3.0351076044   -0.6767760764    3.1441955238
 H    1.8984204583    1.8421680568    4.0004854009
 H    1.6702220740    0.6315095609    5.3248185305