23

 C   -0.7897088138    1.7119525984    0.1124779056
 C   -0.0467260196    0.3757193006    0.0152168286
 C   -1.0547012152   -0.7844729940    0.0408350584
 O   -1.9235546164   -0.6755278611   -1.0788711839
 C    0.8278110074    0.2580082592   -1.2697213915
 C    2.0108726949   -0.6338051055   -0.8958546385
 C    3.1621249106    0.0119854811   -0.1681104392
 C    2.0905288855   -0.6989103857    0.6183277617
 C    0.9558664225    0.1525582652    1.1858917591
 H   -0.0873723366    2.5515286222    0.0750413223
 H   -1.5043623839    1.8221899707   -0.7072238966
 H   -1.3478012970    1.7846769187    1.0534785844
 H   -0.5077835407   -1.7403625637    0.0231536614
 H   -1.6250291233   -0.7438718186    0.9832993410
 H   -2.5100796817   -1.4368708156   -1.0811150744
 H    0.2387626978   -0.1594808693   -2.0895530398
 H    1.1648814061    1.2496080411   -1.5942869279
 H    2.2187056204   -1.5088711481   -1.5015556592
 H    4.1361222614   -0.4615646091   -0.2377916127
 H    3.1991077792    1.0976833591   -0.1237137653
 H    2.3568328494   -1.6195739896    1.1255347861
 H    1.3261422973    1.1158092334    1.5566309894
 H    0.4690340755   -0.3386564094    2.0361541508