19

 C    0.0012987494    1.5315164508   -0.2239511745
 C    1.5479996467    1.5256582790    0.0999064784
 C    1.2496449192    0.2730834087    0.9206600523
 O    1.8662932312   -1.0307106068    1.0957399729
 C    0.7415828157   -1.2373469707    1.9726555387
 C   -0.7001821049   -0.7916887151    1.2578017021
 C   -0.8332939318    0.2325265918    2.4062427996
 C    0.7015429988    0.2318695597    2.4046496107
 C   -0.0253858372    0.0019771266    0.1377527957
 H   -0.5583758548    2.1702435280    0.4611517289
 H   -0.2778961394    1.7846442450   -1.2475364644
 H    2.1384355674    1.3019862078   -0.7928451435
 H    1.9795797321    2.3881647462    0.6132698540
 H    0.7972519133   -2.1199112812    2.6070729683
 H   -1.4874390637   -1.5100870043    1.0355179058
 H   -1.3844047615    1.1549870478    2.2099086002
 H   -1.2120390352   -0.2221193467    3.3268341479
 H    1.3396491436    0.6402382513    3.1875077404
 H    0.1865552812   -0.5988296079   -0.7490598835