23

 C    0.0336484968    1.5053363017   -0.0050920105
 C   -0.0323041697   -0.0270066656   -0.0173676354
 C   -1.4889175218   -0.5535417293    0.0610000498
 C   -1.6856302371   -0.9723734280    1.5300121787
 C   -0.3232842414   -1.5755662498    1.9100910766
 C    0.7002219281   -0.6442480641    1.2316556884
 C    1.9655160580   -1.2960637192    0.6341698540
 O    2.1263176532   -0.7373745060   -0.6641347043
 C    0.8135574603   -0.5899652399   -1.1817778589
 H    1.0751453579    1.8434490068   -0.0044819268
 H   -0.4611275782    1.9303255150   -0.8858431202
 H   -0.4552415804    1.9177431641    0.8845370019
 H   -2.2203898677    0.1902256865   -0.2693087233
 H   -1.6101732701   -1.4301896540   -0.5870668738
 H   -1.8902432690   -0.0900007539    2.1492872577
 H   -2.5208579131   -1.6650916309    1.6722570841
 H   -0.1756417947   -1.6607309296    2.9907715660
 H   -0.2409328126   -2.5882546530    1.4938659302
 H    0.9834673381    0.1580619256    1.9198508602
 H    2.8811416270   -1.0949465557    1.1963767049
 H    1.8376700757   -2.3899459580    0.5653740536
 H    0.4177281481   -1.5655756036   -1.5135161102
 H    0.8704786125    0.0722561510   -2.0505435426