14

 O   -0.9302394456    0.0556666274    0.0139856420
 C    0.2517270346   -0.5588536881   -0.3910771187
 C    1.1878714775    0.4496177597   -1.0549216557
 O    0.8340356882    1.5906128687   -1.2112842001
 C    1.0135816049   -1.2447315452    0.7593051646
 O    1.9840026685   -1.9160912777    0.5323370381
 C    0.4493338409   -0.9841638908    2.1585385547
 C    1.2212881577   -1.6246504262    3.2140700189
 N    1.8210892901   -2.1244638401    4.0642267950
 H   -0.8714283107    0.9742904181   -0.3003351017
 H    0.0715251980   -1.3539879694   -1.1349201146
 H    2.1760120020    0.0688535811   -1.3661419058
 H    0.3991109025    0.0992338055    2.3198330282
 H   -0.5939789987   -1.3188308030    2.1824280549