21

 C   -0.0324520871    1.4688229868    0.4197786849
 C   -0.0188366138    0.0344600961    0.1680834732
 C    0.0008846339   -1.1504567486   -0.0449193390
 C    0.0030773444   -2.5921654899   -0.3005547187
 C   -1.3616118251   -3.2235222920   -0.1740824724
 C   -1.9983514176   -3.9295835534   -1.1088096438
 C   -3.3179307645   -4.4779492915   -0.6222543297
 C   -3.5476980560   -3.7044967723    0.7035113553
 C   -2.1529604218   -3.1717888382    1.1161942989
 H    0.6720062623    1.9943296854   -0.2346937630
 H   -1.0262276736    1.8954494372    0.2435228118
 H    0.2461048904    1.6969172217    1.4547167139
 H    0.4070846015   -2.7918611471   -1.3005532354
 H    0.6934242552   -3.0755168628    0.4080192860
 H   -1.6092288108   -4.1305926362   -2.1019692943
 H   -4.1336732530   -4.3302184882   -1.3393636236
 H   -3.2505659557   -5.5632300194   -0.4573515044
 H   -4.2171033165   -2.8589334347    0.5168109385
 H   -4.0139177871   -4.3189605870    1.4777990731
 H   -1.6775514815   -3.8080133467    1.8778267401
 H   -2.1917227436   -2.1631534392    1.5408592583