17

 O    0.1212577802    1.4228367701    0.0013326031
 C    0.0682468011    0.0185835244   -0.0231340454
 C   -1.3849265923   -0.5229645285   -0.0229768248
 C   -1.4211915950   -2.0598479734   -0.1329497774
 C   -2.8548949360   -2.6226180442   -0.1898982579
 C   -2.8640872180   -4.0760240668   -0.3360701666
 N   -2.8483207461   -5.2250760136   -0.4547586479
 C   -2.0712560722   -0.0503967999    1.1832140899
 N   -2.5775974161    0.3330553374    2.1495803370
 H   -0.1744560256    1.7255481681    0.8675079781
 H    0.5481949296   -0.2960338995   -0.9547939970
 H    0.6219286636   -0.4357237523    0.8116901910
 H   -1.8976245151   -0.0785591099   -0.8853566964
 H   -0.8792552166   -2.3503902303   -1.0382135366
 H   -0.8909883923   -2.5033916944    0.7155880869
 H   -3.4042028723   -2.3559081769    0.7199507970
 H   -3.4040441969   -2.1842562703   -1.0314909928