16

 C   -0.0495733556    1.4743999900   -0.0103061314
 C    0.0994387275   -0.0228405734    0.1032812102
 O    0.6390858340   -0.5609563409   -1.0910096457
 C    1.2658441436   -1.7783804752   -0.7418231080
 C    1.5313347052   -1.6314464834    0.7988357554
 O    1.0373926125   -0.3542703637    1.1145827035
 C    0.8389680048   -2.7468576111    1.5696334098
 O   -0.1523023948   -2.6083621885    2.2336348119
 H    0.9211270186    1.9251056768   -0.2297184128
 H   -0.7504233143    1.7180541928   -0.8123687522
 H   -0.4333017787    1.8803885591    0.9286026768
 H   -0.8625652398   -0.5133948598    0.3298376541
 H    0.6167896336   -2.6397313217   -0.9582857616
 H    2.1864759282   -1.8805502304   -1.3213802838
 H    2.6034088724   -1.6663680900    1.0289073245
 H    1.3291910929   -3.7427955906    1.4466367294