14

 N   -0.0476442708    1.3589318748   -0.4985058996
 C   -0.0690014156    0.3282921110    0.3947941906
 O    0.8500081883    0.0932399931    1.1530576354
 C   -1.3492700372   -0.4739951737    0.3771733209
 N   -1.2056483770   -1.9291682516    0.4436705841
 C   -1.8038420401   -1.2409118778    1.5909501972
 C   -1.0216252744   -1.2837341827    2.8727366923
 O   -1.5277314485   -1.0079797474    3.9320946728
 H    0.7974521708    1.9023268380   -0.5692406621
 H   -0.7570943722    1.4840092624   -1.1986406109
 H   -2.1517818087   -0.0729573135   -0.2404972090
 H   -1.9192472343   -2.3820730872   -0.1207111326
 H   -2.8811739802   -1.2764762410    1.7408590267
 H    0.0266490598   -1.6084174844    2.7650921542