17

 C    0.0232719302    1.5023231764   -0.0977568240
 N    0.0107389660    0.0438970788    0.0532357498
 C   -1.1428476724   -0.5916449915    0.8150789613
 C   -0.2018268780   -1.8058108430    1.0145029065
 C    0.7078779583   -0.5705877732    1.2771531473
 C    2.1858656856   -0.4961098037    1.5027912207
 C   -0.4867465677    0.0272079540    2.0737898021
 O   -0.7153059881    0.7692404641    2.9789277518
 H    1.0111667047    1.8037609537   -0.4588015428
 H   -0.7092186897    1.7743073404   -0.8636657150
 H   -0.2030398200    2.0678311616    0.8187755626
 H   -2.1638101738   -0.5652388402    0.4396233782
 H   -0.4043721800   -2.4726417208    1.8539818483
 H    0.0347205654   -2.3270125007    0.0854673226
 H    2.7334755805   -0.9388049011    0.6652115548
 H    2.5120881404    0.5419594250    1.6220517039
 H    2.4548709486   -1.0363484897    2.4155432620