18

 O    0.1510022715    1.4966695724    0.0765162138
 C    0.1444681714    0.1104378462    0.0504003287
 C   -0.1109527279   -0.6454967477    1.3942462846
 O   -1.5061260684   -0.1347345547    1.3428646272
 C   -1.2273856951   -0.6176702236   -0.0404102749
 C   -0.6157157471   -1.8907858160    0.5948157664
 N    0.2124305714   -2.7781028654   -0.1846117495
 C    1.6654511883   -2.7670670809   -0.0201338266
 C    0.8499640132   -3.8883262560    0.5157810357
 H   -0.5874509454    1.7418675347    0.6529576815
 H    0.9504318619   -0.2313516953   -0.5985029585
 H    0.4046237962   -0.5671830113    2.3527064415
 H   -2.0274865045   -0.5214037865   -0.7745876444
 H   -1.3691833325   -2.4512860409    1.1513226338
 H    2.2422663731   -2.8856082972   -0.9331563908
 H    2.0991415334   -2.0820902594    0.7052858667
 H    0.7365238310   -3.9432566045    1.5973544862
 H    0.8186696195   -4.8464329739    0.0046373385