18

 C    0.0417542642    1.0907003216   -0.2230460974
 O   -0.1495301932   -0.3045193922   -0.3065798461
 C   -1.3823156428   -0.7141847172    0.1916353371
 C   -1.4995756524   -2.2317137125    0.1353664559
 O   -0.5717555629   -2.9659036331   -0.0772490609
 C   -2.9212889999   -2.7654054395    0.3568311412
 O   -2.9478092817   -4.1007108361    0.7966822115
 C   -2.6322383948   -5.0539088833   -0.1150320701
 N   -2.5895549427   -6.2597279269    0.2454061931
 H    1.0309537436    1.3034942252   -0.6331595548
 H   -0.7131580637    1.6424077853   -0.8048675432
 H    0.0019498581    1.4450168953    0.8186423446
 H   -1.5246446767   -0.4145329955    1.2484327314
 H   -2.2283253689   -0.2662641413   -0.3645009521
 H   -3.4389522888   -2.1752549223    1.1193625740
 H   -3.4784068367   -2.6325945490   -0.5851950850
 H   -2.4597767887   -4.6583220729   -1.1226727138
 H   -2.3614973019   -6.8519333658   -0.5501575853