18

 C   -0.2837330911    1.5476289334    0.7594491326
 C   -0.0372787996    0.1878424322    0.0779727704
 C    0.8970818011   -0.7051579182    0.9138154087
 O    2.1397564495   -0.0318559215    1.0204061593
 C   -1.2870690771   -0.5185247254   -0.1941720576
 C   -2.3176633351   -1.1063128540   -0.3924693363
 C   -3.5692094722   -1.8161984150   -0.6461729457
 C   -3.7371987694   -3.0043744748    0.2021945457
 N   -3.8789328811   -3.9401203506    0.8635122522
 H    0.6728650656    2.0326856482    0.9621245747
 H   -0.8867295692    2.1987627390    0.1216476338
 H   -0.8153046073    1.4112232351    1.7064560513
 H    0.4766585909    0.3676367874   -0.8761465948
 H    0.4418107962   -0.8802279990    1.9006080813
 H    1.0069475494   -1.6802436004    0.4177686813
 H    2.7149438237   -0.5467477441    1.5932194781
 H   -4.4297689032   -1.1551586579   -0.4799724541
 H   -3.6283388811   -2.1357126244   -1.6947852611