18

 O   -0.0483976505    1.4252061616    0.0349241870
 C    0.0008759111    0.0095188650   -0.0139784702
 C    0.6046406027   -0.6452158463    1.3048916782
 C   -0.6704253666   -1.3429829390    1.7343341580
 C   -1.5512273803   -2.2192944452    2.6407423929
 N   -2.5487917626   -1.8665282089    1.5222915175
 C   -1.9073592142   -0.4583331040    1.4354944128
 C   -1.4605768500   -0.5137836244   -0.0298185840
 C   -1.3876487479   -1.9486121255    0.5020433815
 H    0.8518499841    1.7615443190   -0.0113149228
 H    0.5536944080   -0.3270607222   -0.9030246456
 H    1.4366137792   -1.3232087594    1.0920017782
 H    0.9451660198    0.1385308083    1.9875179591
 H   -1.3259587787   -3.2889150578    2.7022995477
 H   -1.8395634902   -1.8261331362    3.6208162434
 H   -2.2890566048    0.3740542382    2.0265216932
 H   -2.0822169418   -0.2012347417   -0.8690640757
 H   -1.1526448874   -2.8842555416   -0.0088145611