17

 N   -0.0113567348   -1.2284451822   -0.0255031185
 C    0.0100395394   -0.0768345098    0.0669874419
 C    0.0139993106    1.3853337689    0.1747956147
 O    0.0280327560    1.8374113953    1.5401032327
 C    1.3023907283    2.4990116830    1.3730275192
 C    1.3577627029    2.1312546527   -0.1260953308
 C    2.5334803907    1.3650027039   -0.6790357196
 C    3.9064188707    1.6382204764   -0.1778769539
 N    3.2585169753    0.3471809689    0.0869248552
 H   -0.8556176242    1.7726009223   -0.3691307948
 H    1.2395298262    3.5672757654    1.6019047669
 H    2.0746695761    2.0448882894    2.0064255817
 H    1.1694950224    2.9950232888   -0.7687259702
 H    2.4185239739    1.0992983492   -1.7284878944
 H    4.7536687788    1.5990209620   -0.8561130109
 H    4.0160569248    2.3505933336    0.6371076982
 H    2.9255499029    0.2890971122    1.0461885524