16

 O   -0.0984666159   -0.0558939844   -0.4473109197
 C   -0.0504235950    1.0765905035   -0.0371358826
 C    1.2127597444    1.9025451468    0.0028409443
 C    1.2231277906    3.2485527756   -0.8241433167
 C    1.4799078452    4.0217791856    0.4718571510
 N    0.3717397872    3.7482143905    1.3686330025
 C    1.4489865630    2.7344050048    1.2782337858
 C    2.2963715481    2.4598366011    2.4462507761
 O    2.3432225075    3.1898481573    3.4125543904
 H   -0.9527404616    1.6000182647    0.3423432047
 H    2.0655313957    1.2688524430   -0.2489677596
 H    2.0530757959    3.2766907231   -1.5306710806
 H    0.2939568411    3.5138681147   -1.3341858985
 H    2.1340290215    4.8711590401    0.6265667494
 H    0.5420517767    4.2427458735    2.2471156057
 H    2.9170741755    1.5419891801    2.3777770579