23

 C   -0.0087270786    1.5247147266   -0.1650422766
 C    0.0259711495    0.0164496764    0.0982870778
 O    0.6983516074   -0.2696600742    1.3275208343
 C   -1.3618150176   -0.5900621580    0.0600536599
 C   -1.9175466293   -1.2266820934   -1.2046698376
 O   -1.1025652354   -1.3543152198   -2.3364098854
 C   -1.5940858378   -2.0950123999   -0.0188920800
 C   -0.4044101769   -3.0359086264   -0.0922053229
 C   -2.7660680892   -2.6418771120    0.7759189978
 H    0.9997287534    1.9432823171   -0.1097017361
 H   -0.4248152530    1.7446088529   -1.1546752200
 H   -0.6337961271    2.0365647261    0.5773255484
 H    0.6475971030   -0.4575156397   -0.6657395472
 H    0.1403880516    0.0520516511    2.0441012646
 H   -2.0890842279   -0.0377284353    0.6568194321
 H   -2.9711182583   -1.0581432757   -1.4314913501
 H   -1.0674523046   -0.4994642194   -2.7783754743
 H    0.3242094997   -2.7165254903   -0.8375949451
 H    0.0991465232   -3.0970908877    0.8770911272
 H   -0.7387506381   -4.0416205603   -0.3707084560
 H   -3.1259306764   -3.5847394165    0.3477129775
 H   -2.4747600032   -2.8378899969    1.8146511635
 H   -3.6068359343   -1.9404730146    0.7940397582