17

 C   -0.0444386211    1.3971853794   -0.1202268163
 N   -0.0180565414   -0.0442310399   -0.0834083123
 C   -1.2277632405   -0.8417849187    0.0178660662
 C   -0.7269227290   -2.2815330866   -0.0208584469
 C    0.0685698932   -2.6858853668   -1.2259941075
 C    0.7832857485   -2.2193299317    0.0268194716
 C    1.1527231126   -0.7605462453    0.0393033074
 O    2.2646733666   -0.2819806004    0.1331286880
 H    0.9903566182    1.7440316057   -0.1350569393
 H   -0.5652453538    1.7646979344   -1.0130662817
 H   -0.5470275074    1.8109360129    0.7644005285
 H   -1.7579186332   -0.6311159521    0.9591175179
 H   -1.9195702529   -0.6149218801   -0.8052124876
 H   -1.2826914284   -3.0315085818    0.5272045067
 H    0.1267109846   -3.7448904148   -1.4515740414
 H    0.0769013217   -2.0367225460   -2.0962637683
 H    1.4086064424   -2.9025415481    0.5851571551