19

 O   -0.0648386712    1.4601517717   -0.3127786059
 C    0.0281452944    0.1044149158    0.1100899604
 C   -1.3614740638   -0.4929632458    0.0425209925
 C   -1.9673606030   -0.8494761818   -1.3335272214
 C   -1.1782459201   -2.1993629843   -1.4389483569
 C   -2.4468345762   -3.0329237948   -1.7210205095
 C   -2.8769534703   -1.9693235443   -0.6923816767
 O   -4.0895880213   -1.8055239501   -0.0517085970
 C   -1.5260211099   -2.0299468718    0.0833266901
 H    0.8080289024    1.8571821309   -0.2416329333
 H    0.7222351570   -0.4632098100   -0.5297834951
 H    0.4075067547    0.0363277391    1.1432355093
 H   -2.0392393358    0.0570052653    0.7036088295
 H   -2.2305705643   -0.1931909312   -2.1644325597
 H   -0.1856563770   -2.3306204595   -1.8613837459
 H   -2.8711860009   -2.9535393757   -2.7280598133
 H   -2.4402629995   -4.0734472950   -1.3806169771
 H   -4.7524196865   -1.5660932485   -0.7084950017
 H   -1.2829618687   -2.7367614699    0.8789526517