21

 C    0.0229751125    1.4751376269   -0.0619503918
 C   -0.1648974757   -0.0055614769   -0.3412699469
 O    1.0641052143   -0.5261466443   -0.8255744100
 C    1.0116830144   -1.8796066442   -1.1262252081
 C    0.5446592065   -2.3958887630   -2.4704913597
 C    0.4745460417   -1.4161852349   -3.6291263521
 O    1.7060017991   -0.7090790244   -3.6553759800
 C    2.7169309150   -1.4767763048   -3.0144822168
 C    2.0154569364   -2.4474355920   -2.0792024071
 H    0.8094042416    1.6278167328    0.6826610255
 H    0.3101893708    2.0017134918   -0.9762188044
 H   -0.9052931215    1.9126578496    0.3175008973
 H   -0.4616889995   -0.5407466610    0.5763506688
 H   -0.9630159136   -0.1671388055   -1.0816738202
 H    0.7526102902   -2.5115083465   -0.2731053741
 H   -0.0713434222   -3.2872465934   -2.5142868402
 H    0.3113267706   -1.9745530789   -4.5660094961
 H   -0.3242607234   -0.6709554298   -3.5399510007
 H    3.3129286844   -2.0437869078   -3.7477714691
 H    3.3801046621   -0.7736379166   -2.4999214575
 H    2.5199723664   -3.3745766372   -1.8325762069