16

 N   -0.0188327105    1.2742594781    0.3702679267
 C   -0.0007021143    0.0548193685    0.0150458352
 O    1.1746902755   -0.6149702973   -0.1959853033
 C    1.1178776267   -1.8056998526   -0.9827584617
 C    0.0597368290   -2.7907266072   -0.4525589777
 C   -1.2455388172   -2.0374032119   -0.2915939199
 C   -1.2437991406   -0.7162583804   -0.1080263415
 C   -0.0591334188   -3.9403852191   -1.3433693234
 C   -0.1465347782   -4.8739280969   -2.0946246147
 H    0.9360303438    1.6361499330    0.4202558045
 H    0.8843666843   -1.5551767604   -2.0247909633
 H    2.1182376458   -2.2390747930   -0.9406331785
 H    0.3840760152   -3.1475286597    0.5372285749
 H   -2.1684898773   -2.6061163443   -0.3254646239
 H   -2.1545137906   -0.1438813448    0.0176983599
 H   -0.2270459929   -5.7059120720   -2.7500042133