16

 C    0.2560372617    1.6236208234   -0.0671967332
 C    0.0568252082    0.1139330755   -0.0011176065
 C    0.5185037590   -0.7743007164   -1.2053394439
 C    1.2772336037   -1.6814643747   -0.2234413566
 C    1.3087411877   -3.1496999627   -0.1094984593
 O    2.4660582630   -2.4006156251   -0.4711024641
 C    1.0418764738   -0.6751802341    0.8963788994
 O    1.4905453718   -0.5085538051    1.9924076943
 H    1.2790729312    1.8725790786   -0.3673429552
 H   -0.4294921162    2.0810254998   -0.7870868247
 H    0.0765649912    2.0750376970    0.9129605925
 H   -0.9720957244   -0.1234321571    0.2949117719
 H   -0.2683633059   -1.2470596238   -1.7949142014
 H    1.2014368405   -0.2435063186   -1.8744066697
 H    1.3383143951   -3.6098745672    0.8767465955
 H    0.8641660897   -3.7453805996   -0.9057522891