21

 C   -0.1356119131    1.3133648400    0.0300997735
 O    0.2586956326   -0.0365255462    0.1378472083
 C    0.7430696566   -0.5895997890   -1.0630672276
 C    1.4315039194   -1.9319785024   -0.8821470794
 C    0.4344838055   -2.9491405500   -0.3610301470
 C    0.3898160175   -2.5926665842   -1.8048513752
 O    0.5256448130   -3.5939639823   -2.7480490888
 C   -0.3094583985   -1.2519956074   -2.0522614155
 C   -1.8029491188   -1.1363457310   -1.7713690193
 H    0.6992959971    1.9517160256   -0.2996258693
 H   -0.9714991324    1.4531013369   -0.6700441785
 H   -0.4547659820    1.6378809691    1.0237144935
 H    1.3746452386    0.1444750181   -1.5828356650
 H    2.4999181119   -2.0861150242   -0.7964583327
 H    0.8660857826   -3.9273486569   -0.1755477582
 H   -0.3432114086   -2.6553086075    0.3365524005
 H    0.8922806422   -3.2038376471   -3.5497417722
 H   -0.0931549771   -0.9129075201   -3.0735555212
 H   -2.0214723065   -1.2921457867   -0.7118516347
 H   -2.1897543266   -0.1506925475   -2.0502624855
 H   -2.3582244533   -1.8848660772   -2.3468254056