19

 C    0.0475511206    1.2829447153    0.2210579859
 O    0.0158218595   -0.0658875700   -0.2047479327
 C   -1.2459595755   -0.6611865115   -0.0680267478
 C   -1.4001706391   -2.0769448362   -0.5874573331
 C   -0.9911979643   -3.0293670026    0.5411169261
 C   -0.5416668902   -2.1700247030    1.7246163749
 C   -1.6878174176   -1.2125797018    1.3128670265
 O   -2.2666486551   -0.3124675240    2.1900813788
 C   -2.3710230040   -2.4256633142    0.5225063849
 H    1.0613374645    1.6527101577    0.0490925564
 H   -0.6587127770    1.9017167113   -0.3542963190
 H   -0.1983239677    1.3836830865    1.2863268271
 H   -2.0363887342   -0.0072085317   -0.4680250255
 H   -1.4350045495   -2.3963802481   -1.6200321770
 H   -0.7169008997   -4.0537886647    0.3282107969
 H   -0.7638481219   -2.6668288213    2.6757877790
 H    0.4721948572   -1.7591114039    1.7311754182
 H   -2.4027547237   -0.7512101724    3.0367914501
 H   -3.3656201723   -2.8439385354    0.4911534405