18

 C    0.0173060488    1.5713936502   -0.2900351871
 C   -0.0079369247    0.1114609792    0.1753064983
 C   -1.4001086815   -0.5133625940    0.0801936125
 C   -1.8653150640   -1.1528599302   -1.2024158353
 C   -1.6105218405   -2.0429501713   -0.0054033315
 C   -0.4534880295   -2.9767868338   -0.0071560677
 O   -0.4500639857   -4.0309849890    0.5754840681
 C   -2.4077090213    0.1667757052    0.8615717860
 N   -3.2013574133    0.7223034381    1.4938903014
 H    1.0280054101    1.9797744756   -0.2053485234
 H   -0.2971414165    1.6597953945   -1.3348988374
 H   -0.6497349921    2.1915869134    0.3156422800
 H    0.6855813322   -0.4779154403   -0.4311441427
 H    0.3426914504    0.0414915745    1.2109403618
 H   -2.8929070672   -1.0198322407   -1.5171091187
 H   -1.1394327389   -1.1837209353   -2.0091851377
 H   -2.4729485862   -2.4278857117    0.5265095430
 H    0.4213898000   -2.6527791344   -0.6132405395