13

 C   -0.0450018400    1.5257577857    0.0962570077
 O    1.2232548381    1.9332857746   -0.4515372065
 C    2.1289643536    0.8344022613   -0.6260151729
 C    1.2729448201   -0.3726618939   -0.4017842043
 N    1.4126623787   -1.6652098383   -0.4914189662
 O    0.1596696327   -2.1641263014   -0.1055073272
 C   -0.6658940842   -1.1364886244    0.1964668847
 C   -0.0116961260    0.0345649802    0.0255803136
 H   -0.1442731851    1.8974196686    1.1263806194
 H   -0.8396412556    1.9827857248   -0.5049005602
 H    2.5568820206    0.8838840490   -1.6334046007
 H    2.9523043882    0.8936389486    0.0998537637
 H   -1.6598082210   -1.4200994347    0.5046644989