16

 O   -0.0528854804   -0.0490882283    0.3365457446
 C   -0.0025890466    1.1181385406    0.0383344562
 C   -1.3049873159    1.8990833751   -0.2656429924
 N   -1.2053367730    3.3509285470   -0.4460227147
 C   -0.0833899118    3.6926314349   -0.8884049051
 O    0.4544396247    4.9433851870   -1.0322847064
 C    1.8045542991    4.3619308054   -1.0944163441
 C    1.1948488352    2.9393166865   -1.1378875310
 C    1.3314095931    1.8805404012   -0.0475461358
 H   -1.7550330938    1.4261687875   -1.1498789734
 H   -1.9952850323    1.6906853601    0.5582185586
 H    2.3382327051    4.6992830935   -1.9844780189
 H    2.3647646013    4.6082647862   -0.1885045995
 H    1.2517237644    2.4972458388   -2.1364573229
 H    1.4887631560    2.3656693295    0.9255623877
 H    2.1380464849    1.1605750852   -0.1979204829