18

 O    0.0562474221   -0.1662632915   -0.1578820582
 C    0.0593337817    1.0398492720   -0.1384499939
 C    1.2988269416    1.8717622080   -0.0965837809
 C    1.7288341687    2.9499626534    0.9406160662
 N    2.9031435814    2.9793820218   -0.0587103001
 C    2.7780320058    1.4364912607   -0.0443826957
 C    1.8094969562    2.9158483950   -1.1115158909
 C    1.9980334837    2.9529866369   -2.5799632820
 C    1.2318242825    4.0636702443   -1.8497186788
 H   -0.8935839799    1.6192822678   -0.1529099419
 H    1.1647109359    3.8835809822    0.9789495671
 H    2.0128227338    2.5974265657    1.9352357656
 H    3.1408373674    0.9834052835    0.8807093996
 H    3.2000406311    0.9576041560   -0.9287862604
 H    2.9866272831    3.1948329829   -2.9563496440
 H    1.4306742392    2.2688905164   -3.2027867486
 H    0.1575956552    4.1189997544   -1.9940811996
 H    1.7245035405    5.0255129803   -1.7505405935