19

 C   -0.1371690077    1.4908530028    0.0715599753
 C   -0.0414539483   -0.0344406467   -0.1247956799
 C   -1.3737384846   -0.5758202916   -0.4217942512
 N   -2.4161596237   -0.9926524470   -0.6985018486
 C    0.9520393766   -0.4764245698   -1.2449088792
 C    2.3529510911    0.1156633715   -1.0517043032
 C    1.0516695296   -2.0107677311   -1.2125385158
 N    0.4057731425   -2.6672692026   -2.2196572022
 O    1.6859648927   -2.5833124780   -0.3472831725
 H    0.8146984806    1.8909024041    0.4250750771
 H   -0.4019394777    1.9909330923   -0.8647775348
 H   -0.9033245803    1.7307120917    0.8128316619
 H    0.3009137558   -0.4978179920    0.8085849778
 H    0.5440836198   -0.1473040444   -2.2077511789
 H    2.3405209357    1.2067590043   -1.0964359944
 H    2.7689291315   -0.2046476719   -0.0933717067
 H    3.0220116542   -0.2432731522   -1.8388831310
 H   -0.3133547645   -2.2026148197   -2.7496790021
 H    0.3257424369   -3.6687527996   -2.1240103016