20

 C    2.1245743103    2.9770494530   -1.9345163239
 C    1.0754641730    1.8858385420   -1.8405757020
 O    1.6012458747    0.7213220857   -2.5024867302
 C    0.7943162969   -0.3474568878   -2.5630078522
 N   -0.3682621641   -0.3444119782   -2.0467590413
 C    1.4085346405   -1.5103251397   -3.2841947772
 O    2.5052594047   -1.2921834022   -4.1657387487
 C    2.7490249742   -2.0739933084   -2.9978607982
 C    3.7114417763   -1.5381329036   -1.9713654773
 H    3.0506332853    2.6781985247   -1.4347821199
 H    2.3562148636    3.2061867461   -2.9783286538
 H    1.7541361592    3.8876214765   -1.4541626712
 H    0.8355621233    1.6293593272   -0.8034419480
 H    0.1374180353    2.1724941255   -2.3264098339
 H   -0.8350244883   -1.2352291645   -2.2079424315
 H    0.6521735130   -2.1984723501   -3.6648706218
 H    2.8536907567   -3.1412871095   -3.2084166778
 H    3.5450739748   -0.4762145902   -1.7939445037
 H    3.5979234462   -2.0843929985   -1.0287429260
 H    4.7403381244   -1.6813722580   -2.3178164612