16

 C    0.3257800557    1.5234962880    0.2332179724
 O    1.1766280722    0.4577459031   -0.1842586001
 C   -0.2046761430    0.1628562728    0.0651756631
 C   -0.4975762348   -0.6804416906    1.2390739616
 C   -0.2234340351   -2.1742998988    1.5776077289
 C   -1.3550329282   -2.1251667870    2.6136638551
 C    0.0497466241   -1.7315437490    2.9890187908
 N   -0.1987072792   -0.2599430644    2.6537992084
 C   -1.5988829177   -0.6417742390    2.2451835297
 H    0.5019140205    1.8885300187    1.2422026989
 H    0.1084343332    2.2757219461   -0.5238415962
 H   -0.7744394441   -0.0679446872   -0.8360826792
 H    0.1544985197   -3.0099430186    1.0070278879
 H   -1.9933984129   -2.9190920113    2.9724920498
 H    0.7364101420   -2.0827760258    3.7480165368
 H   -2.4383412924    0.0334390230    2.3627151922