13

 N    0.0523651354    1.2134510775    0.2755188742
 C   -0.0542097502    0.0040723953   -0.0469524899
 O   -1.0748465340   -0.7302754299    0.4967463828
 C   -1.1133334299   -2.0532301226    0.2401436558
 C   -2.1547875599   -2.8670987803   -0.0618007157
 C   -1.5928415609   -4.1877795445   -0.1281433268
 C   -0.2686169263   -4.0618879041    0.1315142628
 O    0.0438032715   -2.7478465662    0.3695383853
 H    0.8380310183    1.6371426235   -0.2138546102
 H    0.5732682243   -0.5752290331   -0.7296094445
 H   -3.1766335778   -2.5645900259   -0.2171148789
 H   -2.1168685129   -5.1048846001   -0.3464715209
 H    0.5576060527   -4.7498020595    0.1836009058