19

 C   -0.3758890085    1.3537484813    0.0486694456
 C   -0.1280042703   -0.1258976321    0.0501468413
 C   -0.9101012262   -1.1232722496   -0.8116654896
 C   -0.9660565296   -2.0246248351    0.4457077304
 N   -0.2435880858   -1.0042776208    1.2854794782
 C    1.0874597049   -0.7812989685    0.6360660161
 C    1.9136907306   -1.8736235223   -0.0254725368
 C    1.9109953467    0.0756363567    1.4705754254
 N    2.6063704790    0.7489238262    2.1029536210
 H   -0.0326527838    1.7948945631   -0.8943933629
 H   -1.4462573912    1.5614472482    0.1479047845
 H    0.1497398226    1.8496802383    0.8674474486
 H   -1.8892998614   -0.7331871672   -1.0958201252
 H   -0.4167255033   -1.5045521692   -1.7097648490
 H   -1.9721645875   -2.1553511070    0.8469465607
 H   -0.4781487938   -3.0015772257    0.4015121894
 H    1.3495317409   -2.4354787874   -0.7694418119
 H    2.7758681594   -1.4252598962   -0.5267900395
 H    2.2899922573   -2.5733232527    0.7270764437