21

 C    0.0151318529    1.4785633079   -0.1188210229
 C    0.0127099305   -0.0379232652    0.0697859692
 O    0.7263402206   -0.4122387126    1.2469494992
 C   -1.4104876510   -0.6206114286    0.0673246900
 C   -1.4374638470   -2.1190316917   -0.0117242505
 C   -0.6953784740   -3.1953208345    0.8281802254
 C   -1.3446439548   -3.8692954247   -0.3992798693
 C   -2.6494499447   -3.0822523772   -0.1435047793
 O   -0.8644359573   -2.7480888779   -1.2407446225
 H    1.0387362555    1.8606002253   -0.0797879459
 H   -0.4260481215    1.7612455701   -1.0798430829
 H   -0.5649944504    1.9718798493    0.6721474722
 H    0.5712822903   -0.5077541501   -0.7469077714
 H    0.3064520101    0.0275626734    1.9948361706
 H   -1.9414148775   -0.2976717963    0.9739889886
 H   -1.9706488404   -0.2226532042   -0.7878840982
 H    0.3905912094   -3.1235920742    0.8111094440
 H   -1.0936852576   -3.4339986059    1.8182612712
 H   -1.2115053174   -4.8772935632   -0.7913010404
 H   -3.2256368513   -3.3115542542    0.7571906990
 H   -3.2748432746   -2.9214388556   -1.0231944160