11

 N    0.0299948426   -1.1474516921   -0.0045710140
 C   -0.0110665861    0.0078465510    0.0035851786
 C   -0.0136995231    1.4489794240    0.0109005526
 N   -1.2048504763    2.0611189430    0.0299200106
 C   -1.1693165707    3.3920316965    0.0363603042
 N   -0.0846114015    4.1716717037    0.0258967901
 C    1.0893091653    3.5389493834    0.0070090627
 C    1.1901525349    2.1520851007   -0.0014847158
 H   -2.1310638146    3.8977098998    0.0517439533
 H    1.9804509423    4.1614901784   -0.0016548754
 H    2.1449409473    1.6422269715   -0.0167971869