19

 C   -0.0890479852    1.5288793986    0.0629121240
 C    0.1621266340    0.0583054674   -0.0039102947
 O   -0.7532765094   -0.8138485252    0.6887975715
 C    0.6438207335   -0.9290856823    0.9819295716
 C    1.3004791027   -1.7881199695   -0.1398900037
 O    2.6815838734   -1.9636079926   -0.0234663731
 C    0.4248656650   -2.9055922432   -0.7830676590
 C   -0.1285395525   -1.8654093862   -1.8099931725
 C    0.7693828695   -0.7600563280   -1.1796926870
 H    0.8053475870    2.0875625077   -0.2305836002
 H   -0.9021767451    1.8151483163   -0.6141786952
 H   -0.3712362854    1.8221087406    1.0778020780
 H    0.9497758740   -0.8274044342    2.0199492059
 H    2.8456317337   -2.5981144939    0.6840310789
 H    1.0487453418   -3.6763235268   -1.2426078185
 H   -0.3149494381   -3.3719106118   -0.1298690974
 H    0.1265822693   -2.0912179396   -2.8472984549
 H   -1.2002168039   -1.6772520265   -1.7365539584
 H    1.4707402156   -0.2182763308   -1.8138379553