16

 C   -0.5379983136   -1.0977574899   -0.6130531839
 C   -0.3041507361    0.0279771669   -0.2610418216
 C   -0.0219539635    1.3758157370    0.1759527528
 C    0.2420065603    1.6568128672    1.6874825191
 C    1.3137677499    2.6960082866    1.2790737640
 C    1.3827052872    2.0422910655   -0.1432972102
 C    2.4811422223    1.1139914951   -0.3140197401
 C    3.4009221512    0.3504519268   -0.4435708216
 H   -0.7396241062   -2.0917308943   -0.9268418713
 H   -0.7980460544    2.0556480082   -0.1917780875
 H   -0.6090715737    1.9982774970    2.2793455442
 H    0.6870308244    0.7838500931    2.1690040432
 H    0.9101162098    3.7101867787    1.2224104314
 H    2.2442166462    2.7116991787    1.8465983069
 H    1.3548416793    2.7423253770   -0.9829406018
 H    4.2083289969   -0.3279989733   -0.5657614837