20

 C    0.0125592626    1.5993505688    0.0549851978
 C   -0.0267244554    0.0694297541    0.0522710835
 C    0.7541137283   -0.5333667753    1.2285057975
 O    2.1061168531   -0.1283696806    1.0928061070
 N   -1.3885798583   -0.4534766169    0.0359145752
 C   -2.3771313568   -0.1809423484    0.9538942129
 C   -3.4959307880   -0.9071177503    0.6155372623
 C   -3.1779500805   -1.6535194341   -0.5512125608
 C   -1.8761884128   -1.3548610348   -0.8801488677
 H    1.0512563449    1.9355804729    0.0426299552
 H   -0.5058717354    2.0000385474   -0.8198771127
 H   -0.4648908637    2.0067813049    0.9517994198
 H    0.4499249961   -0.2908695069   -0.8650290703
 H    0.3189136505   -0.1817021738    2.1771106007
 H    0.6504848890   -1.6279165884    1.1983471787
 H    2.6044659297   -0.4785287518    1.8364293561
 H   -2.2059797396    0.5077321923    1.7651725189
 H   -4.4369067131   -0.8973087743    1.1442392044
 H   -3.8280868757   -2.3248821432   -1.0908873663
 H   -1.2505298849   -1.6997052517   -1.6885193924