19

 C    0.0383072977    1.5112622336   -0.1050131789
 C    0.0276047329    0.0156469104    0.0344755542
 O    0.8659919054   -0.6982781915   -0.9320393028
 C    0.7401807306   -1.8061457647    0.0032150766
 C   -0.7599526872   -2.1712155233   -0.0206673455
 C   -1.4156100160   -1.6332595186    1.2348900737
 C   -0.3265569931   -1.2199703320    2.2144877512
 C    0.7077265730   -0.7976332455    1.1890527268
 C   -1.3145464577   -0.7598019529    0.0021290707
 H    1.0598970934    1.8985788139   -0.0652881313
 H   -0.4051570710    1.8104971198   -1.0608089333
 H   -0.5438254517    1.9745089298    0.6980785069
 H    1.4884884549   -2.5858933406   -0.1309848634
 H   -1.1725494974   -2.9701216497   -0.6206820585
 H   -2.3731560388   -2.0165661671    1.5684258834
 H   -0.6358311839   -0.3959722851    2.8678646866
 H    0.0131241202   -2.0497870407    2.8447397955
 H    1.6753564774   -0.4210704529    1.5135933747
 H   -2.1664725487   -0.4369205728   -0.5810139264