14

 O    0.1191744702    1.3709905280   -0.2335392093
 C    0.0573940103    0.0318621353   -0.0679135200
 C   -0.3452384560   -0.8472620860   -1.2046022900
 C   -1.1961697064   -1.0352566834    0.0215867332
 C   -0.4190624394   -1.8667921512    1.0505415944
 C    0.6155571059   -0.7146520712    1.0985819933
 O    1.3664029584   -0.3357799339    1.9558662423
 C   -2.5755244091   -0.7211235227    0.0884875834
 N   -3.7012354026   -0.4551150287    0.1582240675
 H    0.2520939656    1.7767436386    0.6343646601
 H   -0.8104097814   -0.2854038939   -2.0090809795
 H    0.2874349958   -1.6674751781   -1.5361505769
 H   -0.9157970112   -1.9802801570    2.0158920735
 H   -0.0687254100   -2.8400575058    0.6968449880