18

 C   -0.2647678121    1.4438005329    0.0089922844
 C   -0.0122020879   -0.0416405406    0.0424993279
 N    0.1476794743   -0.7205722746    1.1153216426
 O    0.0534595868    0.0768534332    2.2664353463
 C    0.0438058175   -0.7932873868   -1.2545635204
 C    1.0050430010   -0.2425242488   -2.2902405986
 C   -0.2890304606   -2.2367523194   -1.2556707843
 N   -1.2515981889   -1.2637884383   -1.8149537879
 H    0.6783280517    1.9999782772    0.0662746107
 H   -0.7707867575    1.7326134022   -0.9148519021
 H   -0.8671369617    1.7452708346    0.8677510446
 H    0.1700450391   -0.5712987037    2.9690323847
 H    2.0397812573   -0.3189270785   -1.9392514029
 H    0.9071886142   -0.8067294464   -3.2205691668
 H    0.7984044086    0.8086705505   -2.5150215860
 H    0.1773308988   -2.8843600292   -1.9929690936
 H   -0.5132991885   -2.7056526392   -0.3045772017
 H   -1.9909071020   -1.1087430552   -1.1317102169