15

 C   -0.1134156497    1.5315744812   -0.1002046939
 C   -0.0811652118    0.0261234250    0.0811625600
 O   -0.1157356455   -0.5118195135    1.1590330419
 C    0.0399311758   -0.7824668854   -1.2133781927
 C    1.5347627585   -0.9453059607   -1.6580953120
 N    1.8037666697   -2.3819123237   -1.5124279926
 C    0.7097761058   -2.9066839692   -1.1534409108
 O   -0.3927207856   -2.1345542133   -0.9932341382
 H    0.6735524624    1.8672837973   -0.7847413276
 H   -1.0703796243    1.8243489560   -0.5488075552
 H   -0.0027981714    2.0241869768    0.8661034855
 H   -0.5849325037   -0.3442059096   -1.9972545437
 H    1.6958194147   -0.6343082516   -2.6951228731
 H    2.2232947699   -0.3704344418   -1.0297795619
 H    0.5476659852   -3.9606653974   -0.9605936759