22

 O   -0.1432235630    1.4766144615   -0.1449962815
 C    0.0036379451    0.0658302341   -0.0877688562
 C   -1.3885343417   -0.5438959269    0.0058463660
 C   -1.3623995406   -2.0695262895    0.1005364520
 N   -2.6983535865   -2.6260638021    0.1587733610
 C   -3.5059353219   -2.4479613119    1.3860700505
 C   -4.1043549397   -3.8573273509    1.1365585714
 O   -5.3327786501   -3.8715329050    0.4503325876
 C   -2.8524946743   -4.0926024492    0.2510814232
 H    0.7328067110    1.8678448561   -0.2082354714
 H    0.5192552526   -0.3178019700   -0.9838402796
 H    0.6045642454   -0.2367895614    0.7858303330
 H   -1.8914282535   -0.1217287841    0.8841606208
 H   -1.9734757424   -0.2434027268   -0.8698809687
 H   -0.8637600633   -2.4885967308   -0.7835268266
 H   -0.7598453176   -2.3795768216    0.9799280509
 H   -2.8978426476   -2.4104014655    2.3062502080
 H   -4.2030157317   -1.6034557894    1.3792307013
 H   -4.2278583558   -4.5051407580    2.0047482653
 H   -5.2355217963   -3.2976063084   -0.3185343616
 H   -3.0040707436   -4.6119582325   -0.7017716824
 H   -2.0366770745   -4.5850104675    0.8075225169