16

 C   -0.2137457442    1.6026045792    0.0654041162
 C    0.0401315805    0.0837941576   -0.0099390003
 C    0.6403951274   -0.3493838134   -1.3622015071
 C   -0.3648373514   -0.3015443098   -2.4905812956
 O   -1.5501150491   -0.1047053429   -2.3545817473
 C    0.1745789273   -0.5422649382   -3.9089947877
 O    1.3401678519   -0.7050140866   -4.1517314665
 C    0.9154797840   -0.3492879047    1.0833800562
 N    1.6128424379   -0.6851742102    1.9415535508
 H    0.7197469215    2.1585379557   -0.0607227836
 H   -0.9136695804    1.8957714408   -0.7192621167
 H   -0.6442691438    1.8739191618    1.0318632803
 H   -0.9192341573   -0.4326290208    0.1107552601
 H    1.5120484340    0.2571501956   -1.6329126429
 H    1.0206125426   -1.3784073245   -1.3151907125
 H   -0.6244153411   -0.5414014094   -4.6790836034