20

 C   -0.0100695883    1.5090491932   -0.0141412224
 C   -0.0045076406    0.0528765361    0.0006666105
 C   -0.0029822611   -1.1513835604    0.0169785414
 C   -0.0040792502   -2.6089050890    0.0369393549
 C    0.6683291310   -3.2349017174    1.2969034452
 C    0.0449010735   -4.6429736430    1.4344932543
 C   -1.3489082489   -4.4853099716    0.8521697175
 N   -2.0422340357   -3.2731592515    1.3457828409
 C   -1.3891270020   -3.2585325546    0.0226531838
 H    1.0087726376    1.9126816138   -0.0085385000
 H   -0.5130072830    1.8981958572   -0.9067274552
 H   -0.5303177886    1.9146371274    0.8608063306
 H    0.5195203282   -2.9741786255   -0.8588310383
 H    1.7566120906   -3.2546050980    1.2084270070
 H    0.4105606188   -2.6279012072    2.1654610248
 H    0.5976328518   -5.3817631284    0.8411224509
 H    0.0381727114   -4.9900392834    2.4725347923
 H   -1.9383914550   -5.3616592683    0.6013058269
 H   -3.0448108225   -3.3826930251    1.2178201623
 H   -2.0013354669   -3.1758763942   -0.8692497774