17

 O   -0.5770791342    0.7467569889    1.1594992118
 C   -0.2007015678    1.4496807611    0.2513926866
 N    1.0376774489    1.3710092455   -0.3401958874
 C    2.0221777229    0.4622036018    0.0371652495
 N    3.1359937176    0.4572308018   -0.5608392028
 C    4.1798264845   -0.4770049802   -0.1901782882
 C    3.8962129223   -1.4716887875    0.9596133527
 C    5.0425552715   -2.3352436614    1.2040501827
 C    6.0086217277   -3.0291953263    1.3762419400
 H   -0.8214750857    2.2424621053   -0.2063978746
 H    1.2729558842    1.9987470321   -1.0963435765
 H    1.6979312944   -0.1804313463    0.8563914605
 H    4.4495850160   -1.0451859716   -1.0887233751
 H    5.0727094738    0.1077595899    0.0623930566
 H    3.6476520430   -0.9223971316    1.8769139605
 H    3.0192321882   -2.0852508415    0.7159175149
 H    6.8532894528   -3.6507864799    1.5417386389