17

 O    0.0757686679    1.3729769253    0.0654623875
 C   -0.0015931534   -0.0322778530    0.0310985828
 C    0.4167768451   -0.6260872107    1.4134855660
 N   -0.8130319270   -1.3331487300    1.8718430339
 C   -1.2055392774   -2.0243866021    0.5829733456
 C   -1.4536787247   -0.5907640315    0.0318332937
 C   -1.8608501196   -0.3050719730    1.5076552444
 C   -2.2711711386   -0.2764963286   -1.1159385861
 N   -2.9163112548   -0.0067482361   -2.0377565845
 H   -0.1834906416    1.7166281843   -0.7968058937
 H    0.5752160331   -0.4419536567   -0.8080809674
 H    1.2476371916   -1.3307192812    1.3439645541
 H    0.6801998420    0.1759244452    2.1056411385
 H   -0.4244636874   -2.6320187041    0.1182177408
 H   -2.1198063948   -2.6050166183    0.7145635803
 H   -2.8585624944   -0.6659152366    1.7604949368
 H   -1.6899737959    0.7017892073    1.8906166072