18

 O    0.3479893364    0.9956002529   -0.6958084996
 C    0.0037882004   -0.2984698625   -0.2321882756
 C   -1.4749653991   -0.4288380566    0.1628996130
 C   -2.4020407262   -0.0765787029   -1.0328428518
 C   -2.8356831398   -1.4159875776   -1.5581715504
 C   -2.5187208840   -2.4106215950   -0.7183252374
 C   -1.8119869526   -1.9009318533    0.5266213096
 C   -2.8217845559   -3.7857640480   -0.9108228168
 N   -3.0523108651   -4.9145004416   -1.0350447814
 H    0.2601974460    1.6095888486    0.0405743116
 H    0.2224370106   -0.9785666868   -1.0638330041
 H    0.6380985979   -0.6038634851    0.6141843107
 H   -1.6624524599    0.2338800177    1.0147504589
 H   -3.2785541993    0.5081074062   -0.7214117127
 H   -1.8778039562    0.5311296875   -1.7778491001
 H   -3.3642062110   -1.5489072017   -2.4947743334
 H   -0.9178647689   -2.4886498204    0.7645107973
 H   -2.4730209334   -1.9747334014    1.3982012420