14

 O    0.0175497575    0.0405818181    0.1190869583
 C   -0.0116933023    1.2328218287    0.0923260240
 C   -1.0985219058    2.3002517457   -0.0204115254
 C   -1.0559761369    3.2083630287    1.2725389484
 O   -0.0161412488    2.7763780346    2.1767932894
 C    0.9726031742    3.2574018480    1.2405542651
 C   -0.0750356008    4.1242256372    0.5080357973
 N   -0.0725375056    3.2227320108   -0.7156912329
 C    1.0182088737    2.3514217243   -0.0537862860
 H   -2.0581458774    2.1084520896   -0.4996397599
 H   -1.9864778995    3.4667429009    1.7753736226
 H    1.9049175654    3.5608135484    1.7140176218
 H   -0.1026706473    5.2080646481    0.4170761522
 H    1.9704015037    2.2058385567   -0.5631582848