18

 C    0.1039980842    1.3879881726   -0.0919713951
 O    0.0208922214   -0.0143262829    0.0027142823
 C    0.6792207903   -0.5275311066    1.1367453231
 C    0.5143366335   -2.0503893581    1.1229394758
 C    1.1825463546   -2.7186816183    2.2688545703
 C    0.7659311575   -3.4160436628    3.3546662117
 N    1.8639709799   -3.8094852029    4.1129820303
 C    2.8741035625   -3.3378092699    3.4623492118
 O    2.5557249507   -2.6626533580    2.3330211191
 H    1.1480246771    1.7313355459   -0.1654008944
 H   -0.4304840517    1.6867820930   -0.9968194784
 H   -0.3592635534    1.8843515965    0.7754316810
 H    1.7491437161   -0.2625232256    1.1229282260
 H    0.2510338355   -0.1090679474    2.0632013233
 H   -0.5517171183   -2.2940225931    1.1493848143
 H    0.9088772767   -2.4310817983    0.1735028849
 H   -0.2423193791   -3.6669709720    3.6440094445
 H    3.9231797126   -3.4142221619    3.7015328797