23

 C   -0.1597783546    1.5653600243    0.1160690190
 C   -0.0096975509    0.0382916268    0.0101047823
 C   -1.3993323037   -0.6151530567   -0.0366316702
 C    0.8085310069   -0.3567320601   -1.2603254967
 C    2.3345538736   -0.4533859066   -1.0055445942
 C    2.5864479689   -0.8662296496    0.4436704523
 C    1.4933584353   -1.8136026572    0.9821806116
 C    0.7695626831   -0.4743803323    1.2406911672
 O    2.0618671797    0.1955022110    1.2935275717
 H    0.8168625208    2.0522602122    0.1497382444
 H   -0.7199776566    1.9568450780   -0.7398419982
 H   -0.7033542000    1.8449980519    1.0261527180
 H   -1.9368186923   -0.3184381153   -0.9439263897
 H   -1.3334891263   -1.7088626486   -0.0337528805
 H   -2.0089621161   -0.3127321818    0.8224301791
 H    0.4535310789   -1.3326800452   -1.6087076976
 H    0.5976301734    0.3443255876   -2.0745314807
 H    2.7889482625   -1.1678608401   -1.7023414087
 H    2.8297702211    0.5106844452   -1.1640702592
 H    3.6358824287   -1.0847647081    0.6598788693
 H    1.0439104793   -2.5454049185    0.3081713090
 H    1.7966793712   -2.2947521870    1.9130908542
 H    0.2049843870   -0.3473975699    2.1704604475