16

 N   -0.0721068374    1.1968999898    0.3096144400
 C   -0.0473406980   -0.0202895045   -0.0100147691
 O    1.0994904124   -0.7596361533   -0.2328325268
 C    0.7617525376   -1.9770604638   -0.8589686253
 C   -0.0314171714   -3.0618725208   -0.1094059990
 C   -0.5412181558   -2.7562682312    1.2544361887
 C   -1.2655200394   -1.6350169226    1.2619606458
 C   -1.2389240189   -0.9684030460   -0.1133433539
 C   -0.7091392889   -2.0725201886   -1.0517327690
 H    0.8739574945    1.5780912799    0.3638290287
 H    1.4902414166   -2.2707075157   -1.6049123547
 H    0.1646833504   -4.0841473144   -0.4141909718
 H   -0.3071266547   -3.3649371116    2.1190495662
 H   -1.6791837808   -1.1376082300    2.1298609584
 H   -2.1527394825   -0.4590714143   -0.4140114895
 H   -1.1950898337   -2.3343524629   -1.9823090886