18

 C   -0.1204768309    1.3767210041    0.1057189035
 O    0.2956994188    0.0307982137   -0.0736006997
 C    0.8106835663   -0.5801128497    1.0900073314
 C   -0.2379980574   -0.7135076433    2.1297844267
 N   -1.0700024090   -0.7880130562    2.9280950880
 C    1.3664513866   -1.9521468943    0.7120747710
 N    0.5757145217   -2.6420184352   -0.1732844917
 N    2.4359532912   -2.3273550162    1.2902757159
 C    2.9385389627   -3.6538120669    0.9765872303
 H    0.7138992249    2.0050918455    0.4466606018
 H   -0.4614977080    1.7295232150   -0.8689643100
 H   -0.9429324154    1.4511412635    0.8282750364
 H    1.6433973498   -0.0088515867    1.5189012103
 H   -0.0404844733   -2.0816648187   -0.7424750558
 H    0.9731387231   -3.4479386890   -0.6279094069
 H    2.2273796219   -4.4442836355    1.2601006417
 H    3.1596904275   -3.7772365363   -0.0966506724
 H    3.8680813895   -3.8283885840    1.5229494094