16

 O   -0.2231495218    0.0652144368    0.2024878725
 C   -0.0701925809    1.2460566946    0.0341527496
 C    1.2801959279    1.9392659080    0.0372480172
 C    1.5043381117    2.8579033848   -1.1477715167
 N    0.5896559642    4.0186747063   -1.1302412498
 C    1.9832065930    4.1921855007   -0.6825158839
 C    2.0990648232    4.1979427315    0.8215394643
 C    1.4354488966    2.8839412400    1.2670995613
 O    1.0945606264    2.6108031316    2.3835089146
 H   -0.9235719299    1.9309586533   -0.1483751189
 H    2.0549676711    1.1669664756    0.1066679257
 H    1.8188102761    2.4430088140   -2.0988340182
 H    0.4711416918    4.3837819155   -2.0711869106
 H    2.6649868665    4.7778751052   -1.2890226790
 H    3.1465861320    4.1876785799    1.1481224870
 H    1.6046840619    5.0438250121    1.3054275850