20

 C   -0.7879019778    1.2638673970    0.0530970438
 C   -0.0161314305   -0.0529643802    0.0030564405
 C    0.6864884831   -0.4665809021   -1.3127051396
 C    1.2515406543    0.7115157936   -2.1056750420
 O    1.9098499999    0.1779238947   -3.2475819918
 C    1.8271652055   -1.3908980512   -0.8167702226
 N    2.1181518075   -0.8535742339    0.5025989201
 C    1.1066525641   -0.1181971634    1.0533168496
 O    1.0943700136    0.3744162972    2.1616383905
 H   -0.1579263448    2.1198329612   -0.2056976721
 H   -1.6466363976    1.2516639193   -0.6249345087
 H   -1.1479960596    1.4255847947    1.0721139254
 H   -0.7075258202   -0.8629385398    0.2780015715
 H    0.0149239097   -1.0169197407   -1.9773332810
 H    0.4356661655    1.3851885100   -2.4030176298
 H    1.9489056634    1.2889901156   -1.4782084980
 H    2.3054416629    0.9059912126   -3.7350784068
 H    1.4955788728   -2.4376735036   -0.7653354494
 H    2.6948990037   -1.3407092965   -1.4784986162
 H    2.9087600545   -1.1343933846    1.0602962368