14

 O    0.0412135999   -0.0059697268    0.3206953335
 C    0.0331218777    1.1891416366    0.2869245971
 O   -1.1000944149    1.9329846297    0.3435338146
 C   -0.8189087594    3.3370273962    0.1643222249
 C    0.6855593162    3.5182646067    0.4441533739
 C    1.2196479317    2.1289656309    0.1808980056
 C    2.5821892252    1.6341676371    0.3819614168
 O    2.0831586757    1.8844148467   -0.9329248571
 H   -1.0822818377    3.6091596675   -0.8628924141
 H   -1.4614156987    3.8898230400    0.8514988770
 H    1.1513372225    4.2675657536   -0.1977223584
 H    0.8505756899    3.8001948754    1.4885290969
 H    3.3465741951    2.3263274462    0.7323815336
 H    2.7243526269    0.5848820403    0.6315724157