17

 O    0.0010087733    0.0350867884    0.0922991070
 C   -0.0025992988    1.2337406037    0.0226780500
 C   -1.2247488161    2.1734255604    0.0074250282
 C   -0.8275178537    3.2055974479    1.0847088393
 C    0.7489337111    3.2180934352    1.0776701418
 C    1.1550031694    2.2190572135   -0.0257431250
 N    1.1424199286    2.8928546978   -1.3501116921
 C   -0.0058109407    3.1260596267   -1.8588682274
 N   -1.2268013402    2.7415642798   -1.3507507144
 H   -2.1618513790    1.6476491173    0.1871982000
 H   -1.2509893366    4.1888619252    0.8640355480
 H   -1.2090818993    2.8972537572    2.0626696629
 H    1.1526027820    4.2083778325    0.8564467122
 H    1.1428252353    2.9029184967    2.0485344676
 H    2.1276930049    1.7526743203    0.1274460419
 H   -0.0615719292    3.6513226031   -2.8131081792
 H   -2.0404669109    3.2636019143   -1.6423052809