20

 C    0.0637968950    1.2935898262   -0.3313426725
 C    0.2104106358   -0.1360491694    0.1222055845
 O    1.5442770803   -0.6394697862    0.3076074451
 C    0.6745387806   -0.5827688163    1.4513373032
 C    1.0798503362    0.3899549230    2.5380325150
 C    0.2325774417   -1.9275231217    1.9676746095
 C    0.3154022269   -3.1551483923    1.1022181919
 C    1.2682043714   -2.9873420398    2.2596069263
 H    0.7237511185    1.9701165066    0.2142616145
 H    0.3046710019    1.3753371071   -1.3967106455
 H   -0.9704851040    1.6294488275   -0.1977219184
 H   -0.4366740795   -0.8379830508   -0.4084009630
 H    1.4405280868    1.3351749827    2.1303337774
 H    0.2335414600    0.5966042690    3.2026280797
 H    1.8798730580   -0.0456273791    3.1454798448
 H   -0.6040151532   -1.8721829053    2.6598531337
 H   -0.4754995048   -3.8925644828    1.1813067217
 H    0.7315329460   -3.0295795639    0.1093763834
 H    2.2985121979   -2.7532052716    2.0146270177
 H    1.1401289843   -3.6085522029    3.1389438712