16

 O   -0.1405423197    0.0361038697    0.0249645670
 C    0.0021485375    1.2128755729   -0.1705899935
 C    1.3085353001    1.9891549351   -0.0175052869
 C    1.4614155044    2.7794389683   -1.2267814276
 C    1.4900368314    3.4012007063   -2.2562191284
 C    1.6445965223    2.6478072757    1.3748809739
 C    1.8884157414    1.2048540887    1.8568746551
 N    2.5583239078    1.1939278133    0.4611076649
 C    3.1044221141    2.5762413733    0.8917203958
 H   -0.8378027189    1.8570819739   -0.5112546509
 H    1.5430452066    3.9573618644   -3.1599665745
 H    1.1061367603    3.4709184760    1.8555924972
 H    2.6128366840    1.0765910659    2.6631340614
 H    1.0554266587    0.5135469371    1.9546807055
 H    3.4153571323    3.2091195795    0.0605508271
 H    3.8794802675    2.4987489400    1.6566760638