21

 C   -0.1627402322    1.5212788012   -0.0447639599
 C   -0.0316781734   -0.0022888379   -0.1376526197
 C    0.8965713049   -0.5055517288   -1.2603052971
 C    2.3562707316   -0.0719085821   -1.0575988354
 C    0.8024870689   -2.0163207792   -1.3931810424
 C   -0.3172787298   -2.6537681635   -2.1752719437
 C    1.0961635285   -2.6933176637   -2.7072062876
 H    0.7882755470    2.0020563601    0.2042803030
 H   -0.5101683349    1.9462682683   -0.9936172545
 H   -0.8842700077    1.8053964077    0.7279028342
 H    0.3261452506   -0.3990979603    0.8228322610
 H   -1.0258778851   -0.4387781385   -0.2930780222
 H    0.5412132235   -0.0708250775   -2.2073708039
 H    2.9908339318   -0.4565308852   -1.8619880229
 H    2.4620008048    1.0166857170   -1.0398076350
 H    2.7494260147   -0.4602090161   -0.1100734032
 H    1.1230653484   -2.5562160675   -0.5037546199
 H   -0.7557424458   -3.5740283849   -1.8050289996
 H   -1.0237788884   -1.9966550293   -2.6730276495
 H    1.3312504626   -2.0617908009   -3.5584069583
 H    1.6241122799   -3.6406536590   -2.7010974633