17

 C   -0.1067661497    1.4720269657    0.0099345508
 C    1.2515876642    0.8267814373   -0.0046250538
 C    0.0069059716   -0.0319085363    0.0021338347
 C   -0.3187145666   -0.8735245308    1.2119849035
 O   -1.6937707001   -1.2494387641    1.3501512948
 C   -0.7995320065   -2.1925287433    0.7611871668
 C   -0.8125760946   -2.1856117536   -0.7625830099
 O   -1.7166960762   -1.2372863288   -1.3275648344
 C   -0.3394473718   -0.8625314364   -1.2095545785
 H   -0.4443818194    1.9443583261    0.9257963236
 H   -0.4599770576    1.9526281731   -0.8956860231
 H    1.8326677332    0.8644793828   -0.9203051488
 H    1.8482651894    0.8562106079    0.9012750893
 H    0.2124254726   -0.7072934700    2.1475162261
 H   -0.6429934622   -3.1196186689    1.3051079984
 H   -0.6654438034   -3.1077143233   -1.3174963782
 H    0.1756096672   -0.6877731675   -2.1524953410