14

 N    0.1559040718    1.2996733421   -0.3437573933
 C    0.0936609226   -0.0680649672   -0.1356037607
 N   -1.0526047806   -0.7204226974    0.0615059646
 N   -0.6499335643   -1.9749442661    0.2878159344
 N    0.6487822753   -2.1965493699    0.2414013665
 C    1.1601940639   -0.9929941399   -0.0201071665
 C    2.6414069889   -0.7731542349   -0.1253732252
 C    2.9924820589    0.0567524087   -1.2809623993
 N    3.2203074126    0.7466260064   -2.1799679697
 H    0.8635782983    1.5825715578   -1.0102081764
 H   -0.7454261218    1.6962603233   -0.5738540020
 H   -1.3077286952   -2.7117714958    0.4790439853
 H    3.0352683986   -0.2786310089    0.7724640261
 H    3.1439173111   -1.7416779882   -0.2042341938