13

 C    0.0485078378   -1.1419976568   -0.0049880895
 C    0.0540660556    0.0580623735    0.0019267684
 C    0.0136854326    1.5095701756    0.0108374079
 O    1.3672730697    2.0080994397   -0.0019818284
 C    1.4773583404    3.3312477118    0.0041743138
 N    2.6642117408    3.9299894844   -0.0063687552
 N    2.2764879317    5.2036397747    0.0053721007
 N    0.9745423561    5.4007353270    0.0217604853
 N    0.4368672335    4.2019225482    0.0212998296
 H    0.0492898794   -2.2042238847   -0.0111795433
 H   -0.5243225310    1.8953531928   -0.8629058468
 H   -0.5038300051    1.8850873570    0.9012729658
 H    2.9350704787    5.9681098469    0.0019614118