18

 O   -0.3093332879    0.4748590840    0.7205214496
 C   -0.0089843440    1.3538062498   -0.0424691969
 C    1.4021863286    1.8952989554   -0.1921728312
 O    1.3801571728    2.9191408963   -1.1491757071
 C    2.6527841009    3.4966432514   -1.3886397774
 C    2.5269279782    4.5391424197   -2.4629048218
 C    2.0711474592    5.9310771332   -2.1100450811
 C    3.5063907331    5.6857917507   -2.4999499684
 H   -0.7470551912    1.8493611238   -0.7109887554
 H    1.7505912995    2.2510587968    0.7931043623
 H    2.0693258446    1.0650533687   -0.4836254882
 H    3.0433293780    3.9512589396   -0.4617768963
 H    3.3673169253    2.7112602580   -1.6888478119
 H    2.1973962612    4.1478305967   -3.4207916343
 H    1.4273195161    6.4514053746   -2.8098528122
 H    1.8559195609    6.1414333525   -1.0677063243
 H    4.2606361528    5.7365952418   -1.7213038780
 H    3.8482805421    6.0328341271   -3.4682815373