19

 C    0.1185774821    1.6611136651   -0.2277798913
 C    0.0786433858    0.2065193907    0.2077980720
 O    0.6686105843   -0.6612976880   -0.8071753516
 C    1.6132519505   -1.4135687071   -0.0471746199
 C    0.8595993472   -1.7688514084    1.2502169410
 C    0.9255950714   -0.2180439546    1.4220775067
 C    2.3494911875   -0.2839640305    0.7788329333
 C    3.4990695168   -0.7108516725    1.6414387859
 O    3.4280339539   -1.1354042177    2.7699659447
 H    1.1406232320    2.0355204031   -0.3287349777
 H   -0.3783551456    1.7735530058   -1.1957604157
 H   -0.4092439417    2.2862047243    0.5002479455
 H   -0.9672100405   -0.0955873912    0.3539063786
 H    2.1309847444   -2.1249539334   -0.6888037473
 H   -0.1244722973   -2.2275217107    1.1277049371
 H    1.4600049437   -2.2965749044    1.9874807339
 H    0.7474215177    0.2750902404    2.3759413732
 H    2.6724660633    0.5529025398    0.1530640176
 H    4.4897549046   -0.6043030206    1.1424717840