19

 C   -0.0160868083    1.4828870848    0.0972677581
 C   -0.0693959317   -0.0618598400    0.0038806027
 C   -1.5206127840   -0.5504191441   -0.0737593493
 C    0.7564879904   -0.5032876485   -1.2118709121
 O    0.4444566946   -0.3135382329   -2.3593341398
 C    2.0324531447   -1.2249805108   -0.7556373050
 C    2.1011490755   -1.0513585559    0.7686282371
 C    0.6852746994   -0.6504667311    1.2010185433
 O    0.2342278779   -0.7777207659    2.3102043946
 H    1.0101271484    1.8576605993    0.1732496951
 H   -0.4682316257    1.9147792432   -0.7996773485
 H   -0.5676479569    1.8176648214    0.9801010463
 H   -2.0104236457   -0.1225188598   -0.9520068996
 H   -1.5730499618   -1.6406150209   -0.1518050424
 H   -2.0601948572   -0.2517347588    0.8283816738
 H    1.9275811212   -2.2790989945   -1.0394302743
 H    2.8980954083   -0.8410533216   -1.3006181858
 H    2.4282288611   -1.9346433720    1.3204730834
 H    2.7767776098   -0.2331579922    1.0476795925