25

 C    0.0217818568    1.5263867325    0.1502046945
 C    0.0834775666    0.0150803409   -0.0020000678
 O    0.6714036835   -0.5242290289    1.1639937029
 C    0.7540416635   -1.9462501604    1.2061781978
 C    1.9819379908   -2.4281289834    0.4254487149
 C    0.7625281093   -2.3337135138    2.6973934788
 C   -0.5119180376   -1.8488667258    3.4009258056
 C    0.9543789406   -3.8396017154    2.8970152660
 O    0.9595270922   -4.1030888455    4.2938946270
 H    1.0263999583    1.9397718005    0.2771143371
 H   -0.4319827382    1.9811946472   -0.7355668738
 H   -0.5730986990    1.8000472531    1.0262580411
 H   -0.9286010759   -0.4006811057   -0.1423843113
 H    0.6651778482   -0.2483102284   -0.9000941108
 H   -0.1545604768   -2.3694509306    0.7423033084
 H    2.9030119702   -2.1134256757    0.9267395633
 H    1.9952486069   -3.5170845422    0.3232212103
 H    1.9856807531   -2.0086795910   -0.5846336997
 H    1.6259709099   -1.8303155707    3.1533211959
 H   -1.3989846483   -2.3372917403    2.9772115070
 H   -0.4755609044   -2.0892136170    4.4646680164
 H   -0.6263263322   -0.7708422038    3.2782164425
 H    0.1357387738   -4.3848559671    2.3950663911
 H    1.8984970579   -4.1709109540    2.4425002320
 H    1.0827433811   -5.0481776746    4.4187873807