22

 C   -0.1640271601    1.5900165030    0.0050747084
 C    0.1113190891    0.0931126945    0.0082128491
 O    1.2453335825   -0.3314536289    0.0041493183
 C   -1.1300144725   -0.7940047851    0.0162557143
 C   -0.9483684480   -2.3287689957    0.0004874681
 C   -0.1824509435   -2.7995250133    1.2516854531
 C   -2.3540708041   -2.9603009916    0.0075415576
 C   -0.2055843036   -2.7758619645   -1.2731146381
 H    0.7791542072    2.1372874963    0.0187303369
 H   -0.7388205878    1.8707942340   -0.8846510072
 H   -0.7678803697    1.8728026791    0.8744577381
 H   -1.7205256926   -0.5001679664    0.8970329966
 H   -1.7452455973   -0.4845899646   -0.8418258707
 H   -0.7022021280   -2.4961668038    2.1683735369
 H   -0.1078189362   -3.8924179961    1.2629972874
 H    0.8267914967   -2.3856011776    1.2751092717
 H   -2.9349306333   -2.6550206359   -0.8703959899
 H   -2.2854836428   -4.0533544598   -0.0023546165
 H   -2.9191392824   -2.6701028830    0.9007645936
 H    0.8036413291   -2.3624340776   -1.3067923764
 H   -0.1320469724   -3.8683542324   -1.3067786150
 H   -0.7413568902   -2.4546805705   -2.1743814462