12

 N    0.0986100519    1.3916030916    0.3797808327
 C   -0.0255127153    0.0561950895    0.0331834464
 N   -1.2004279953   -0.4448466500   -0.1236040171
 O   -1.2597957589   -1.8474550038   -0.3251343085
 C   -0.1705355431   -2.6360590801   -0.5408532697
 O   -0.3102421785   -3.7943187531   -0.7943586614
 C    1.2085896978   -1.9895885783   -0.3942958304
 O    2.2379675698   -2.5985823005   -0.5116913235
 N    1.1560347646   -0.6458298487   -0.0737876308
 H    0.7440362698    1.9159113896   -0.1989300541
 H   -0.8067164277    1.8426748327    0.4234418533
 H    2.0339696852   -0.1958007889    0.1530199431