21

 C    0.4233718087   -0.6172726469    1.3374918175
 C    0.0167190794    0.0103754674   -0.0032454584
 C    0.0191088465    1.5407511425    0.0852070073
 C    0.9325258314   -0.4763582518   -1.1410968208
 C    0.8649956545   -2.0127939600   -1.3894211205
 O    0.6451190922   -2.1389071749   -2.8095648086
 C    0.4470955366   -0.8671952198   -3.2525968032
 N    0.0758904830   -0.7973666121   -4.5682480481
 N    0.5779427260    0.1069084093   -2.4421058721
 H    0.3831625024   -1.7117703387    1.3164016967
 H    1.4456123627   -0.3267200329    1.6089404134
 H   -0.2389465545   -0.2808282380    2.1414269308
 H   -1.0030775852   -0.3187926305   -0.2506032228
 H    1.0177976907    1.9133841652    0.3447513268
 H   -0.2657542895    1.9836545316   -0.8709661959
 H   -0.6747900711    1.8880309963    0.8579957887
 H    1.9614210800   -0.1764613425   -0.8884471185
 H    1.7826075688   -2.5488799898   -1.1363632740
 H    0.0226937572   -2.4873373410   -0.8730655812
 H    0.3707429980   -1.5738677125   -5.1394171451
 H    0.2075208523    0.1108663191   -4.9846807718