23

 C   -0.0552927443    1.5650348965   -0.2900441110
 C    0.0215120647    0.1608978938    0.3204603441
 C   -1.3287408609   -0.5202057832    0.3403067374
 N   -1.7801966789   -1.1541661098   -0.9108062562
 C   -1.5512209602   -1.9930202916    0.2814999337
 C   -0.4507342950   -2.9996153724    0.1873980537
 N   -0.2035679209   -3.8205046566    1.3882025223
 C   -0.6745591355   -4.4741123172    0.1558759397
 C   -2.0291359222   -5.1400081217    0.1980166689
 H    0.9268923359    2.0472111358   -0.3053657304
 H   -0.4261980523    1.5150201657   -1.3185242956
 H   -0.7335412248    2.2097353261    0.2804633559
 H    0.7298673544   -0.4451584158   -0.2525368134
 H    0.4069682962    0.2171475776    1.3466611394
 H   -2.0828894684    0.0306406142    0.9047353846
 H   -2.7741686317   -1.0068295014   -1.0598107610
 H   -2.4259750849   -2.3477485516    0.8215482270
 H    0.4143633077   -2.6527248315   -0.3726449073
 H    0.7925814125   -3.9671867171    1.5232862723
 H    0.0693693439   -5.0297699153   -0.4152596883
 H   -2.7276159185   -4.5852617911    0.8282510481
 H   -2.4552414244   -5.2212415422   -0.8078619039
 H   -1.9447674723   -6.1509853110    0.6111817799