16

 O   -0.0287552262    0.0164346370   -0.3809113235
 C   -0.0117493905    1.1717205775   -0.0531331744
 C   -1.2378668782    2.0211136974    0.3113784107
 O   -0.7770775872    3.2558426877    0.8377788503
 C    0.6275204322    3.4008785312    0.6309206267
 C    1.5367457508    3.1943502624    1.8480324434
 C    1.3226468220    1.8772093287    2.4693798067
 N    2.1453490601    1.9227976379    1.2437863130
 C    1.1977944920    2.0979555840    0.0672846287
 H   -1.8520739488    2.1764256061   -0.5890685471
 H   -1.8572601349    1.4993576577    1.0510094256
 H    0.8273722054    4.3206324765    0.0760026167
 H    2.1660134658    3.9579616034    2.2915023419
 H    1.9205549111    1.6482577610    3.3457184784
 H    0.3427217991    1.4087657399    2.4676426348
 H    1.7659974875    2.1366310516   -0.8626374719