19

 C    0.2561462729    1.5252856307    0.1626584454
 C   -0.2449638170    0.1095358413   -0.1440477502
 C    0.4474568964   -0.4936287442   -1.3445061011
 N    1.7749205321   -1.0918677596   -1.1080399731
 C    0.6664054936   -1.9491665658   -1.4962842723
 C    0.1335930436   -3.1822681516   -0.7405533206
 N    0.0416071356   -3.8230127072   -2.0630657339
 C    0.5583594034   -2.7664416051   -2.7794102214
 O    0.8259588179   -2.5940641950   -3.9396949272
 H    1.3321346802    1.5161701754    0.3610610859
 H    0.0743298054    2.2015735166   -0.6798621624
 H   -0.2487754205    1.9417103052    1.0392948088
 H   -0.0763063341   -0.5388759513    0.7228582206
 H   -1.3269099495    0.1245450694   -0.3280013345
 H    0.3160866446    0.0492182487   -2.2809290411
 H    2.3866575799   -0.9511823587   -1.9104501190
 H    0.8596747227   -3.6441400051   -0.0652477739
 H   -0.8286601112   -3.0567865691   -0.2344531680
 H   -0.2502387160   -4.7455880045   -2.3448994119