18

 C   -0.3776671772    1.3967844921   -0.2216158200
 C    0.2419574003    0.0351495464    0.1269086947
 C    0.8717545759   -0.6202567260   -1.0803105934
 C    0.9417063443   -2.1026543779   -1.3543379642
 C    0.0519841046   -3.0585304877   -0.6493304546
 C   -1.2263590073   -2.8040298107   -0.9609558478
 C   -1.2824683366   -1.5876790006   -1.8145618100
 O   -2.2490177512   -0.9500370362   -2.1496137770
 N    0.0768758835   -1.2401967350   -2.1662961524
 H    0.3729202222    2.0784067728   -0.6357141709
 H   -1.1750695301    1.2804208180   -0.9601037868
 H   -0.8004830019    1.8669666964    0.6708726394
 H    1.0282342002    0.1631595635    0.8814969284
 H   -0.5147620321   -0.6177194695    0.5706125973
 H    1.7126075231   -0.0552724726   -1.4837001550
 H    1.8377950832   -2.4905156459   -1.8336086493
 H    0.4199315459   -3.8533740469   -0.0122171408
 H   -2.1156813568   -3.2971981301   -0.5928112177