15

 C   -0.0871720843    1.5213766516   -0.1177520887
 C   -0.0691892313    0.0030683562    0.0513395223
 N   -1.4058811775   -0.5704241028    0.0239423312
 N   -1.9779109422   -1.1046375993    1.0835287983
 N   -3.1762759995   -1.4916265252    0.7086691973
 C   -3.2761739558   -1.1569835248   -0.6030132408
 N   -4.4202560523   -1.3551630908   -1.3395487710
 N   -2.1747913308   -0.5740810143   -1.0719268463
 H    0.9368752736    1.9052310863   -0.1037640575
 H   -0.5495769033    1.7963805385   -1.0684759039
 H   -0.6467004923    1.9954107177    0.6932087878
 H    0.5113555179   -0.4711568312   -0.7454284860
 H    0.3538015645   -0.2912468962    1.0134589774
 H   -5.0106134920   -2.0852917401   -0.9692608919
 H   -4.2673741747   -1.4317808558   -2.3338541881