17

 O   -0.0155428508    0.2258553978   -0.9383510406
 C   -0.0513240352    1.1695863623   -0.1849833835
 C   -1.3605597578    1.8933390883    0.1353897684
 C   -1.2912998299    2.7598240737    1.4039679399
 C   -0.1317146540    3.7381066284    1.2957239534
 N    0.9888916992    3.5538977576    2.2338278299
 C    1.1620927944    3.1806935272    0.8159626153
 C    1.2117005125    1.6930528746    0.5052959088
 H   -1.5853513089    2.5270683069   -0.7340547639
 H   -2.1562023057    1.1441741044    0.1793950696
 H   -2.2386129264    3.2863990682    1.5550406306
 H   -1.1349058311    2.1287879103    2.2846221441
 H   -0.3811545930    4.7544312011    1.0002297439
 H    1.4422384775    4.4459025535    2.4152905369
 H    1.7929036604    3.8178416357    0.2018427077
 H    1.3037100514    1.1433961832    1.4515446104
 H    2.0719155476    1.4167032268   -0.1085809809