18

 O   -0.2014090802    1.5110565422   -0.2278062431
 C    0.0848578156    0.1246061791   -0.0121761882
 C   -1.1852699727   -0.7708744846    0.1850291391
 C   -1.4168599611   -1.5965547205   -1.1245524165
 C   -0.0954308965   -1.4571196904   -1.8288784314
 C    0.7068945313   -0.5468422500   -1.1894976981
 N    1.8813788619   -0.4320716135   -1.8844899548
 C    1.8292346944   -1.2797669336   -2.9690082034
 C    0.6119089517   -1.9328701255   -2.9660091120
 H   -0.6255413829    1.5791079396   -1.0909375022
 H    0.7039864501    0.1283941445    0.8913094738
 H   -1.0099162921   -1.4559191357    1.0200380864
 H   -2.0377363302   -0.1423430204    0.4556649457
 H   -1.6812029740   -2.6341790519   -0.8934238610
 H   -2.2471802184   -1.1960564434   -1.7204714836
 H    2.6526500918    0.1697614218   -1.6543188131
 H    2.6635584181   -1.3551635621   -3.6488849492
 H    0.2921277532   -2.6604818657   -3.6965111482