25

 C   -0.2195603890    1.4621139625    0.0332414348
 C    0.0167376068   -0.0519875240   -0.0529905117
 C    0.7716587606   -0.4196784201   -1.3377760785
 C    0.7490248099   -0.5678930092    1.1845357597
 C    0.0325773897   -0.4837309525    2.5687804538
 C    0.5325779642   -1.9036694012    2.8613442804
 C    1.3949976994   -2.2976058971    4.0255453943
 C    0.0158973105   -2.8987568347    3.8534982874
 C    0.8891175232   -2.1096652394    1.3840957944
 H    0.7332957246    2.0046687413    0.0596829133
 H   -0.7828332239    1.8251498140   -0.8329257925
 H   -0.7805977263    1.7312985515    0.9339149987
 H   -0.9657555289   -0.5473951875   -0.0833431662
 H    1.7594205618    0.0566088895   -1.3596090562
 H    0.9219075568   -1.5008565992   -1.4209353053
 H    0.2250930979   -0.0883504292   -2.2270480848
 H    1.7356675838   -0.0923095375    1.2451675736
 H    0.3478404702    0.3099384792    3.2520736581
 H   -1.0578287342   -0.4378748803    2.4606737525
 H    2.2553306261   -2.9324926613    3.8363040594
 H    1.5410517980   -1.5766053645    4.8242272233
 H   -0.7672064761   -2.5834613399    4.5363642045
 H   -0.0532840266   -3.9386717091    3.5489335897
 H    0.1142032079   -2.6626929724    0.8396284291
 H    1.8600814135   -2.5606851287    1.1604853081