18

 O   -0.1275774195    1.4670527420    0.0608971179
 C   -0.0646608352    0.0640928461   -0.1001437438
 C   -1.4032091397   -0.6114169897    0.0277790844
 C   -1.8531106239   -1.7832723575   -0.7522104368
 N   -2.4799912073   -0.4666560287   -1.0144671186
 C   -3.4462335871   -0.1002158163    0.0972179541
 C   -3.6076773073   -1.0696303509    1.2533813953
 C   -2.3919877574   -0.1955639511    1.1545255034
 O   -2.0340964851    0.7500599949    2.1097181970
 H   -0.5787725833    1.6328055512    0.8986266594
 H    0.3339021307   -0.1223865692   -1.1029344698
 H    0.6359013193   -0.3959151672    0.6202129909
 H   -1.2226018826   -2.0965041377   -1.5804246591
 H   -2.4173054014   -2.5937597925   -0.3057214251
 H   -4.1777671152    0.6657286267   -0.1225877455
 H   -4.3254283049   -0.6963606582    1.9788406595
 H   -3.5965104563   -2.1509269240    1.1675163993
 H   -1.7410453139    0.2883661620    2.9039111575