15

 O   -0.0307150864    0.1786311536   -0.8497432862
 C   -0.0032746601    1.2428610432   -0.2761236630
 N    1.1244202702    1.8246729136    0.2358189689
 C    2.4153135737    1.1568209999    0.1909902424
 C    3.4585553480    1.9664465720   -0.6325431213
 C    3.0091828143    2.2504852917   -1.9922238517
 N    2.6556352176    2.4847652278   -3.0665594659
 C    2.9447999449    0.9039186806    1.5311448290
 C    3.3997941290    0.7352601539    2.6300025271
 H   -0.8981659477    1.8709003471   -0.1092184647
 H    1.0330190592    2.6651110648    0.7854411560
 H    2.2216673385    0.2085092015   -0.3212826161
 H    3.6726680592    2.9117161034   -0.1222535372
 H    4.3970074523    1.4043944888   -0.6679856292
 H    3.7904195670    0.5610135380    3.6027134920