23

 C   -0.1723926579    1.5376118380   -0.0680752264
 C    0.0253422314    0.0071216189    0.0209944414
 C    0.8214916797   -0.3369654116    1.3004653323
 C   -1.3535340583   -0.6898864424    0.0671971113
 C    0.7700408862   -0.4534348195   -1.1582054001
 C    1.3822235088   -0.8307044897   -2.1269518416
 C    2.1102183281   -1.2734664377   -3.2821376305
 C    3.2178259582   -2.3064411671   -3.1449924467
 C    1.9287471345   -2.6875363884   -3.8113725737
 H    0.7909282787    2.0543476285   -0.1018887835
 H   -0.7337451712    1.8070218099   -0.9672443236
 H   -0.7268193036    1.8981334658    0.8053678016
 H    0.2768208221    0.0027250900    2.1883536721
 H    0.9768329213   -1.4163971942    1.3850728542
 H    1.8022063667    0.1470118447    1.2916154535
 H   -1.9366451151   -0.4605300808   -0.8291752146
 H   -1.2398637178   -1.7760346892    0.1287381136
 H   -1.9194902227   -0.3529855027    0.9427817165
 H    2.2755252203   -0.5107205817   -4.0380808120
 H    4.1011626883   -2.1738069247   -3.7595926710
 H    3.4106191334   -2.6907319941   -2.1505608126
 H    1.2456639827   -3.3307533178   -3.2696991957
 H    1.9190972562   -2.8189446341   -4.8875908844