19

 C   -0.0896750459    1.4195031163    0.1318480539
 C    0.0282340789   -0.1006654331   -0.0353639681
 O    0.7918231847   -0.5620349617    1.0824905274
 C   -1.3608991030   -0.7348040556   -0.0760091814
 C   -1.6361536245   -2.0772259545    0.4875578998
 N   -2.1360809312   -0.8627365158    1.1629321045
 C    0.7442449132   -0.3814164883   -1.3773116297
 N    2.0525813324   -0.7458668773   -1.2529878441
 O    0.1683901695   -0.2776539529   -2.4424977574
 H    0.9026867254    1.8739416613    0.1998785846
 H   -0.6152190384    1.8451903995   -0.7252477146
 H   -0.6449275159    1.6528797696    1.0438055172
 H    0.8857649708   -1.5182596298    0.9998486090
 H   -1.9350980201   -0.4198192712   -0.9409451693
 H   -2.3972793391   -2.7039708216    0.0325258262
 H   -0.8367570464   -2.6372040694    0.9680285849
 H   -1.5155428114   -0.6614216119    1.9465944260
 H    2.5165763951   -0.6133161093   -0.3696381953
 H    2.6031736357   -0.7994017044   -2.0952079139