20

 C   -0.4184869430    1.1218344263    0.7103718524
 C    0.9985732316    0.9285488172    0.2101727383
 C   -0.0149724105   -0.1475222235    0.0092995635
 O    0.1792400796   -1.3155651005    0.7702866033
 C   -0.9433027290   -2.0055412787    1.0751010708
 N   -0.8634047145   -3.0831050891    1.7198790155
 C   -2.0682657484   -3.7983410584    2.0222028430
 C   -2.6427541309   -3.7502274798    3.4094168792
 C   -3.4220918654   -3.1594217075    2.2512722486
 H   -0.5757258455    1.0624533641    1.7813231790
 H   -1.0713256981    1.8134504691    0.1896642840
 H    1.3328371723    1.4878974023   -0.6556731236
 H    1.7628039441    0.7336712694    0.9532802903
 H   -0.3888063143   -0.3360131379   -0.9943343470
 H   -1.8712610688   -1.5428986956    0.7154411626
 H   -2.0780319766   -4.7794290103    1.5534098463
 H   -2.9894579079   -4.6725880160    3.8620239333
 H   -2.1855923743   -3.0511972785    4.1014329247
 H   -3.5051350333   -2.0790979177    2.2152927830
 H   -4.3042612473   -3.6806825050    1.8954746229