17

 C   -0.6093628464    1.3757188613    0.1759247332
 N    0.3567716691    0.2950713392   -0.0617726767
 C    0.8071629454   -0.3879872429    1.0972286415
 C    2.1311228627   -0.3775647107    1.4932014116
 O    3.1888918140    0.1991638958    0.9012405533
 N    2.2280977248   -1.0681408514    2.6395735061
 N    1.0090309179   -1.5665641097    3.0444291861
 C    0.1597661967   -1.1457933457    2.1171717668
 N   -1.2100305771   -1.3985338940    2.2296682574
 H   -0.1350062828    2.1516661055    0.7838166214
 H   -0.8950646995    1.8194399257   -0.7830040710
 H   -1.5185647303    1.0497336986    0.7009183945
 H   -0.0020449933   -0.3420796724   -0.7650869889
 H    2.8243784045    0.6273220696    0.1103453516
 H    3.0493719140   -1.2493290726    3.1874744831
 H   -1.3916436275   -2.0953509327    2.9423424200
 H   -1.6324247920   -1.6806156537    1.3542719300