15

 O   -0.0108459795    1.3274423968    0.0910567163
 C    0.0875520903   -0.0425312762    0.0592620348
 C   -1.0454307173   -1.0403696502    0.1637195211
 C   -0.2807355013   -0.9324986861   -1.1340130700
 N    0.5446865079   -2.1615413534   -0.9296672155
 C    1.8829383040   -1.6357669459   -0.4577676867
 C    1.1400893134   -0.9768992917    0.7200232470
 C    0.0392115488   -2.0767354275    0.5298566502
 H    0.5699603043    1.6967075866   -0.5840924351
 H   -2.0980680134   -0.9408576863    0.3873424658
 H   -0.5908443389   -0.5641445026   -2.1041448241
 H    2.5144962326   -2.4778069077   -0.1602815599
 H    2.4169725710   -1.0042097886   -1.1761174711
 H    1.5850550313   -0.6867371499    1.6712021646
 H   -0.0646766030   -2.9927387673    1.1078428226