16

 C   -0.0966596846    1.3607529860    0.0470285272
 O   -0.0096317243   -0.0435795755   -0.0859966134
 C   -1.2379320256   -0.6773555995    0.0691753294
 C   -1.0605273259   -2.1762939699   -0.0249741807
 O   -0.0005663879   -2.7392436274   -0.1083419258
 C   -2.3479508198   -3.0567073714   -0.0359003110
 O   -2.0019137626   -4.4022734694   -0.1096608926
 C   -3.1694773159   -2.7621049312    1.1548113482
 N   -3.8077068870   -2.5001592312    2.0818342517
 H    0.9123859243    1.7552091874   -0.0849619787
 H   -0.7569246319    1.8010626210   -0.7156231070
 H   -0.4700110574    1.6513627706    1.0404077786
 H   -1.7073189018   -0.4565115876    1.0452278694
 H   -1.9735557114   -0.3657791484   -0.6966988167
 H   -2.9378583965   -2.7603505199   -0.9189851496
 H   -1.0283217217   -4.4139090737   -0.0768567290