16

 O   -0.0251660506    1.4333883839   -0.0838883470
 C    0.0077706567    0.0234460517   -0.0215156128
 C   -1.3918414462   -0.5686881928    0.0109081463
 O   -2.0244028183   -0.1805815487   -1.2032677132
 C   -3.3850636461   -0.5440609253   -1.2562498602
 C   -3.9635305168   -0.1021400258   -2.5176337909
 C   -4.4665635974    0.2544793291   -3.5549632659
 C   -5.0328835266    0.6588501448   -4.7300428429
 N   -5.5162418869    1.0021506481   -5.7287087002
 H   -0.5738429907    1.6578632483   -0.8441456857
 H    0.5595289323   -0.4099475532   -0.8703516389
 H    0.5376233020   -0.2474017266    0.8973601380
 H   -1.3555585048   -1.6665455721    0.0962232199
 H   -1.9499518246   -0.1691038777    0.8718438062
 H   -3.5068813733   -1.6372085412   -1.1673985329
 H   -3.9494627888   -0.0936465524   -0.4217234294