19

 O   -0.0736094035    1.4446779787    0.0110549223
 C    0.0128578592    0.0245718662    0.0077957815
 C    0.7762692957   -0.5093088066    1.2260533416
 C    0.7670177609   -2.0450895480    1.2694927383
 C   -0.6668822248   -2.5934402403    1.2309001178
 C   -1.4388453312   -2.0497974504    0.0196689562
 C   -1.4163849212   -0.5149165303   -0.0197516476
 H    0.8210138805    1.7950798496    0.0705476904
 H    0.5312119398   -0.3185955054   -0.9059698139
 H    1.8083765470   -0.1336367758    1.2124240041
 H    0.3020591617   -0.1032857983    2.1293769132
 H    1.3270236112   -2.4367059499    0.4088860409
 H    1.2897195771   -2.3992686035    2.1648262030
 H   -0.6530959474   -3.6890271557    1.2124323190
 H   -1.1894174490   -2.3030698705    2.1527753388
 H   -0.9889871450   -2.4449666197   -0.9018192205
 H   -2.4741323753   -2.4076157393    0.0349722548
 H   -1.9494338318   -0.1078024983    0.8495183453
 H   -1.9285041939   -0.1364496126   -0.9105373950