15

 C   -0.0077030746    1.3683898336    0.0248314884
 C    1.4243869372    1.9241201691    0.0222025350
 O    2.1491892288    1.5465308382    1.1920621589
 C    1.9284601196    0.2193163039    1.4483356780
 C    0.9269537015   -0.4945753061    0.8741672544
 O    0.9326673200   -1.7762819110    1.2811478720
 C    1.9892380010   -1.8846659664    2.1569789236
 C    2.6318491012   -0.6936973459    2.2958841972
 O   -0.0169918298   -0.0699292382    0.0128175256
 H   -0.5420319892    1.7223368189    0.9154139538
 H   -0.5430209825    1.6874762761   -0.8715770982
 H    1.9506697684    1.5604239142   -0.8713506586
 H    1.3994313788    3.0164140613    0.0034202920
 H    2.1408490356   -2.8645497072    2.5739115792
 H    3.4911507541   -0.4895048505    2.9140254988