23

 C   -0.2277774262    1.0783211633    0.6652564055
 C   -0.1158797654   -0.3232895289    0.0619695609
 C    0.7131029008   -0.3581917004   -1.2260053799
 O    2.0272407317    0.0566500966   -0.8718596762
 C    2.8096284806    0.5492855772   -1.9386161738
 C    0.7260058728   -1.7474872486   -1.8436813536
 C   -0.4818558582   -2.2499694045   -2.6139471312
 C    0.8142999097   -1.9712707000   -3.3268959432
 O    0.9196489410   -0.8363433634   -4.1404381225
 H    0.7645355031    1.4842067254    0.8756758693
 H   -0.7334180894    1.7654200183   -0.0231136979
 H   -0.7994380767    1.0624028324    1.5983511955
 H    0.3492155975   -1.0054250722    0.7848343418
 H   -1.1115464449   -0.7254107589   -0.1562094724
 H    0.2875577687    0.3500592745   -1.9542820122
 H    3.7718134561    0.8468230191   -1.5127050593
 H    2.9788343883   -0.2009026371   -2.7207551175
 H    2.3427280070    1.4268949566   -2.4105292811
 H    1.2439845313   -2.4778255602   -1.2274850387
 H   -0.8102380225   -3.2749259205   -2.4803139141
 H   -1.2818307059   -1.5344602101   -2.7800960443
 H    1.4011885016   -2.8248483489   -3.6661500388
 H    0.4002288491   -0.9913869996   -4.9361964663