20

 C   -0.3144009045    1.6790238828   -0.2666782998
 C   -0.0622244402    0.1856935969   -0.0641271172
 O   -1.3452123325   -0.4605752218    0.0714855204
 C   -1.7120203757   -0.9306004100    1.2793964249
 O   -2.7647527739   -1.4578905675    1.4742978670
 C    0.6984440652   -0.4722768821   -1.2148763774
 C    2.0744077476    0.1091125902   -1.4742504035
 C    0.4522100087   -1.9058759279   -1.5151171009
 N   -0.0486521390   -0.8526695985   -2.4238750545
 H    0.6268834949    2.2321164495   -0.3069120400
 H   -0.8604400984    1.8538624496   -1.1979630857
 H   -0.9077207240    2.0757544443    0.5615253601
 H    0.5062915680    0.0322698689    0.8645283101
 H   -0.9354499812   -0.7743172315    2.0533086095
 H    2.7011231119    0.0618751549   -0.5759481933
 H    2.5692102108   -0.4553987136   -2.2673438181
 H    2.0181795777    1.1525669699   -1.7983627446
 H    1.2621293885   -2.5096064353   -1.9154959175
 H   -0.2730665547   -2.4508777769   -0.9204623170
 H   -1.0459661991   -0.7367907518   -2.2534830225