16

 N    0.1414139389   -1.1571816317    0.1154247097
 C    0.0604408831   -0.0025498787    0.0594503338
 C   -0.0516234611    1.4048945966   -0.0220392923
 C   -0.0459315939    2.4850310250    1.0564230372
 C    1.0059575503    2.5053677552   -0.0392116795
 C    0.2736218714    3.3417993747   -1.1161928259
 C   -0.4721796877    4.4751093954   -0.3686245257
 C   -1.1674030096    3.3137806119    0.3846393956
 C   -0.9443124321    2.3748513666   -0.8611715298
 H    0.1880728421    2.3610110092    2.1046178734
 H    2.0649648429    2.3972823155    0.1496577432
 H    0.7497620032    3.4744202457   -2.0855860821
 H    0.1131872869    5.1981700339    0.2069205852
 H   -1.1697416571    5.0001471701   -1.0285561018
 H   -2.1188528790    3.4186282049    0.9021064220
 H   -1.7005071084    2.1061923956   -1.5922531329