20

 C   -0.1807754555    1.4193516883    0.0719326317
 C   -0.0393201976   -0.1021593776   -0.0615112101
 N    1.0183654096   -0.4337017737   -1.0075562649
 C    0.9512251607   -1.7809992864   -1.5614776093
 C    1.2771934032   -2.8635925221   -0.5710216825
 C    1.5488142069   -2.7277808944    0.7266326696
 C    1.5518882586   -1.4385175096    1.5251556723
 C    0.2354095092   -0.6919661936    1.3364823809
 O   -0.5727281633   -0.5584524228    2.2236754235
 H    0.7760552656    1.8723845463    0.3515864101
 H   -0.5052509196    1.8607875862   -0.8762991893
 H   -0.9199430024    1.6551123381    0.8390906598
 H   -1.0198527657   -0.5119539039   -0.3689783197
 H    1.0153937523    0.2388354735   -1.7649301441
 H   -0.0402804347   -2.0082898844   -2.0071312599
 H    1.6675472518   -1.8382368868   -2.3922695100
 H    1.2782020701   -3.8662175125   -0.9945382604
 H    1.7504969995   -3.6276722193    1.3011197739
 H    1.6616129671   -1.6485976313    2.5904080814
 H    2.3733960640   -0.7907283238    1.2016439270