18

 C   -0.0082563669    1.5526897576   -0.0960887382
 C    0.1180386761    0.0488048553   -0.0660562400
 C    1.4612299122   -0.6588869459   -0.1630885220
 O    2.6037734877    0.1329802729    0.0810259858
 C    2.7379493295    0.1555554273    1.4907359898
 O    1.4326375649    0.0874929205    2.0302073043
 C    0.6877359540   -0.7129709075    1.1210723913
 C    0.0383888629   -1.9206412328    1.7347976271
 H   -0.0105142674    1.9208551017   -1.1271828364
 H   -0.9413544859    1.8725844501    0.3789562606
 H    0.8188167363    2.0286899413    0.4317508179
 H   -0.6820180184   -0.4875022357   -0.5742676775
 H    1.6238118991   -1.5065212197   -0.8217280220
 H    3.3415189514   -0.7043920088    1.8312171268
 H    3.2063454695    1.0963392005    1.7935516477
 H   -0.7074560083   -1.6231485476    2.4794582670
 H   -0.4676679283   -2.5159943314    0.9691810868
 H    0.7804872116   -2.5546712579    2.2312278210