15

 O   -0.7191625430    1.4935918937    0.5763453817
 C    0.1809606220    1.1623038942   -0.1463786529
 C    1.4049717934    2.0393255658   -0.4465813316
 O    2.3926047705    1.5141630522   -0.9038839190
 C    1.3367097504    3.4975671113   -0.1047013248
 C    1.1245145778    4.1791977374    1.2814916510
 C    1.0316111589    5.2353967583    0.1549602999
 C    2.2911512897    4.6374601808   -0.5204521267
 O    0.1926451910    4.2856963430   -0.6249625858
 H    0.2519655194    0.1629386197   -0.6258123305
 H    0.1836185232    3.9239616202    1.7653277090
 H    1.9780133790    4.2211422666    1.9618688009
 H    0.6973958326    6.2706627945    0.2017066213
 H    3.2466659056    4.7206500156    0.0007998534
 H    2.3679889794    4.8036953068   -1.5946738659