20

 C   -0.5793552829    1.7203843079    0.0351975628
 C   -0.0539101318    0.2883099276    0.0388856146
 C   -1.1853239654   -0.7057611437   -0.2154650148
 O   -1.7166170518   -0.4588005617   -1.5099728886
 C    1.1846726376   -0.0072333554   -0.8661094958
 C    1.8069894916   -0.8200192606    0.2994942325
 O    3.1869651357   -0.7354029388    0.5553250609
 C    0.8013252897   -0.1446619725    1.2711647925
 H    0.2328080828    2.4375225696    0.1928325590
 H   -1.0652034724    1.9521434948   -0.9165553601
 H   -1.3163091351    1.8699702156    0.8339176161
 H   -0.8075444035   -1.7375269139   -0.1379298721
 H   -1.9572135461   -0.5805956855    0.5623540948
 H   -2.4342721020   -1.0788928880   -1.6668021200
 H    1.0033279533   -0.5128929986   -1.8165852177
 H    1.7625806494    0.9040620290   -1.0578934904
 H    1.6034866955   -1.8893201795    0.1956852374
 H    3.4176880374    0.1968130149    0.6281035540
 H    1.2542688611    0.7246448595    1.7609196104
 H    0.3281395668   -0.7658440407    2.0380136744