15

 N   -0.0543904542    1.3971077704    0.0171833784
 C    0.0234771428   -0.0075471468   -0.0517241845
 C    0.3388784202   -0.9863526201    1.1286755234
 O   -1.0275363557   -1.0196937406    1.6186413097
 C   -1.1618409019   -1.0074354148    0.1696351854
 C    0.0621761333   -1.9408286366   -0.0723988826
 C    0.7216874708   -0.9809059491   -1.0888360627
 C    0.2100839455   -0.9623627569   -2.4463716315
 N   -0.2227390652   -0.9116615741   -3.5183904760
 H    0.8604864963    1.8301038150    0.0849407605
 H   -0.5323783593    1.7884937898   -0.7879901888
 H    1.1614941029   -0.9789987895    1.8430161553
 H   -2.1560622459   -1.0235105470   -0.2731450381
 H    0.0700731970   -3.0272583818   -0.0645765760
 H    1.8153780634   -0.9658023880   -1.0872518725