13

 O    0.1091911907    1.4172085053   -0.0047950731
 C    0.0783471611    0.0063493536    0.0264925046
 C   -1.3583253808   -0.5372246636   -0.1303314842
 C   -1.4033074468   -2.0234794444   -0.1024875150
 N   -1.6249235832   -2.7986440789   -1.1265421493
 O   -1.5446923297   -4.0558842758   -0.6326796281
 N   -1.2646657335   -3.9878479099    0.7283272370
 N   -1.1794372814   -2.7749383352    1.0431301430
 H   -0.2590798634    1.7467417273    0.8211620329
 H    0.6879123094   -0.3324246771   -0.8170155559
 H    0.5287905020   -0.3980714778    0.9441369918
 H   -1.9782845182   -0.1533333054    0.6882423459
 H   -1.7809421662   -0.1798133980   -1.0716437796