16

 C   -0.1073350060    1.5095082323   -0.0441579880
 C   -0.0411727846   -0.0103287243   -0.0273497697
 O   -1.2880517943   -0.5806782838   -0.3123116656
 C    1.2689040824   -0.6274618113   -0.6890216029
 O    1.9649675130   -0.2106271981    0.5279618965
 C    0.7329368972   -0.6399515835    1.1889588384
 C    0.6982321131   -2.1353209323    0.8451372689
 C    1.0667892510   -2.1244934359   -0.4377655308
 H    0.8589563606    1.9458754164    0.2073271586
 H   -0.3983395019    1.8676437486   -1.0404068318
 H   -0.8574837138    1.8626793796    0.6717492483
 H   -1.7901495505    0.0398461292   -0.8488655444
 H    1.7180021858   -0.2686616597   -1.6151488500
 H    0.6233647674   -0.3005193978    2.2187728754
 H    0.4088078684   -2.9476731270    1.4941752548
 H    1.1662997225   -2.9273365023   -1.1524659676