17

 N    0.8394454998   -0.1335895756   -0.9990105984
 C    0.2585723438   -0.5624444689    0.1544144244
 O    0.8855834535   -0.7519940687    1.1850344938
 C   -1.2335767979   -0.8488157974    0.1135264953
 C   -2.0535038954   -0.5173218473   -1.1317762303
 C   -2.1206614092    0.9736319840   -1.3855839349
 O   -1.3395711836    1.5645763385   -2.0958855150
 C   -1.6455578857   -2.0130907139    0.9576172942
 N   -1.9271807261   -0.6506781226    1.4011503787
 H    1.8074014799    0.1385767691   -0.9147999523
 H    0.2954021419    0.3267170715   -1.7176964276
 H   -1.6191385715   -1.0069464968   -2.0093898013
 H   -3.0673181147   -0.8979221212   -0.9792519479
 H   -2.9245837783    1.5206447869   -0.8529600707
 H   -2.5116828522   -2.5951127656    0.6543872405
 H   -0.8489505042   -2.5577000038    1.4531516784
 H   -1.2139743301   -0.3913173680    2.0833488729