18

 C    0.0051421256    1.4074825253   -0.0281357792
 O   -0.0009062690   -0.0004110148    0.0068453628
 C    0.6356594571   -0.5740623576   -1.1100501443
 C    0.5875900186   -2.0587334905   -0.9984613643
 C    0.0544047443   -2.8250054089   -0.0457780613
 C    0.2699004378   -4.2658020254   -0.3991947409
 O    0.9768154292   -4.2374520049   -1.6446409962
 C    1.1786190512   -2.9344930821   -2.0233250326
 N    1.7729340873   -2.5559266503   -3.0764772102
 H    1.0297655269    1.8110514153   -0.0358562575
 H   -0.5227405342    1.7959570920   -0.9131332807
 H   -0.5065011140    1.7577604466    0.8712606598
 H    0.1539078229   -0.2607932547   -2.0522020817
 H    1.6862925951   -0.2453928862   -1.1870790022
 H   -0.4550698813   -2.4886061541    0.8455600038
 H    0.8743197185   -4.8055031747    0.3422607172
 H   -0.6679811552   -4.8214012829   -0.5335043726
 H    2.0912486191   -3.3576778921   -3.6224133899