20

 C   -0.3146170417    1.4583283477   -0.0825196105
 N    0.0866575229    0.0686191482   -0.0133131411
 C    1.2053193942   -0.4232546449   -0.8587649092
 C    1.6974324641   -1.3165839585    0.3197553358
 C    2.9193570104   -0.7938348657    1.1237214746
 C    1.9611030984    0.0828613372    1.9663261243
 O    1.4456484434   -0.5939368247    3.1381129495
 C    0.1655953231   -0.8823048519    2.5167133182
 C    0.7180695640   -0.4578648515    1.1666430399
 H    0.5216267680    2.1631878089    0.0754715511
 H   -0.7546617609    1.6675138325   -1.0630178717
 H   -1.0783143427    1.6599837835    0.6756156131
 H    0.8783390684   -0.9315941678   -1.7716684733
 H    1.9291230807    0.3609062101   -1.1320275053
 H    1.5638935063   -2.3898966839    0.1862693970
 H    3.4307408335   -1.5494383390    1.7249643713
 H    3.6597796575   -0.2443293507    0.5338485308
 H    2.2119367327    1.1282594580    2.1691697004
 H   -0.1344652036   -1.9300297539    2.6373248428
 H   -0.6273210989   -0.2317997435    2.9141193822