17

 O    0.3965035639    0.9305687892   -0.0303321624
 C   -0.4599946356   -0.1099954399    0.3829148872
 C   -1.8320233309   -0.0043248773   -0.2909704897
 N   -1.6389266889   -0.0148258537   -1.7320612754
 C   -2.3206285759   -0.8023006649   -2.4279443635
 O   -2.1305211579   -0.8518223291   -3.7744485173
 C   -2.9591711406   -1.7529066950   -4.4869974043
 C   -4.3441425160   -1.2724169656   -4.6176812123
 N   -5.4338890020   -0.9015494488   -4.7102074661
 H    0.3123619599    0.9730456658   -0.9916204512
 H   -0.0294405838   -1.1023164028    0.1661611608
 H   -0.5739342115   -0.0274631106    1.4691123845
 H   -2.4990336976   -0.8073114503    0.0631094742
 H   -2.2778676121    0.9592066100   -0.0161098987
 H   -3.0898344160   -1.4900167794   -2.0482944712
 H   -2.5166784824   -1.8504180533   -5.4810616388
 H   -2.9700074127   -2.7474026544   -4.0222224957