16

 N    0.3402209457    1.3895320893   -0.0882115719
 C    0.0701256037    0.0208369025   -0.0615955608
 C   -1.1034239142   -0.7032011569    0.0458539283
 C   -0.6844671178   -2.0495176958    0.0904279585
 N    0.6326500327   -2.1737677882    0.0152032810
 N    1.0855163970   -0.8873928060   -0.0680316062
 C    2.5014219289   -0.6493273160   -0.0454755122
 C    3.0727502558    0.0496084968   -1.2634146757
 O    2.4272650893    0.6285727676   -2.0995494087
 H    0.8666087286    1.6469092024   -0.9182148650
 H   -0.5106192318    1.9338374089   -0.0394875140
 H   -2.1071168469   -0.3102482958    0.0613231828
 H   -1.2975026494   -2.9364508814    0.1646591537
 H    2.7889829357   -0.0349029786    0.8236848665
 H    2.9872927603   -1.6214291703    0.0763695307
 H    4.1840423925    0.0211625716   -1.3091588769