16

 C   -0.0420262790    1.3307490347    0.0529647858
 O    0.0187485990   -0.0944108154   -0.0285058850
 C    0.6475866098   -0.5791617767   -1.1305916853
 O    1.1229428550    0.1345891839   -1.9837293647
 C    0.6700792963   -2.0417133268   -1.1439891234
 C    0.1428702756   -2.9012066537   -0.1970031604
 N    0.3920574588   -4.1728184639   -0.6142801537
 C    1.0712787047   -4.1543345211   -1.8150592780
 C    1.2579062924   -2.8447674341   -2.1682166428
 H    0.9620288828    1.7633884916    0.0704560070
 H   -0.5832874849    1.7472924694   -0.8009589829
 H   -0.5681799580    1.5544694970    0.9817347510
 H   -0.3792593253   -2.6943337716    0.7218628734
 H    0.1199530493   -5.0039912130   -0.1183660519
 H    1.3565666258   -5.0721327291   -2.3027410572
 H    1.7528557576   -2.4705519812   -3.0494962220