15

 N    0.1320906972   -1.1053919667   -0.0389054841
 C    0.0480085339    0.0489988089   -0.0204354729
 C   -0.0349084870    1.4663659625    0.0160894005
 C    0.1039856072    2.3381426423    1.2530643535
 C   -1.0204262051    3.3523038820    1.2378221759
 C   -1.1369407758    3.5237739962   -0.2598226068
 C    0.1764852584    3.3315021540   -0.9257202774
 C    1.0327543416    2.5448933410    0.0763672241
 N   -0.8588600458    2.2463600691   -0.9926347479
 H    0.4876430524    1.8907736282    2.1604012766
 H   -1.9387419709    2.9627270615    1.6874451364
 H   -0.7504568548    4.2884302583    1.7372964326
 H   -1.9088848771    4.1356201740   -0.7114149741
 H    0.5255802227    3.8370291400   -1.8169202945
 H    2.1068978632    2.4372768687    0.0991991683