23

 C   -0.8397910537    1.3992326445    0.4464658478
 C   -0.4140483599   -0.0545732513    0.3345077611
 O   -1.5118629302   -0.8113466812   -0.1465605743
 C   -1.2459771033   -2.1894730298   -0.3274248118
 C   -1.4222216750   -3.0403136680    0.9615686361
 C   -2.8996422822   -3.3353778253    0.5543129599
 C   -3.9445292693   -2.4886063592    1.2733984842
 C   -2.5393535148   -2.8416735552   -0.8904865186
 O   -3.4182606499   -2.0087913500   -1.5900195163
 H   -0.0070600049    2.0117660511    0.8044864720
 H   -1.1587751126    1.7828183248   -0.5269275627
 H   -1.6728600932    1.5048274569    1.1473756132
 H    0.4369919537   -0.1602752025   -0.3576741443
 H   -0.0866157820   -0.4379016974    1.3129731778
 H   -0.3157263238   -2.3185352950   -0.8982819544
 H   -0.7847412997   -3.9285893522    0.9616442535
 H   -1.2771542908   -2.5056603144    1.9041364011
 H   -3.1836398622   -4.3910218337    0.6017765242
 H   -3.6581006581   -1.4329770694    1.2861707132
 H   -4.9164594923   -2.5670079264    0.7770474633
 H   -4.0614625174   -2.8182265428    2.3114321247
 H   -2.2970756454   -3.6908859891   -1.5376401709
 H   -3.2489928731   -1.1147381544   -1.2651483191