19

 O   -0.0418271166    1.4595950904   -0.0998309100
 C    0.0239362515    0.0542468225   -0.0047451683
 C   -0.0107936389   -0.6275732502    1.3883684955
 C   -1.4927894159   -0.1710489487    1.5757978463
 C   -2.2620722767   -1.2507937655    2.3364709634
 C   -1.6377787913   -2.5252629373    1.7007475971
 C   -0.6652768012   -1.8788716221    0.7128213926
 C   -1.3456588381   -0.6377275502    0.0777717122
 O   -2.3304072864   -0.7193861316   -0.8884845551
 H    0.8461821394    1.8144691141    0.0025902701
 H    0.7362659058   -0.3665382024   -0.7275128830
 H    0.7695007866   -0.6384530818    2.1476415683
 H   -1.6947352022    0.8780003439    1.7841351234
 H   -2.1022995704   -1.1939262445    3.4178094402
 H   -3.3396644169   -1.1797304386    2.1584793881
 H   -1.1209969042   -3.1546656565    2.4319219983
 H   -2.3776607458   -3.1496378254    1.1912585790
 H   -0.0510918909   -2.5225994998    0.0799547198
 H   -2.5699272278    0.1789044537   -1.1431975779