19

 C   -0.3120661868    1.5072706355    0.1643577329
 C   -0.0239832147    0.0074880237    0.0452883374
 C   -1.2929720665   -0.7803270149   -0.2668593979
 C    1.1894139557   -0.2576083503   -0.9178923626
 C    2.0728789628   -0.4942439515    0.3070954809
 O    3.2506447077   -0.5322050293    0.5075674297
 C    0.8338824883   -0.5690463090    1.2313715437
 C    0.9146339324    0.0512679430    2.6004784532
 O    0.1047487355    0.8095091826    3.0709233102
 H    0.5969317881    2.0784519113    0.3814626414
 H   -0.7199985742    1.8794266044   -0.7818767182
 H   -1.0263099522    1.7125092495    0.9632713404
 H   -1.7526545069   -0.4278479067   -1.1967081050
 H   -1.0839745355   -1.8497454600   -0.3822305195
 H   -2.0304593563   -0.6645077695    0.5343109449
 H    1.0840621158   -1.1764046516   -1.5058041026
 H    1.4949874076    0.5531739262   -1.5845998898
 H    0.6223998343   -1.6386899958    1.3861147239
 H    1.8166890548   -0.2589339076    3.1726553371