20

 C    0.2582423767    1.5137369672    0.1789346574
 C    0.3045211284    0.0028951678   -0.0340687378
 C    0.9105808099   -0.4094925106   -1.3702041275
 O    1.4438273813    0.3888840604   -2.1062895724
 C    0.7843319991   -1.8874616985   -1.7362436981
 C    1.6903213005   -2.3143030105   -2.8662148793
 C    3.0514925248   -2.8906706276   -2.5732894250
 C    1.9555648534   -3.7759892064   -3.1166779740
 H    1.2573485545    1.9470105952    0.0920632469
 H   -0.3700754684    1.9960349066   -0.5748730067
 H   -0.1431572669    1.7546481569    1.1672508062
 H    0.8989205491   -0.4861629135    0.7515866894
 H   -0.6939574858   -0.4477532049    0.0473211813
 H    0.9525040098   -2.4994143981   -0.8403581935
 H   -0.2726464536   -2.0509393401   -2.0002348921
 H    1.6276021724   -1.6729503534   -3.7384465078
 H    3.8746822241   -2.6244974398   -3.2265069485
 H    3.3368417197   -3.0206461838   -1.5339574144
 H    1.5078678688   -4.4990057889   -2.4420040977
 H    2.0287603820   -4.1179319380   -4.1431870766