21

 C   -0.1742666305    0.9650591338   -0.4882830128
 C    0.1122562099   -0.2376881924    0.4056873244
 O    0.7308880154    0.1366914173    1.6315768674
 C   -1.1406150153   -1.0655957154    0.7021835200
 O   -1.6644486717   -1.5481531721   -0.5211513605
 C   -2.8371497894   -2.3386993205   -0.3943648254
 C   -3.3747682997   -2.5715826368   -1.8071335225
 C   -2.5776190150   -3.6068808593    0.3031062230
 C   -2.3636564423   -4.6473293295    0.8658892161
 H    0.7471434950    1.5157991943   -0.6954291131
 H   -0.6202586039    0.6430950782   -1.4324658169
 H   -0.8815923373    1.6484025247    0.0006879570
 H    0.8365478422   -0.8938435892   -0.0901290809
 H    0.1840669644    0.8174535078    2.0391867501
 H   -0.8764849175   -1.8924001274    1.3744037594
 H   -1.8901459625   -0.4369578853    1.2181426668
 H   -3.5882279536   -1.7774055904    0.1880082807
 H   -4.2983226287   -3.1542876248   -1.7719984698
 H   -3.5739386863   -1.6089921172   -2.2846515475
 H   -2.6371044767   -3.1157812649   -2.4015711526
 H   -2.1744923765   -5.5649678310    1.3663326671