17

 C   -0.0446494777    1.5825513526    0.0709747328
 C   -0.0002863382    0.0760023002   -0.0124515588
 O   -1.1745225060   -0.5318214936   -0.4744690732
 C    1.2924137339   -0.6558949179   -0.3171686855
 O    2.4957459947    0.0234955313   -0.4410845951
 C    0.6766797834   -0.7295912937    1.0905604926
 O    1.3753349365    0.0594343425    2.0365680603
 C    0.1096765265   -1.9406496534    1.5984301347
 C   -0.3077842020   -2.9648645184    2.0718721650
 H    0.8960948452    1.9983135029    0.4319568721
 H   -0.2367613381    1.9980129911   -0.9249598894
 H   -0.8503068832    1.9013626210    0.7380464474
 H   -1.2108985248   -0.4070501650   -1.4299483324
 H    1.2236266905   -1.5426389648   -0.9409626856
 H    2.7125265959    0.3445367166    0.4471458098
 H    1.8078391319   -0.5504706538    2.6450481086
 H   -0.7032818885   -3.8627543377    2.4781765766