21

 C    0.9651189907    1.4761724956   -0.2328085163
 C    0.1564067512    0.1860084754   -0.0054971517
 C    0.3983368452   -0.8149443729   -1.1137751768
 C    1.1583976759   -1.8359967018   -0.7278045898
 C    1.5554099056   -1.7227889246    0.7382229314
 C    2.9709251114   -1.3808320962    0.8821878367
 C    4.1384591432   -1.1102515667    0.9892583201
 C    0.5461273667   -0.6384749641    1.2604644736
 C    0.9943011722    0.1500940787    2.4871961751
 H    2.0385390846    1.2674668551   -0.2654490904
 H    0.6849059990    1.9400067055   -1.1845498799
 H    0.7799905657    2.2075182968    0.5600698578
 H   -0.9044956708    0.4623805786    0.0534795115
 H    0.0278883800   -0.6632662859   -2.1225296641
 H    1.5168946419   -2.6430580253   -1.3557428399
 H    1.3875881073   -2.6665291779    1.2738486971
 H    5.1690401766   -0.8726649020    1.0833165657
 H   -0.3506349196   -1.2080901719    1.5316550903
 H    1.9201857538    0.7004510231    2.3032942800
 H    0.2231792376    0.8666588435    2.7898964211
 H    1.1739407918   -0.5198645031    3.3346158487