16

 C    0.3760797081    1.4592894525   -0.0806951861
 N    0.6134880267    0.0292854549    0.0061971843
 C    0.2894114179   -0.6963471827    1.0965678052
 O   -0.2265940924   -0.2492654151    2.1093608241
 C    0.6066182807   -2.1862862000    1.0290930333
 C    1.1853883445   -2.7701840666    2.2902298096
 N   -0.1929013830   -3.0425945312    1.9252773019
 C    0.9603650300   -2.7379386386   -0.2557932339
 N    1.2715077028   -3.1006230775   -1.3094122860
 H    1.3154718106    2.0047518269   -0.2170819843
 H   -0.2922744781    1.6933235181   -0.9154226789
 H   -0.0901031510    1.7754834333    0.8524320406
 H    1.0170620442   -0.4471185799   -0.7859737158
 H    1.8676970356   -3.6097918411    2.2039655475
 H    1.3855920744   -2.0562366687    3.0833043849
 H   -0.7979383209   -2.4002956043    2.4414731836