25

 C   -0.0737452554    1.2718609374   -0.7080294078
 O   -0.0823992884    0.2394947211    0.2573104210
 C   -1.3008121836   -0.4367503339    0.3146950939
 C   -1.5859657271   -1.5559144513   -0.6611011037
 C   -1.3207920904   -1.8545485013    0.8044111371
 C   -0.1088348241   -2.6326253570    1.3387030015
 C    1.0918281336   -2.6474596959    0.3752713017
 C    0.3177846994   -1.9953379165    2.6771542710
 C   -0.5571955275   -4.0875247600    1.5843436011
 H    0.9089944087    1.7472054473   -0.6650326802
 H   -0.2437874638    0.8811613373   -1.7214176910
 H   -0.8449036820    2.0278229333   -0.4950803318
 H   -2.1347929378    0.2063722569    0.6035276465
 H   -2.5884686810   -1.6784168320   -1.0572392692
 H   -0.7920304198   -1.7845777157   -1.3632027190
 H   -2.2168345810   -2.0793915777    1.3804081094
 H    1.4188019445   -1.6363247528    0.1286178302
 H    1.9301418830   -3.1780208023    0.8398870406
 H    0.8515246044   -3.1719537897   -0.5555484057
 H   -0.5196253298   -1.9643325425    3.3835818641
 H    1.1251615701   -2.5708539299    3.1437849773
 H    0.6673099564   -0.9710088205    2.5223937112
 H   -0.9075040504   -4.5540343381    0.6572997531
 H    0.2723081899   -4.6891236865    1.9718175989
 H   -1.3731244477   -4.1356605900    2.3142239798