17

 C   -0.0417346261    1.4914830422   -0.0512311745
 C    0.0544475763   -0.0082656147   -0.0317212407
 C    0.6661700665   -0.9626342974   -1.1505915602
 C    0.1858217622   -1.9053040768   -0.0270176251
 N   -0.0252677490   -3.2367359170    0.5993207903
 C   -0.5775568456   -2.8174204728    1.6745524533
 N   -0.7318199791   -1.3232870534    1.7744632604
 C    0.5952589456   -0.9323995120    1.0896042635
 C   -1.0497354112   -1.0483283400    0.2890904302
 H    0.9494162285    1.9509779193   -0.1290033572
 H   -0.6376634454    1.8391404394   -0.9018578570
 H   -0.5142818308    1.8563538616    0.8663651914
 H    0.1274977317   -1.0004955824   -2.1014183935
 H    1.7446058586   -0.8865687348   -1.3144947684
 H   -0.9266720494   -3.4491324660    2.4832058023
 H    1.5411823692   -0.8894482972    1.6322664966
 H   -2.0575073620   -1.1430576482   -0.1189784513