15

 N   -0.1482498652    1.1878940571   -0.5430114884
 C   -0.0751035741    0.0273723373   -0.0853942608
 O    0.9550507836   -0.6297569297    0.5778833050
 C    0.1880429947   -1.8667559140    0.6386421339
 C   -0.6006900148   -1.9920720391    1.9565378721
 C   -1.8397276633   -1.3155670832    1.2633517605
 C   -2.3971453004   -0.1222815165    1.8766827627
 N   -2.8375102163    0.8150792851    2.3898747982
 C   -1.0062559312   -1.1629638980   -0.0607473328
 H    0.7033551638    1.7233641942   -0.3677780143
 H    0.7505122606   -2.7118387482    0.2456752769
 H   -0.8024507145   -3.0170034055    2.2718743846
 H   -0.1614572160   -1.4342773815    2.7837520240
 H   -2.6449162299   -2.0386875865    1.1142787393
 H   -1.4827665173   -1.4608652914   -0.9910550409