14

 C   -0.0547729767    1.4091686611    0.0374693155
 N   -0.0289184203   -0.0318740964    0.1274707267
 C   -1.1978551492   -0.8533294396   -0.0969813855
 C   -0.5790342707   -2.2570562187    0.0293003550
 O    0.8186111727   -2.0674036679   -0.2159527604
 C    1.1309923689   -0.7404335818   -0.0908970092
 O    2.2519538191   -0.3150192154   -0.1632675645
 H    0.9735151706    1.7648897270    0.1167168264
 H   -0.4765009330    1.7478732211   -0.9195919051
 H   -0.6509403126    1.8389618315    0.8495573910
 H   -1.9781686216   -0.6750822412    0.6502578901
 H   -1.6335030990   -0.6750722481   -1.0926040584
 H   -0.7095366784   -2.6653599940    1.0376235255
 H   -0.9688849999   -2.9709120276   -0.6984195770