18

 C   -0.0757489050   -1.1832419691   -0.4230925405
 C   -0.0034519496   -0.0169955318   -0.1421006722
 C    0.0360100702    1.3985173384    0.1788175005
 O   -0.0697804879    1.6838416990    1.5964769557
 C    1.2147967181    2.3417056866    1.6210668151
 C    1.4144822187    2.1331651996    0.1082213814
 N    2.5481106449    1.3152939374   -0.2452779277
 C    2.9321550200    1.3116387203   -1.6541597324
 C    3.7582465718    2.0320746672   -0.6483022764
 H   -0.1265923474   -2.2169744061   -0.6610747484
 H   -0.7567234951    1.9204569125   -0.3735382068
 H    1.1357518761    3.3804949784    1.9613730337
 H    1.9425936300    1.8015594519    2.2366661085
 H    1.3552794434    3.0612591944   -0.4823103448
 H    3.2507364196    0.3519895030   -2.0484697089
 H    2.3485749354    1.9180660228   -2.3450097402
 H    3.7278368213    3.1204863815   -0.6646435122
 H    4.6928127853    1.6080840240   -0.2938327545