19

 C    0.0082138304    1.4466189515   -0.0077255267
 C   -0.0138482152   -0.0074593762   -0.0011435154
 C   -0.0298859622   -1.2131320523   -0.0037579574
 C   -0.0304108629   -2.6329814607    0.0010114046
 O    0.7803903183   -3.3390688461   -0.9601909093
 C   -0.2834306874   -4.3010792829   -1.1826007793
 C   -1.1393873632   -3.6890869852   -0.0845650221
 C   -0.3292596888   -3.5240391128    1.1841688656
 C    0.6554795400   -4.5360899014    1.7235372135
 H    0.7756448747    1.8184076129   -0.6956818654
 H   -0.9532337708    1.8609575843   -0.3315549703
 H    0.2300336521    1.8511988038    0.9860913983
 H   -0.7085097533   -4.1749426173   -2.1845136240
 H    0.0565350857   -5.3351453085   -1.0532481105
 H   -2.2114404888   -3.5506444074   -0.1230904544
 H   -0.9015881338   -2.9925986283    1.9415650545
 H    1.3302514573   -4.8839235043    0.9381790012
 H    1.2692674687   -4.0890080666    2.5120541976
 H    0.1390210791   -5.4027842624    2.1499769894