18

 O   -0.0267844161    1.4191781542    0.0620089203
 C    0.0109629713    0.0337869686    0.0108962636
 C    0.9407743768   -0.7063909353    0.9677599072
 C    0.5289888344   -2.1457897686    0.5562715680
 N   -0.4960907423   -1.9312602728   -0.4972555656
 C   -1.3392873149   -0.7690906953    0.0486886054
 C   -2.0777820263   -0.3118364519   -1.1956257030
 C   -1.1218919199   -0.3329192909   -2.1261707312
 C    0.0905021106   -0.7980753929   -1.3469264385
 H    0.8577315206    1.7465830173    0.2529351726
 H    1.9969995500   -0.4826483585    0.7778359737
 H    0.7262143503   -0.4678822312    2.0140503422
 H    1.3552828391   -2.7313962016    0.1437052358
 H    0.0896444295   -2.7161184193    1.3792387982
 H   -1.8834806047   -0.9421019356    0.9788559653
 H   -3.1232606718   -0.0514186230   -1.2616771195
 H   -1.1568929961   -0.0910124950   -3.1777668426
 H    1.0325929095   -1.0014374482   -1.8599266817