14

 O   -0.1720828384    0.0921286768    0.4531088476
 C    0.0112362444    1.1838631044   -0.0082682878
 N    1.2339912606    1.7468523464   -0.3517838271
 C    2.5005831229    1.1498116060   -0.2867006737
 O    2.7108501774    0.0007011738   -0.0046513478
 N    3.4872543064    2.0866598464   -0.6710821854
 C    4.0288366800    3.0150426510    0.3340496127
 C    4.8385183602    1.8764945928   -0.1869753884
 H   -0.8057102322    1.9051723070   -0.2161986936
 H    1.2130538885    2.6833629181   -0.7283340979
 H    4.2076759478    4.0278836784   -0.0144067260
 H    3.6458996279    2.9337988193    1.3481302525
 H    4.9898056435    1.0200776681    0.4629988466
 H    5.6217671510    2.0600129115   -0.9155178619