14

 O   -0.8018869727    1.0180796921   -0.2767215635
 C    0.2913292590    0.6668978658    0.0767627515
 C    1.5130790457    1.5799548984    0.0090490258
 N    2.6267600386    0.7496124317   -0.5585552503
 C    3.1219886702    1.5652741220   -1.3946531949
 O    2.8822879420    1.4423042636   -2.7690102226
 C    2.0307435015    2.6427088572   -2.4748010741
 C    1.3943930618    2.7534730427   -0.9938390762
 C    2.8093034303    3.0961397945   -1.3293543088
 H    0.4929058579   -0.3368501548    0.5021508238
 H    1.6864206426    1.9530297543    1.0359016934
 H    1.6239431123    3.1362969777   -3.3485014561
 H    0.6175702436    3.5039759046   -0.8830062908
 H    3.4504753872    3.9445333503   -1.1350482772