14

 N    0.0826975304    1.3899316992    0.1563986333
 C   -0.0450495773    0.0200563969    0.0420424252
 C   -1.2059941452   -0.6704627278    0.0312723799
 C   -1.1951857889   -2.1076999833   -0.0085431774
 N   -2.2247206914   -2.8440075021   -0.0182439576
 O    0.0822021327   -2.7161307046   -0.0575228110
 C    1.2587932376   -2.0475026875   -0.0235969830
 O    2.3113095258   -2.6224459622   -0.0078661272
 N    1.1569324411   -0.6658012204   -0.0125577681
 H    0.8181469341    1.8058841986   -0.3996525509
 H   -0.7872728896    1.8939546864    0.0643071773
 H   -2.1657625210   -0.1760335905    0.0364958775
 H   -1.9639602054   -3.8287436199   -0.0629030415
 H    2.0273740671   -0.1851163327    0.1538243235