18

 O   -0.0411892480    1.3562172613   -0.1706321234
 C   -0.0318917235   -0.0278882141    0.1429828285
 C   -1.4224596281   -0.5781978229    0.2059761593
 C   -2.0327964624   -1.8202298029   -0.3278614246
 C   -3.3133749691   -1.4820322528    0.4753067993
 C   -3.5977580541   -0.3272180539   -0.5339429170
 C   -3.4796064728    0.7264304144    0.5787700609
 C   -2.5475726922   -0.3209455442    1.2331158341
 N   -2.1962681832   -0.5446884701   -1.0945895098
 H   -0.5441427859    1.4300408028   -0.9910873774
 H    0.5523630708   -0.6062049040   -0.5897735577
 H    0.4665671231   -0.1223459700    1.1135864813
 H   -1.6103837641   -2.7216107811   -0.7568141114
 H   -4.0411986451   -2.1469642864    0.9318897461
 H   -4.3683062558   -0.3211062939   -1.3034585818
 H   -3.0656722381    1.7073143866    0.3320824718
 H   -4.4220586109    0.8331027920    1.1249307073
 H   -2.3049924007   -0.3394879308    2.2938649247