17

 O    0.4595752485    0.2977265246   -0.7479940234
 C    0.4960562936    1.4856248044   -0.6421358563
 O    0.7224033706    2.0970019677    0.5426204344
 C    0.7920546859    3.5270771730    0.5385451187
 C    2.2097551950    3.9930263199    0.2750265801
 O    2.6621429269    3.7116736739   -1.0813612585
 C    3.0809238575    5.0738642851   -1.2313495798
 C    1.9134164168    6.0008595136   -1.1884363405
 C    2.5106577998    5.4815772591    0.1087894483
 H    0.3452440382    2.1993061039   -1.4718014871
 H    0.0994922674    3.9410783114   -0.2021534463
 H    0.4710035168    3.8496988997    1.5330849670
 H    2.8908215301    3.5121189882    0.9873346988
 H    4.0337575179    5.2594775117   -1.7116304166
 H    2.1406159946    7.0443878174   -1.3833775259
 H    0.9449663097    5.6704993391   -1.5511139336
 H    2.9086827608    6.1304734572    0.8761540707