18

 C   -0.1948949152    1.4390925437    0.0117018800
 C    0.0588039387   -0.0494976191    0.0011156552
 O    1.1412136174   -0.5789270519   -0.0120524631
 O   -1.1064935838   -0.7310961864    0.0084540400
 C   -0.9908959199   -2.1653386264   -0.0004273982
 C   -2.3982447356   -2.7379702227    0.0102352796
 C   -2.3970310112   -4.2619898449    0.0019691399
 O   -3.7490776507   -4.6900444908    0.0125991245
 H    0.7566813825    1.9690345097    0.0051384578
 H   -0.7882981100    1.7249454660   -0.8613926276
 H   -0.7707589257    1.7153627632    0.8995080756
 H   -0.4292504372   -2.4726230254   -0.8893820608
 H   -0.4119891676   -2.4821552698    0.8739852935
 H   -2.9344905510   -2.3864803403    0.8980837173
 H   -2.9517002142   -2.3769732819   -0.8631212711
 H   -1.8676857669   -4.6310660237   -0.8919214004
 H   -1.8506842681   -4.6406798101    0.8814852393
 H   -3.7603836314   -5.6515131094    0.0082536087