21

 C   -0.2701466378    1.6190201418    0.0206413860
 C   -0.2084327310    0.1228496764   -0.2106093516
 C   -0.1339148277   -0.8293122402    0.9576617311
 C   -1.3873481292   -0.7544312578    0.1188963819
 C    1.1104942191    2.2337378247    0.1764991616
 O    1.9637142156    2.0654708636   -1.0018847511
 C    2.2753325422    3.4599077677   -0.9870120401
 C    1.0587105366    4.2839520659   -1.2561923331
 C    1.3158137692    3.7498931679    0.1415486569
 H   -0.7974334987    2.1063058582   -0.8077287576
 H   -0.8440424206    1.8321164041    0.9330249023
 H    0.3674869427   -0.1563858559   -1.0879037911
 H    0.4941070073   -1.7090470240    0.8717515777
 H   -0.1719926366   -0.4100104319    1.9584074567
 H   -2.2617769041   -0.2846169798    0.5581039297
 H   -1.6162043587   -1.5831594269   -0.5420630528
 H    1.6242862335    1.7895058016    1.0392868847
 H    3.3012993282    3.7537953491   -1.1757027780
 H    1.2294284620    5.3515960623   -1.3567115734
 H    0.2666709896    3.8850316507   -1.8827411860
 H    1.4165638884    4.3914726225    1.0062760562