14

 C    0.0104216389    1.5968427242    0.1142051968
 N    0.0499028322    0.1533059516    0.1010674350
 C   -1.0188094070   -0.5211230308    0.0003521590
 N   -1.0129762708   -1.9300589458   -0.0152580578
 C    0.0553644848   -2.8074069696    0.0674874971
 O    1.2199489412   -2.5336462774    0.1721679921
 C   -2.3602095262    0.0068033100   -0.1102916239
 C   -3.4808572216    0.4351489260   -0.2028226800
 H    0.6288873623    1.9720537290   -0.7093325202
 H   -0.9935715270    2.0340842044    0.0319305829
 H    0.4766939204    1.9518826257    1.0405095152
 H   -1.9227570683   -2.3571874208   -0.0994165275
 H   -0.3237803577   -3.8498790918    0.0222054482
 H   -4.4666648913    0.8242885654   -0.2842144170