22

 C   -0.0839979845    1.5190279488   -0.0530814035
 C    0.0385059092    0.0274017634   -0.0092354655
 C    0.4269212968   -1.0022656187   -1.0228985470
 C    1.2884489565   -1.7567154846   -0.0060801894
 C    0.6555592480   -0.8728038191    1.1231500489
 C    1.6021556223   -0.2595054933    2.1355276366
 C   -0.5696167717   -1.6000700322    1.6940398091
 C   -1.4398664371   -1.8255320613    0.4335433040
 N   -0.9725999614   -0.8525296703   -0.5807380460
 H    0.8895297896    2.0035785191    0.0783087161
 H   -0.4987358959    1.8339405406   -1.0145872346
 H   -0.7501235480    1.8884564334    0.7359006002
 H    0.6207971779   -0.9044563605   -2.0865591091
 H    1.1671418166   -2.8433287820    0.0750302769
 H    2.3490936379   -1.5307172748   -0.1487314459
 H    2.4181717021    0.2822204739    1.6449622488
 H    1.0796877809    0.4453515709    2.7929264744
 H    2.0536181088   -1.0301750602    2.7704646570
 H   -0.3028206647   -2.5350784257    2.1984421680
 H   -1.0870265459   -0.9651011922    2.4236793416
 H   -1.3491216048   -2.8427885486    0.0395122022
 H   -2.5014484026   -1.6442845868    0.6245388472