20

 C   -0.0203349621    1.4910222468   -0.0141491072
 C    1.3010158981    0.7388670644   -0.0308842968
 C    0.0054739738   -0.0019861946    0.0506085246
 C   -0.4705567374   -0.8641145602    1.2128206660
 C   -1.9559110825   -1.0350875216    0.8152927432
 C   -1.6895242004   -1.4576041739   -0.6266653431
 C   -0.3938742088   -2.1951251005   -0.6430760817
 C    0.1329132287   -2.2241153315    0.7888382187
 N   -0.4523755583   -0.7805640983   -1.1066483094
 H   -0.2836746403    2.0438404556    0.8818938842
 H   -0.3504829663    1.9431751898   -0.9425326909
 H    1.8404886049    0.6960040620   -0.9702820428
 H    1.9278394980    0.7849765288    0.8538840412
 H   -0.2593439471   -0.5155200732    2.2220286381
 H   -2.4708294230   -1.8105086744    1.3915299551
 H   -2.5228175151   -0.1023211321    0.8883373349
 H   -2.4782083065   -1.6141922043   -1.3521943988
 H   -0.1398600811   -2.9452453459   -1.3818124362
 H    1.2255806820   -2.2360335803    0.8408675598
 H   -0.2599378168   -3.0690235667    1.3635266912