17

 C   -0.0145813205    1.5755775465   -0.1300156235
 C    0.0588640458    0.0648513142    0.0124057150
 C    0.9852889763   -0.7478114678   -0.9326115007
 C    1.3083705737   -1.6957023646    0.2488310952
 O    2.5755507451   -2.2472433812    0.4037724700
 C    0.8106298548   -0.5692934365    1.2413129571
 C    1.9298821714    0.2219679348    1.7199062074
 N    2.8640181823    0.8190473929    2.0529614140
 H    0.9799946291    2.0287180210   -0.0770381825
 H   -0.4588616483    1.8456627132   -1.0936814020
 H   -0.6295199162    2.0219355131    0.6585467440
 H   -0.9486463853   -0.3626197706   -0.0005386113
 H    0.5541971238   -1.1844091012   -1.8355245603
 H    1.8698107754   -0.1626097076   -1.2085343520
 H    0.6036008128   -2.5302744453    0.2885221813
 H    3.2201533703   -1.5312656036    0.4654696322
 H    0.2005613295   -0.8915085373    2.0881078462