17

 O   -0.0554739598    1.4044297655   -0.2562062646
 C    0.0582500183   -0.0106713254   -0.1241996676
 C   -1.3715043620   -0.5281086550   -0.0248914236
 O   -2.0557146219    0.1314217863    1.0010770516
 C   -2.1271162905   -0.6739129716   -1.3766160810
 O   -2.0592887314   -2.1179165416   -1.3032175003
 C   -1.5346438943   -2.0718615250    0.0334926622
 C   -0.3128418582   -2.9485525004    0.1907795105
 O    0.4634500725   -2.8642700173    1.1090622128
 H    0.7969925814    1.8019462191   -0.0587514150
 H    0.5714025969   -0.4552598316   -0.9892644105
 H    0.6053463800   -0.2900829894    0.7842061460
 H   -1.7228443431    1.0397522721    0.9968060248
 H   -3.1576484771   -0.3075319119   -1.3174788704
 H   -1.6368741321   -0.2868182608   -2.2759602867
 H   -2.2803518344   -2.3486519852    0.7935142174
 H   -0.1843960243   -3.6834908978   -0.6352637653