22

 C   -0.6718718232    1.3371140893    0.1978789638
 C   -0.2775900679   -0.1392243117    0.1215589633
 C   -1.5132487452   -1.0332914594    0.1167940061
 C    0.7725970216   -0.4093929601   -1.0029441183
 C    1.9000916222   -0.4075085461    0.0597660597
 C    0.8383363301   -0.5502517591    1.1732653398
 C    1.0054698355    0.3276928951    2.3988983151
 N    0.2937126984   -0.0731856261    3.4963523191
 O    1.6765403931    1.3442293102    2.4029690577
 H    0.2035519506    1.9889507501    0.2492294340
 H   -1.2585318236    1.6128834288   -0.6855964038
 H   -1.2840089487    1.5388261355    1.0840975906
 H   -2.1661049789   -0.7943271701   -0.7309319841
 H   -1.2420116812   -2.0919665048    0.0403528112
 H   -2.1022354457   -0.8992199052    1.0325026787
 H    0.6332215644   -1.3914514500   -1.4650456612
 H    0.8349176821    0.3395574661   -1.7970909094
 H    2.6513381694   -1.1974350604   -0.0043130071
 H    2.4061035195    0.5557491131    0.1474463888
 H    0.6919661057   -1.5942599937    1.4705139603
 H   -0.1654456008   -0.9657845823    3.5367701060
 H    0.3881938624    0.4603378106    4.3453627796