17

 C    0.0022525688    1.5054685764    0.0034776973
 C    0.0163095709    0.0514744590    0.0552220227
 C    0.0250453731   -1.1530198001    0.1004120532
 C    0.0512312802   -2.5903983810    0.1090812487
 O    1.1796815127   -3.2007535136   -0.4676675994
 C   -0.4303584818   -3.4361111308    1.2786597918
 C   -1.6874650336   -2.8163304597    1.8720266674
 O   -2.3364294740   -2.7932936613    0.5654488575
 C   -1.2090792893   -3.4331363395   -0.0143567178
 H    0.5960114691    1.8746570253   -0.8401117651
 H   -1.0177792447    1.8858449992   -0.1193818773
 H    0.4159741945    1.9455727347    0.9175882239
 H    1.2267297558   -2.9080359218   -1.3848855489
 H    0.2200278336   -4.1766710733    1.7229346576
 H   -2.2254701120   -3.4856895000    2.5514799447
 H   -1.6014445472   -1.8160681039    2.3085769354
 H   -1.3562962661   -4.1666858994   -0.7993494718