21

 C    0.6519437074    1.5030423876    0.1415117483
 O    0.8065146692    0.1038241345    0.1722459755
 C   -0.1961441307   -0.5405122074    0.9281071761
 C    0.0699003437   -2.0319689739    0.9097521365
 C    1.2465093674   -2.6337112652    1.7393149624
 C    0.3090701929   -3.7657233770    2.2751008029
 C    0.3054755264   -4.1452732277    3.7491717085
 C   -0.8651767537   -2.9279824270    1.7417588756
 O   -2.0334425680   -2.8788149741    2.0049487886
 H    0.7044018312    1.9427041365    1.1503272132
 H    1.4663863792    1.9091680443   -0.4631972825
 H   -0.3085033128    1.7983007375   -0.3098126102
 H   -0.1978564282   -0.1656174149    1.9666511673
 H   -1.1964187953   -0.3364941364    0.5115304958
 H    0.1016790255   -2.3802303017   -0.1296315177
 H    2.1259773294   -2.9495268976    1.1781956780
 H    1.5597317187   -1.9563777957    2.5392121112
 H    0.4094841661   -4.6628814886    1.6499728949
 H    0.2158346002   -3.2569968385    4.3829758675
 H   -0.5403454902   -4.8015435341    3.9746237189
 H    1.2267761518   -4.6672658907    4.0260343791