19

 C   -0.0238410530    1.5251765618   -0.0830837512
 O    1.3341976578    1.9845879480    0.0147329930
 C    2.1663838678    0.8401253461    0.2295889985
 C    1.4421243132   -0.2966613866   -0.4939616472
 C    0.0145705762   -0.0168636814    0.0165684349
 C   -0.1251566070   -0.5053071211    1.4721054449
 C    1.0558576774   -0.0900143697    2.3399188692
 O    2.2915794662   -0.7966167413    2.1439986989
 C    2.2212783312    0.5705401017    1.7301668326
 H   -0.6264392758    1.9800750588    0.7132316784
 H   -0.4306020171    1.8560192816   -1.0469819992
 H    3.1561254747    1.0739205434   -0.1714907931
 H    1.5184950801   -0.1583337671   -1.5759682931
 H    1.8158693913   -1.2843213382   -0.2234318811
 H   -0.7610998085   -0.4703614225   -0.6055163952
 H   -1.0432763151   -0.0989305458    1.9127694922
 H   -0.2187364703   -1.5976948975    1.5016233888
 H    0.8367920200    0.1047808792    3.3893426052
 H    2.8170643607    1.2639586107    2.3224848138