19

 C    0.1801323239    1.4194311109   -0.0353784651
 N    0.0420000082   -0.0260638388    0.0645901855
 C    0.5450322871   -0.5201457355    1.3416864064
 C   -1.3201536539   -0.4615473078   -0.2066795112
 C   -1.3731804595   -1.9357404300   -0.5300453107
 O   -1.5495757800   -2.8623767859    0.5459903086
 C   -2.6082780593   -2.7399943817   -0.4020735012
 C   -3.8470496903   -2.1558313466    0.0692421900
 N   -4.8541744129   -1.7074050327    0.4165899881
 H    1.2306480126    1.6948543560    0.0987788102
 H   -0.1354130108    1.7580985267   -1.0271193371
 H   -0.4123592224    1.9695916270    0.7200126687
 H   -0.0116089931   -0.1131453775    2.2067718610
 H    0.4779936256   -1.6092580056    1.3840200635
 H    1.5963514946   -0.2374242377    1.4507073472
 H   -2.0204028737   -0.2462512199    0.6214615579
 H   -1.6833344966    0.0832983533   -1.0865924914
 H   -0.6544249721   -2.2642785670   -1.2811395771
 H   -2.7477319274   -3.5988099572   -1.0562101334