19

 C    0.1308626806    1.5596505294   -0.0041758763
 C   -0.0042654539    0.0669149740   -0.0236571240
 C    1.0039461098   -0.9046545157   -0.5785352126
 C    0.3643561980   -1.9926459605   -1.3340644925
 C   -0.9510180588   -2.0109578966   -1.0049929700
 C   -1.2910969807   -2.9707856809    0.1463749298
 C   -0.9051053210   -1.6850215952    0.9999824710
 C    0.5024003177   -1.0094659790    0.9245588323
 C   -1.2980353208   -0.7529314025   -0.1796856207
 H    1.1549680917    1.8643498901    0.2348123786
 H   -0.1256717207    1.9905582573   -0.9792179310
 H   -0.5328952245    2.0090439077    0.7431917292
 H    2.0345127603   -0.5872005906   -0.7020215073
 H    0.9173719107   -2.8966074989   -1.5750503072
 H   -2.3503818290   -3.2012021437    0.3099635047
 H   -0.6913319954   -3.8794331119    0.2268992019
 H   -1.3823661255   -1.5650886140    1.9756078381
 H    1.2261336739   -0.9364599424    1.7259712193
 H   -2.2845714623   -0.3000377066   -0.2620384731