21

 C   -0.3853868478    1.5397274741    0.0577712102
 O    0.9650350700    1.0690352745    0.0690295172
 C   -0.1006431208    0.0985279859    0.0056169777
 C   -0.2286205229   -0.7335745944    1.2732005534
 C    0.9807741703   -1.6662141015    1.4695049207
 C    0.9097843647   -2.9778047640    0.6669645367
 O    0.2517979617   -2.8874437293   -0.5851231816
 C    0.6903766538   -1.8523713092   -1.4489401265
 C   -0.2097171197   -0.6178143267   -1.3269981368
 H   -0.7314824853    1.9886784345    0.9884033673
 H   -0.6889430053    2.0673058285   -0.8462414430
 H   -0.2910001587   -0.0486982061    2.1242881050
 H   -1.1612776599   -1.3092471022    1.2471661332
 H    1.8852053484   -1.1023137625    1.2175797417
 H    1.0773414252   -1.9329783385    2.5280569426
 H    1.9266744084   -3.3832380359    0.5378671791
 H    0.3305820852   -3.7236300486    1.2218821495
 H    1.7414982712   -1.5901581944   -1.2626611617
 H    0.6269055991   -2.2453684899   -2.4700664723
 H   -1.2456236049   -0.9459694103   -1.4787539333
 H    0.0350111573    0.0911543262   -2.1257700790