18

 C    0.3906309106    1.4321100086   -0.2136007703
 C   -0.0930347521    0.0264076706    0.1533169039
 O    0.0492590379   -0.9072096859   -0.9186731546
 C    1.2671907079   -1.6348040820   -0.7676597360
 C    1.5145164920   -1.7021260547    0.7275105236
 C    1.6951620852   -2.9634764420    1.5025479991
 N    2.8106859006   -2.0275498776    1.3402199224
 C    0.7198079199   -0.5610231103    1.3105985341
 O    0.7145792514   -0.1914610693    2.4550914870
 H    1.4522598536    1.4305669643   -0.4806714560
 H   -0.1791170979    1.8128618896   -1.0649562616
 H    0.2532387954    2.1029695192    0.6391880249
 H   -1.1542735453    0.0565313515    0.4232785804
 H    1.1323172940   -2.6117611197   -1.2406633688
 H    2.0993658787   -1.1181280599   -1.2744552130
 H    1.2937555624   -3.0132140446    2.5107541993
 H    1.6945910278   -3.8975091391    0.9461295612
 H    3.4417244979   -2.3629888387    0.6136645046