18

 C   -0.1578447939    1.5689788825   -0.1373948284
 C   -0.0281507019    0.0578068578   -0.0041533593
 O   -1.2444754067   -0.5930823782   -0.3083275136
 C    1.2484482946   -0.5545742764   -0.6451415256
 O    1.7991522864   -0.8650867778    0.6515278075
 C    0.5584834191   -0.5078421411    1.3151137472
 C    0.8416803951    0.3620575011    2.5252141304
 O    1.6666555722   -0.3369923400    3.4399275439
 H    0.7759702578    2.0805857695    0.1095133479
 H   -0.4084284420    1.8318479250   -1.1732197723
 H   -0.9507656601    1.9515771308    0.5120930555
 H   -1.6195286734   -0.1870863131   -1.0972111741
 H    1.0373637679   -1.4573720845   -1.2313278225
 H    1.8989116476    0.1185684631   -1.2162608790
 H    0.0118386792   -1.4080142778    1.6242800440
 H    1.3099141779    1.3078044422    2.2135697972
 H   -0.0899023708    0.5999850264    3.0502774483
 H    2.4297897909   -0.6406813294    2.9336684430