18

 O   -0.1151748596    1.5625394503    0.0780838035
 C    0.0394347124    0.2087983456   -0.2909950086
 C   -1.2950011850   -0.5283442121   -0.1482594855
 C   -1.4292754127   -2.0767516971   -0.0851794494
 C   -0.3409823367   -2.9639211271    0.5934591341
 C   -1.1930638077   -2.9190836305    1.8979408268
 N   -2.1374160807   -1.9506764055    1.2456543288
 C   -1.7795237688   -0.5872685641    1.3116875716
 O   -1.7041696991    0.1700426416    2.2447512009
 H   -0.4813641392    1.5659564455    0.9737074399
 H    0.3797651322    0.1954561258   -1.3316008507
 H    0.8145696800   -0.2871913726    0.3141117557
 H   -2.0254907562   -0.0822426521   -0.8295817856
 H   -1.9921473139   -2.5496514811   -0.8916525144
 H   -0.2187799667   -3.9521165809    0.1472550987
 H    0.6426533580   -2.4988801070    0.6841833382
 H   -1.6931755675   -3.8572732472    2.1470844075
 H   -0.7194172588   -2.5130057216    2.7946822386