20

 C   -0.0393361164    1.4013794889    0.1234669183
 N   -0.0367685275   -0.0418814558    0.1140027158
 C   -1.2051319410   -0.8327406306   -0.1909352427
 C   -0.6322743989   -2.2723188687   -0.1268569564
 C   -0.8771688513   -2.9199612570    1.2368427474
 C   -1.0986279998   -3.1553910190   -1.2767665590
 O    0.7975113511   -2.0700054210   -0.2707026144
 C    1.1219060434   -0.7601121131   -0.0692314072
 O    2.2514935451   -0.3481421589   -0.0555817896
 H    0.9899872665    1.7334093244    0.2667189641
 H   -0.4182049804    1.8126031005   -0.8230057369
 H   -0.6612999077    1.7855328543    0.9396276282
 H   -2.0053850016   -0.6802497543    0.5422436129
 H   -1.6096096821   -0.5942287807   -1.1872415854
 H   -1.9419891239   -3.1320601338    1.3769616270
 H   -0.3215647230   -3.8581394034    1.3137943079
 H   -0.5469592486   -2.2568458305    2.0417213775
 H   -0.8408558958   -2.7026524644   -2.2378788305
 H   -0.6256296703   -4.1395854119   -1.2211653003
 H   -2.1841062079   -3.2924510450   -1.2359171564