18

 C   -0.0074761332    1.4798903740    0.3424091795
 C    0.0545848543   -0.0176892184    0.1143114489
 C   -1.2276540407   -0.6406595923   -0.4041525007
 C    1.3728484445   -0.6120186812   -0.3516714646
 C    0.8973941268   -0.8595988379    1.0455725551
 O    1.6566212060   -0.2401938745    2.0691097401
 C    1.0657329478   -0.1478585854    3.2791073189
 O    1.6032625737    0.3517446729    4.2206509016
 H    0.9290298604    1.8679087446    0.7489141138
 H   -0.2115931974    2.0013924616   -0.5991595697
 H   -0.8107738786    1.7379749385    1.0427403427
 H   -1.4875367079   -0.2330062350   -1.3877532647
 H   -1.1358491863   -1.7262893789   -0.5106752570
 H   -2.0663845534   -0.4383875580    0.2719829803
 H    1.3660822569   -1.4421633679   -1.0497743053
 H    2.2153343468    0.0628369060   -0.4561035680
 H    0.5487310501   -1.8536653176    1.3137971738
 H    0.0497964103   -0.5875942106    3.2950991553