16

 N   -0.1266816229    1.3004018236   -0.4151113902
 C   -0.0965033700   -0.0647341284   -0.1443751556
 C   -1.1199797049   -0.9923734291   -0.0037046828
 C   -2.6033643795   -0.7731077541   -0.1516393329
 C   -2.9707929348    0.0903110029   -1.2756913767
 C   -3.2544296231    0.8253656041   -2.1850871187
 C   -0.4509483273   -2.1886129484    0.3472309525
 N    0.8631804241   -2.0428855197    0.4234634237
 N    1.0555169343   -0.7303622289    0.1191935092
 H    0.6550871078    1.6175299076   -0.9756549759
 H   -0.9954372934    1.5642691666   -0.8669602849
 H   -3.0949813470   -1.7455818525   -0.2779507888
 H   -3.0339397482   -0.3442882793    0.7654648188
 H   -3.5305046777    1.4471271138   -3.0006810748
 H   -0.8944700767   -3.1561695601    0.5393892976
 H    1.9883858993   -0.3556105681    0.1379060197