17

 C    0.0057523712    1.7869205009   -0.0270502760
 C    1.4628166737    1.4586649990    0.0862396451
 O    1.0423695231    0.2583690255    0.9325796181
 C   -0.0069974616    0.2205898068   -0.1247500136
 C   -1.3466273637   -0.2039035639   -0.7282684378
 O   -1.1017795873    0.4753071143   -2.0159863956
 C    0.3037453080    0.3940419373   -2.3078892259
 C    1.6764638699    0.9182581208   -1.3734312794
 C    0.9355289482   -0.3399296383   -1.2585091855
 H   -0.4503085706    2.0462957349    0.9306042201
 H   -0.3476578094    2.4100630715   -0.8439166014
 H    2.2331713149    2.0517998435    0.5773415717
 H   -1.4889926425   -1.2774910946   -0.8878632838
 H   -2.2365788517    0.2506163018   -0.2926575383
 H    0.4886118263    0.3503222239   -3.3747924252
 H    2.5988196477    1.0339503631   -1.9338799684
 H    1.2740425938   -1.3680751566   -1.1610972543