20

 C   -0.1069905789    1.5491628420    0.1199982565
 C    0.0033786828    0.0382465797    0.0709796715
 C   -1.3179605459   -0.7181152048   -0.1025538728
 C   -1.0170610524   -2.1396601736    0.4054351669
 C   -0.0725080357   -1.9073048795    1.6044738625
 C    0.8001908520   -0.7156955223    1.1851939059
 C    1.8194893385   -0.9928291015    0.0653054620
 O    0.9752871890   -0.3865361862   -0.9330876555
 H    0.8768461520    2.0078519831    0.2559656340
 H   -0.5305740014    1.9316442207   -0.8149302372
 H   -0.7554373497    1.8670990260    0.9435240972
 H   -2.0909823390   -0.2457952215    0.5170193024
 H   -1.6571584117   -0.6877866738   -1.1421885598
 H   -1.9162250392   -2.6996958782    0.6757423663
 H   -0.5025007501   -2.7068131434   -0.3773862777
 H   -0.6565276855   -1.6370853992    2.4926141330
 H    0.5168135560   -2.7930179843    1.8637245731
 H    1.1719265286   -0.1258228874    2.0246300348
 H    2.7770508973   -0.4647722156    0.1644698745
 H    2.0215813633   -2.0501649499   -0.1511915175