18

 O   -0.0393670410    1.4601030682   -0.0261583933
 C    0.0486292107    0.0429907298    0.0151003376
 C    0.7254855298   -0.5319626976    1.2977098483
 C   -0.4090489317   -1.2795651950    1.9890212286
 C   -1.5877285920   -0.4564760397    2.4971849970
 C   -2.2462157803    0.0717304242    1.2049231801
 C   -2.5265237567   -1.3134937951    1.7030795893
 N   -1.3247063135   -1.8174520612    0.8869284759
 C   -1.3741195968   -0.5112298409    0.1013153976
 H    0.8500622581    1.8114205171   -0.1290978346
 H    0.5551860232   -0.3321096457   -0.8852434457
 H    1.5431551770   -1.2133532798    1.0424317402
 H    1.1309322901    0.2729361360    1.9183386304
 H   -0.1011473410   -2.0798959666    2.6649571051
 H   -1.7444031107    0.0287246370    3.4524575566
 H   -2.8810201395    0.9471918094    1.2065835973
 H   -3.4204779673   -1.8749522255    1.9319189578
 H   -1.8800082584   -0.6395760047   -0.8567877283