19

 C    0.1001296356    1.5011600093   -0.2118361661
 C    0.0185074749   -0.0016746467   -0.0229241321
 O    0.6584359408   -0.6107992658   -1.1552293753
 C    0.6862127253   -1.9471089861   -1.1682876317
 N    0.1830190974   -2.6600853436   -0.2456956255
 O    1.3248581490   -2.3083121846   -2.3022221250
 C    1.4820075524   -3.7045707545   -2.5492151280
 C    2.2166609967   -3.8584977213   -3.8684681788
 H    1.1410107169    1.8319765404   -0.2690741039
 H   -0.4086001720    1.8080679525   -1.1300628148
 H   -0.3771621420    2.0063472713    0.6331739104
 H    0.5230629743   -0.3294654347    0.8917505854
 H   -1.0165759762   -0.3536847853    0.0345887013
 H    0.2944216135   -3.6536375466   -0.4163422635
 H    2.0485149052   -4.1628677509   -1.7273030763
 H    0.4951346045   -4.1850956968   -2.5896583958
 H    1.6476351707   -3.4009791277   -4.6820544084
 H    3.1978135486   -3.3787326088   -3.8214745512
 H    2.3579397445   -4.9191604802   -4.0954825907