19

 C   -0.1716582670    1.5543808093    0.0153869129
 C   -0.0151843892    0.0274854028    0.0261253640
 C    0.6584750092   -0.4704977472   -1.2571682839
 O    0.9788698894   -1.8566945492   -1.1766308664
 C    1.9100057626   -2.1673849455   -0.1757957330
 C    3.3608193163   -1.9517713985   -0.6260366473
 O    3.6876949850   -1.4107444499   -1.6470476646
 C    1.6769758268   -1.4316545897    1.1245309151
 C    0.7851674707   -0.4476615083    1.2132248833
 H    0.8039216731    2.0497064491   -0.0361772270
 H   -0.7633818724    1.8825336874   -0.8453497593
 H   -0.6772841948    1.9030933359    0.9215044557
 H   -1.0187747747   -0.4192561090    0.0850133509
 H   -0.0086629547   -0.3727605650   -2.1177826298
 H    1.5639217059    0.1166233936   -1.4595208423
 H    1.8133897661   -3.2498983405    0.0092248813
 H    4.1146174464   -2.3451530653    0.0970218444
 H    2.2652460442   -1.7471651548    1.9813792490
 H    0.6140503574    0.0480053050    2.1664765669