24

 C   -3.6244824490   -1.2165456357   -2.8808748862
 O   -2.6278266331   -2.0872350239   -2.4042121944
 C   -1.3692476266   -1.4541361123   -2.2634783877
 C   -0.4071062852   -2.4627528718   -1.6897669707
 N    0.2262492368   -3.5140703702   -2.4895520593
 C   -0.0567392598   -3.6301778511   -3.9114337655
 C    1.0726115401   -2.4453181477   -1.9457956852
 C    1.7143553766   -1.3990806085   -2.8426906612
 C    1.9928279465   -2.9095890394   -0.8299691658
 H   -3.7847634548   -0.3648688911   -2.2001047965
 H   -3.3764819498   -0.8136675776   -3.8763560536
 H   -4.5525468924   -1.7887587977   -2.9540539055
 H   -1.0399242187   -1.0540023733   -3.2329557506
 H   -1.4496974498   -0.5949987925   -1.5742171286
 H   -0.7414696887   -2.8176467245   -0.7139696831
 H   -0.0984071006   -2.6869600138   -4.4744936480
 H    0.7132784865   -4.2575134175   -4.3724680404
 H   -1.0223690938   -4.1300498297   -4.0302913516
 H    1.0696785976   -1.0517940435   -3.6506780305
 H    2.0054099688   -0.5239156135   -2.2515947245
 H    2.6273345472   -1.8028643032   -3.2958246183
 H    2.9226590716   -3.3195663951   -1.2414299982
 H    2.2583672069   -2.0785279666   -0.1662368731
 H    1.5125588439   -3.6919902698   -0.2382075513