21

 C    0.5967304932    0.2419957900   -1.3468798326
 C   -0.0086944112    0.1922905454    0.0582848828
 O   -0.0208847813    1.4860339058    0.6575606209
 C   -1.4003505205   -0.4111147106    0.0493009290
 C   -1.6773307019   -1.8927098423    0.0408173143
 C   -0.5930706150   -2.9473962188    0.0482869376
 C   -1.9979285238   -1.0697815875    1.2898467902
 C   -1.2235813621   -1.2269612538    2.4858173855
 C   -0.5897118661   -1.3744302487    3.4982060325
 H    1.5778934612    0.7234034252   -1.3154920452
 H    0.7101539025   -0.7618539711   -1.7676851868
 H   -0.0449155550    0.8175686897   -2.0262375183
 H    0.6401526017   -0.3963873454    0.7127341083
 H   -0.5769549589    2.0544734588    0.1130993889
 H   -2.1102053433    0.1917993286   -0.5167959951
 H   -2.5593827023   -2.1821599195   -0.5249171885
 H    0.2331484921   -2.6840959504    0.7118421163
 H   -0.9967144610   -3.9035160302    0.3975901895
 H   -0.1900671580   -3.1049552477   -0.9580968348
 H   -3.0507175099   -0.8696846239    1.4680811914
 H   -0.0297837803   -1.4856141435    4.3932156740