15

 C   -0.0790903888    1.4668921182    0.0113391070
 C   -0.0057192586   -0.0475576708    0.0031878978
 O   -1.3521461778   -0.5450782899    0.0114422311
 C   -1.4857467541   -1.8695717638    0.0063299475
 N   -0.4697844155   -2.7231122184   -0.0058385778
 N   -1.1305422499   -3.9176943614   -0.0061508974
 C   -2.4591753906   -3.7154022925    0.0053900336
 N   -2.7296943945   -2.4248459957    0.0136358422
 H    0.9306483541    1.8880760124    0.0051533107
 H   -0.6136868935    1.8340768756   -0.8690091866
 H   -0.5991620892    1.8252754050    0.9039283364
 H    0.5118189581   -0.4261842693   -0.8861457802
 H    0.5259198165   -0.4350395439    0.8802980152
 H   -0.6087295593   -4.7774102440   -0.0142981650
 H   -3.1809705269   -4.5185787415    0.0073616154