20

 C    0.7065169324    1.3613979813   -0.0798898642
 N    1.2973422672    0.0036446081   -0.1377547100
 C   -0.1496707291    0.1651439230    0.0145337637
 C   -0.9049714240   -0.4458601119    1.1994936331
 C   -1.7297433934   -1.2742619299    0.1797845583
 C   -1.5955803378   -2.8104888154    0.1046259455
 C   -3.1205405186   -2.8103405873    0.3208609469
 O   -3.1515979838   -1.3679958735    0.3691349363
 C   -1.2057103350   -0.3651987837   -0.9641124030
 H    0.9567405886    1.9279772174    0.8134956076
 H    0.6649705363    1.9524003122   -0.9920468136
 H    1.5207121522   -0.2272809193   -1.1037685706
 H   -0.3082076438   -0.9951959735    1.9316291263
 H   -1.5456856633    0.2782265458    1.7122839050
 H   -1.2583053586   -3.1997529711   -0.8579470872
 H   -1.0048949249   -3.2633297694    0.9027339668
 H   -3.7229253478   -3.2041933311   -0.5062970609
 H   -3.4705316171   -3.2574731895    1.2587787757
 H   -1.9553709615    0.3869526518   -1.2296899654
 H   -0.8536703578   -0.8591516140   -1.8758446501