23

 C   -0.1270054530    1.5073558538   -0.0143222830
 C    0.0813839569   -0.0060620153    0.0236470140
 C    1.0626005926   -0.6129674732   -1.0083932679
 C    2.4180824640    0.0505240925   -0.6449169614
 C    2.2765294270   -0.7831319791    0.6350107746
 C    1.5350430582   -1.8884910448   -0.1792432793
 C    0.5889393173   -2.1234758256    1.0033517794
 C    0.8134041607   -0.6052061654    1.2643245858
 C    0.5881202238    0.0042915534    2.6283621153
 H    0.7837565651    2.0723285761    0.1994860301
 H   -0.4900600338    1.8233311991   -0.9989175558
 H   -0.8768417622    1.8106542545    0.7238815469
 H   -0.9046214755   -0.4767094327   -0.0753308031
 H    0.7247113593   -0.6897765986   -2.0427780743
 H    3.2344551368   -0.3388235768   -1.2618560920
 H    2.4906495804    1.1402280551   -0.6046370186
 H    3.0920389787   -0.9934536563    1.3277956204
 H    2.0537755604   -2.6792092758   -0.7207053810
 H   -0.4368162311   -2.4708478419    0.8373067435
 H    1.0696037079   -2.7516312986    1.7609820904
 H    1.1777987934   -0.5120056094    3.3935742850
 H    0.8696146735    1.0628413736    2.6514586611
 H   -0.4661869104   -0.0635752147    2.9235121300