18

 C   -0.2908446691    1.4193809506   -0.0325276410
 C    0.0155675133   -0.0751515462    0.0049733802
 C    1.2895153144   -0.4992581924   -0.7913662005
 C    2.0653480934   -0.5309787608    0.5423778790
 C    0.7252603889   -0.5623177966    1.3072450866
 O    2.9146727402   -1.6589482843    0.7366729472
 C    4.1965569965   -1.4536840430    1.0897884272
 O    4.9705454551   -2.3446550079    1.2714980040
 H    0.5890744732    2.0213830367    0.2228369807
 H   -0.6227066089    1.7277500605   -1.0297487570
 H   -1.0832583409    1.6762683866    0.6786395774
 H   -0.8836432039   -0.6393057985   -0.2537303320
 H    1.2028441564   -1.5083613575   -1.2013211849
 H    1.6532587477    0.1748086386   -1.5712456321
 H    2.6343836242    0.3877075016    0.7229521007
 H    0.6390836965    0.0614376954    2.2007847488
 H    0.4600011445   -1.5913697994    1.5613300490
 H    4.4461109083   -0.3784941133    1.1907029366