19

 O   -0.0462172307    1.3567352109    0.0490504006
 C    0.0430765219   -0.0225104943    0.0426714694
 C    0.6966169025   -0.9616263064    1.0914343115
 C    0.0435698317   -1.8719309178    0.0172774369
 O    0.0727950597   -3.2498516193   -0.0867109707
 C   -1.2130372580   -0.9310374364   -0.0209123944
 C   -1.7765361423   -0.9190149661   -1.4410496659
 C   -0.4500700616   -0.9244286652   -2.2575218798
 C    0.5638282082   -0.9471800323   -1.1147353884
 H    0.8446265446    1.7206580963    0.0083822293
 H    1.7898644857   -0.9705753668    1.1404026832
 H    0.2478051149   -0.9668849933    2.0895368363
 H   -0.3689047346   -3.6236808208    0.6832560336
 H   -1.8985427768   -0.9277534995    0.8296726485
 H   -2.3944134596   -1.7996464257   -1.6413199317
 H   -2.3869315531   -0.0322032846   -1.6341765240
 H   -0.3581515405   -1.7998090431   -2.9068104269
 H   -0.3397539026   -0.0326078752   -2.8819249360
 H    1.6319502206   -0.9588985504   -1.3436529715