16

 O   -0.0222849391    1.4398758973    0.0573987190
 C    0.0282360087    0.0209950605   -0.0213299924
 C    0.8975349620   -0.5735085347    1.1058712121
 C    0.7564322475   -2.0663293381    1.2536590359
 C   -0.3785990818   -2.7007871930    0.9572597367
 C   -1.5541635179   -1.9545722542    0.4417394127
 O   -1.9920261387   -0.8027695182    1.2064501606
 C   -1.3587251813   -0.5838021608   -0.0565525060
 H   -0.5089991589    1.6627597553    0.8595676701
 H    0.4995303012   -0.1899669199   -0.9896399481
 H    1.9401424833   -0.2889354252    0.9369696727
 H    0.5968516700   -0.0955194982    2.0486928011
 H    1.6036192536   -2.6180512310    1.6511965138
 H   -0.4774822085   -3.7736035224    1.0878741692
 H   -2.3790224743   -2.5400607751    0.0411527931
 H   -2.0143243358   -0.1943488024   -0.8358682504