20

 C   -0.0126634379    1.5729246670    0.0145224293
 C    0.0538054956    0.0510452092   -0.0809402094
 C    1.2302739152   -0.5616576297   -0.8957282406
 C    1.3444641461   -1.6684796481    0.1937635821
 C    0.5816721589   -0.7193494657    1.1645371327
 N    0.6213777907   -2.8777937864   -0.1264540244
 C   -0.5825316790   -2.8672352352   -0.5046261082
 O   -1.4933625482   -1.8831086563   -0.7159616740
 C   -1.3020641726   -0.4678851012   -0.5474770846
 H    0.9486883151    1.9748986019    0.3482878719
 H   -0.2449329292    2.0282598332   -0.9551703807
 H   -0.7761630910    1.8994191237    0.7301010937
 H    1.0316630762   -0.8988871900   -1.9165748540
 H    2.1015301254    0.0999506155   -0.8991362442
 H    2.3577133253   -1.9451643930    0.4915730721
 H    1.2658283637   -0.1032369256    1.7554329792
 H   -0.1483036532   -1.1857801318    1.8315271412
 H   -1.0770748802   -3.8111812074   -0.7325634190
 H   -2.0751404123   -0.1522220572    0.1642538115
 H   -1.5446690286   -0.0233224029   -1.5207999945