16

 N   -0.0581195792   -1.1160182767    0.0599655165
 C   -0.0453390482    0.0402089567    0.0497656721
 C   -0.0347010997    1.4800731915    0.0150190906
 N   -0.6138971844    2.3430091912    1.1052196439
 C   -0.0749447353    3.3117673171    0.0817047526
 C    1.2083595975    2.4377897122   -0.0521983657
 C    1.6834164446    2.4815592760   -1.4975296898
 N    0.3811576165    2.3773500543   -2.2148292800
 C   -0.5609143620    2.4207187369   -1.1216199067
 H   -1.6371236047    2.3130081755    1.0469488055
 H   -0.1368904847    4.3912279854    0.2163905363
 H    1.9232274146    2.4090020615    0.7672041150
 H    2.2175291262    3.4118531456   -1.7231739196
 H    2.3401455099    1.6425847299   -1.7510057099
 H    0.2411871569    3.1378706497   -2.8701229139
 H   -1.6162187580    2.3875546831   -1.3958520769