15

 O    0.2375943264    1.0850479377   -0.3382663247
 C    0.0666066566   -0.1518698913    0.3348086519
 C   -1.2956466870   -0.6789525316    0.2352121048
 C   -2.4100623752   -1.1180576030    0.0987583133
 C   -3.7593888335   -1.5986663317   -0.0334935990
 N   -4.0098046044   -2.7720376383   -0.4527851533
 N   -4.7091828942   -0.6171675137    0.3539924472
 C   -6.0746044954   -0.7520836592    0.3384887257
 O   -6.6831492183   -1.7390483845   -0.0091329428
 H    0.0215575853    0.9448687073   -1.2664459375
 H    0.7738251822   -0.9151288006   -0.0241821383
 H    0.3136180486    0.0404608943    1.3846465226
 H   -5.0187467800   -2.9303301598   -0.4727516740
 H   -4.3351229696    0.2647487491    0.6717453984
 H   -6.5745914915    0.1701755652    0.6901689058