11

 O   -0.0722791681   -0.0123050509    0.0001184902
 C   -0.0139294380    1.1871995568    0.0066278160
 C    1.2896012293    1.9615041742   -0.0011658356
 N    2.3707569611    1.2624975552   -0.0181017001
 O    3.5603459365    1.9778863798   -0.0249776124
 C    3.5196814460    3.3256189177   -0.0135640793
 N    2.4962800290    4.0845614146    0.0031622152
 C    1.2447583188    3.4504783074    0.0108474806
 O    0.1995061436    4.0566234085    0.0261076439
 H   -0.9026184594    1.8414545374    0.0188496002
 H    4.5346246013    3.7179544294   -0.0208477187