14

 C    0.0330718935    1.4279932522    0.0194156272
 N   -0.0973234416   -0.0150351104   -0.0981074279
 C    0.5704398420   -0.6872039600   -1.0717658147
 N    1.1719577078   -0.1253025592   -2.0922733420
 O    1.6597618263   -1.1845867109   -2.8474263311
 N    1.3742878372   -2.3789248109   -2.2874930112
 C    0.7031675409   -2.1184034614   -1.1905317279
 C    0.2124093751   -3.0913005946   -0.2945881084
 C   -0.2295484558   -3.8631675851    0.5160616911
 H    1.0592304057    1.7431665515    0.2513655944
 H   -0.2586188399    1.8975425296   -0.9234728680
 H   -0.6366048541    1.7786448986    0.8066960165
 H   -0.2541317879   -0.5383712295    0.7486099270
 H   -0.6150707693   -4.5650887399    1.2144241750