19

 C    0.6697400930    1.4541073528    0.0765599657
 O    1.4196385914    0.2440664140    0.0485098262
 C   -0.0188168315    0.1467756935    0.0136867241
 C   -0.5741503360   -0.4421501089    1.2998904261
 O   -1.9589827344   -0.2405408596    1.4771440102
 C   -2.7803599953   -1.1420209910    0.7582554064
 C   -3.0181824860   -0.7462517049   -0.7003134947
 C   -1.8071659588   -0.6769334697   -1.5966108629
 C   -0.5637567053   -0.2972895238   -1.2964609912
 H    0.6868190798    2.0019609047    1.0184186559
 H    0.7378263069    2.0672235632   -0.8208411418
 H   -0.3348131615   -1.5173742192    1.3240373964
 H   -0.0712624724    0.0330927944    2.1471100473
 H   -2.3547432539   -2.1569445308    0.8055290822
 H   -3.7416612307   -1.1565286449    1.2831102646
 H   -3.7337775325   -1.4632480621   -1.1222485384
 H   -3.5288122379    0.2279128785   -0.7175710765
 H   -2.0001028460   -0.9206978146   -2.6392971993
 H    0.1766978411   -0.2594406416   -2.0923652703