20

 C    0.0176184050    1.5413873917    0.0073805510
 C   -0.0215294943    0.0151961450   -0.1065287733
 C    0.8081665800   -0.5347210653   -1.2925893222
 C    0.9774238681   -2.0438945517   -1.1793987349
 O    1.7478140960   -2.4804999874   -2.2999920811
 C    1.8887687303   -3.8140534998   -2.4475675744
 N    2.5929375508   -4.2730466170   -3.3872424277
 C    0.1043600826   -0.1810163851   -2.5933791301
 O    0.3363747893    0.7943442289   -3.2563438243
 H    1.0371517516    1.8931049476    0.1951988757
 H   -0.3311298330    2.0213067518   -0.9110288296
 H   -0.6139290245    1.8828854300    0.8326222698
 H    0.3585738550   -0.4351235400    0.8188125323
 H   -1.0606953009   -0.3275814916   -0.2048324976
 H    1.7927793519   -0.0560231471   -1.3061313679
 H    1.4877089498   -2.3023329967   -0.2427296794
 H   -0.0041630845   -2.5411167236   -1.1799300098
 H    1.3420295226   -4.3987024224   -1.6940041280
 H    2.5876991105   -5.2905412453   -3.3621108585
 H   -0.7128483265   -0.8883211720   -2.8751379100