17

 N   -0.0479970652   -1.1466641294   -0.0060366130
 C   -0.0266334941    0.0086738353    0.0008651467
 C    0.0325924026    1.4699765868    0.0092690942
 C    1.4598277848    1.9921715087   -0.0014316089
 C    2.5493472196    1.7575160480   -1.0900824491
 C    3.2096131088    2.6671908269   -0.0143930312
 C    1.8888710106    3.4898016551    0.0046600500
 C    2.5710431875    1.7425544948    1.0616543944
 H   -0.5133675346    1.8476059401   -0.8636933747
 H   -0.4962498949    1.8368112086    0.8972421494
 H    2.9353669391    0.7392284073   -1.1805466503
 H    2.3652335359    2.2080101682   -2.0696305820
 H    4.2252966197    3.0604172048   -0.0218995677
 H    1.6558574353    4.0689727514   -0.8935103394
 H    1.6741051504    4.0563612684    0.9153371676
 H    2.4068101813    2.1793695595    2.0508833479
 H    2.9586476033    0.7231561854    1.1301385863