10

 O    0.1304957016    1.3505643459    0.0067913083
 C   -0.0044803707    0.0389906827    0.0009114154
 C   -1.1024368323   -0.7388427803    0.0030187567
 O   -0.6587798540   -2.0751703563   -0.0061896477
 C    0.6896200443   -2.0709458933   -0.0135672619
 O    1.4205058518   -2.9996707128   -0.0223103140
 O    1.1107671668   -0.7333553367   -0.0091310357
 C   -2.4710814152   -0.4463335614    0.0120264829
 N   -3.6025976691   -0.1946683500    0.0195243549
 H    1.0694506669    1.5801724523    0.0028464411