18

 C    0.0258764705    1.7369857379    0.0366929022
 C    0.0871749343    0.2139389060    0.0683929875
 O    0.8078685717   -0.2651071093   -1.0876553012
 C    2.0446433354   -0.7503259542   -0.7555745300
 N    2.8804517695   -1.2079774735   -1.5812383043
 C    2.2472462160   -0.6470434749    0.7416417621
 C    0.8489534643   -0.3738071842    1.2549498508
 C    0.4711198315   -0.1798303426    2.6538865422
 O    0.1962114466   -1.4153684686    1.9846159706
 H    1.0242814180    2.1748630502    0.1350601591
 H   -0.4030058097    2.0735878235   -0.9106628092
 H   -0.5991461786    2.1136612206    0.8518444468
 H   -0.9172642113   -0.2174828905    0.0272708436
 H    2.5083418124   -1.1608273611   -2.5314335932
 H    2.6719277596   -1.5614816040    1.1563448490
 H    2.9322139219    0.1787050657    0.9624814376
 H    1.2356771195   -0.2247486081    3.4286893775
 H   -0.4031385916    0.4195436170    2.9062373590