22

 C   -0.0031683544    1.5487369000    0.0646668582
 C   -0.1549593779    0.0288511511   -0.0587571040
 C    0.6808200570   -0.5627275553   -1.1908670498
 C    2.2470114902   -0.5763128939   -1.0730889788
 C    2.2434609920   -2.0923517360   -1.3347877275
 C    3.2439370328   -2.8096330567   -2.1946297624
 C    1.4426750376   -2.7683899562   -0.2575286678
 C    0.7107796829   -2.0858386544   -1.3859295145
 H    1.0378427343    1.8294069400    0.2590846633
 H   -0.3131225956    2.0537007174   -0.8573014534
 H   -0.6122113799    1.9467042974    0.8823887523
 H    0.1201939821   -0.4444841206    0.8919545818
 H   -1.2105385623   -0.2225409702   -0.2283363859
 H    0.3977739521   -0.0753485984   -2.1309799853
 H    2.7350894029   -0.0001891863   -1.8634631021
 H    2.6671792464   -0.2646502772   -0.1095416040
 H    4.2253975051   -2.8609514887   -1.7064981891
 H    2.9259363382   -3.8372934045   -2.4004843906
 H    3.3817068138   -2.3031245172   -3.1573443997
 H    1.4326150397   -3.8536270605   -0.3012033168
 H    1.4158353894   -2.3713924329    0.7550033568
 H    0.0501573536   -2.6430017970   -2.0417940206