20

 O    0.1537329234    1.3246164654   -0.4111829708
 C    0.0304831305   -0.0352278272    0.0107181042
 C    0.7659840662   -0.3090180395    1.3510086714
 C   -0.2344822554   -0.7170345964    2.4416835740
 C   -1.3260397459    0.3671241829    2.5725743150
 C   -2.1950315539    0.0740151787    1.3593805539
 C   -1.4657216761   -0.2811655691    0.1147662010
 N   -2.0327993328   -1.3482832195    0.9637937298
 C   -1.0520269742   -1.9124552952    1.9145017586
 H    1.0757581090    1.4785185682   -0.6415856734
 H    0.4342234934   -0.6943385113   -0.7727243579
 H    1.5157402795   -1.0977455962    1.2218929031
 H    1.2977928290    0.6037388483    1.6412274857
 H    0.2764576496   -0.9270631463    3.3846006676
 H   -1.9070342286    0.2408962890    3.4930063674
 H   -0.9169010440    1.3820429598    2.5666124497
 H   -3.1995840194    0.4821326346    1.3077971152
 H   -1.9868359040   -0.1696865891   -0.8325953258
 H   -0.4340524819   -2.6728170600    1.4243787750
 H   -1.6168290343   -2.4026435870    2.7150078361