13

 C   -0.0600760791    1.4948945373    0.1002476715
 O    1.2577527152    1.9170829580   -0.3066170187
 C    2.1388193823    0.8203094950   -0.6248400934
 C    1.2872518736   -0.3812930671   -0.3937167537
 N    1.3509166152   -1.7041329833   -0.4589756509
 N    0.1158693198   -2.0524100591   -0.0764726482
 N   -0.7346897788   -1.0643051421    0.2287259284
 C    0.0180607168    0.0080736726    0.0247962968
 H   -0.2652817019    1.8696266385    1.1116122416
 H   -0.8058124950    1.9271027651   -0.5797857371
 H    2.4806507238    0.9188686440   -1.6634978114
 H    3.0204704862    0.8616139350    0.0281349454
 H   -0.1621974083   -3.0189171139   -0.0205471804