20

 C    0.1662629284    1.5506608728   -0.0274648552
 O    0.2774738557    0.1368031009    0.1275805837
 C    0.6559060932   -0.5650563555   -0.9655059738
 C    0.7411854853   -2.0492775255   -0.6263416913
 O   -0.1507125495   -2.8453987158   -1.3915880514
 N    0.8757373251    0.0069310641   -2.0721227680
 C    1.2917420075   -0.7491171494   -3.2491583299
 C    0.7465541159   -0.0277393205   -4.4845887546
 O    1.1439759834    1.3269439917   -4.5025105261
 H    1.1248731252    1.9860366067   -0.3241809138
 H   -0.5779502599    1.8013027095   -0.7891613681
 H   -0.1410135522    1.9322219132    0.9470642599
 H    1.7449974354   -2.4153755750   -0.8621294168
 H    0.5783179092   -2.1701973289    0.4511849644
 H   -1.0485501363   -2.5590561200   -1.1942075856
 H    2.3893009958   -0.7344099883   -3.3006061300
 H    0.9552767918   -1.7914474395   -3.2375699466
 H    1.1340368847   -0.4972948261   -5.3952269792
 H   -0.3523624156   -0.1246376029   -4.5004414700
 H    1.0045150068    1.6335407984   -3.5963888176