17

 O   -0.3314582510    0.1644600759   -0.7627756634
 C   -0.0486280882    1.3268207576   -0.6028755324
 N    1.0554235057    1.8000914552    0.0874569642
 C    1.2895560109    3.2444007996    0.1812405127
 C    1.4283478968    3.7155219435    1.6070008487
 C    2.4215378531    3.2770786086    2.3752625583
 C    3.4657703048    2.2926859561    1.8911852893
 N    2.9926421050    1.0234591360    1.3407030394
 C    1.9694928069    0.8661820154    0.6120830494
 H   -0.6621959443    2.1574335210   -1.0022025796
 H    2.1920482594    3.4942267599   -0.3927041008
 H    0.4524189945    3.7388626971   -0.3174051420
 H    0.6864538886    4.4093528169    1.9899700451
 H    2.5040276464    3.6188906281    3.4037476964
 H    4.1183501586    2.7761399004    1.1463768494
 H    4.1260576778    2.0351776579    2.7244658123
 H    1.7009816550   -0.1403066192    0.2979064428