21

 C   -0.1479432879    1.5735548770   -0.0041670783
 C    0.0304794590    0.0558182659   -0.0134714671
 O   -1.2506978199   -0.5834569434    0.0119827717
 C    0.8795265387   -0.4834653425   -1.2058476533
 C    1.6061397037   -1.6929438965   -0.6236347030
 C    2.5797370192   -1.4746886505    0.5264806954
 C    2.2854030095   -0.1463481299    1.2229592584
 C    0.7657517466   -0.5199028987    1.2069541436
 C    1.1637747314   -1.9610790242    0.7869187865
 H    0.8099964507    2.0988421169    0.0475886111
 H   -0.6559790949    1.9083641594   -0.9170391970
 H   -0.7595428912    1.8765801542    0.8508674521
 H   -1.7371740551   -0.2986641779   -0.7690318539
 H    0.2204869490   -0.7696831095   -2.0324253133
 H    1.5703291856    0.2757435243   -1.5899824185
 H    1.8303784341   -2.5395698822   -1.2628507664
 H    3.5110551898   -2.0269875968    0.5786019957
 H    2.6725973250   -0.1370763113    2.2449262900
 H    2.5946148947    0.7805811469    0.7261913403
 H    0.2192074872   -0.3760624920    2.1384074508
 H    0.7892283947   -2.8991977493    1.1716664253