18

 C   -0.1457220909    1.5834838790    0.0489765061
 C   -0.1814048818    0.0576573827   -0.0541591495
 C    0.7577600714   -0.4896397010   -1.1277171164
 O    2.1292576826   -0.1888997811   -0.8269651589
 C    2.9258330251   -1.3066074066   -0.7889897953
 N    4.1595615133   -1.2882943590   -0.5338840845
 C    2.1094285246   -2.5375240075   -1.0946954772
 C    0.6924150913   -2.0153155490   -1.2567626704
 O   -0.3126377782   -2.6470163647   -1.4423411688
 H    0.8633559618    1.9345769204    0.2814478725
 H   -0.4566816691    2.0501887967   -0.8920505992
 H   -0.8187229639    1.9351022245    0.8360549439
 H    0.0870751017   -0.3945309112    0.9083112054
 H   -1.1877646679   -0.2969601047   -0.3023295696
 H    0.5145763092   -0.0397830873   -2.1009525017
 H    4.4762084954   -0.3318837861   -0.3629582540
 H    2.4474331341   -3.0228544878   -2.0158650635
 H    2.1750260112   -3.2848000574   -0.2996216190