14

 N   -0.0503073497    1.4619638139   -0.1660296334
 C   -0.0612121795    0.0336396691   -0.0242964079
 C   -0.4672617660   -0.7361646661    1.1858584398
 O   -1.5005499813    0.0121289267    1.8835357651
 C   -2.3766490717   -0.1543246301    0.8059733935
 O   -3.5347082169    0.1051956967    0.7745642540
 C   -1.3408284342   -0.8139959548   -0.0779746589
 N   -1.5135414711   -1.8204168950   -1.0532501380
 H   -0.6574709764    1.8824711034    0.5327597165
 H    0.8852599646    1.8121648380    0.0192057837
 H    0.7155168583   -0.4560876840   -0.6075059258
 H    0.0468658290   -1.5066553588    1.7436634138
 H   -2.2849783809   -2.4380847354   -0.8234527060
 H   -1.6945213043   -1.4206577838   -1.9680721166