25

 C   -0.0582143482    1.5523537074    0.0295902007
 C    0.0217402166    0.0358691078   -0.0213548504
 C    1.1290456283   -0.6303019314   -0.8977873492
 C    1.1752216154   -1.7693826141    0.1691764460
 C    2.5017353734   -2.4540830858    0.4524802072
 C    0.6612680739   -0.7093098805    1.1855748615
 C    0.0354863358   -2.7769363041   -0.0878288803
 C   -1.1897341531   -2.0950643027   -0.7381685707
 C   -1.3450419859   -0.6163520042   -0.3158614137
 H    0.9115824048    1.9929919109    0.2855499269
 H   -0.3709175497    1.9673004247   -0.9361420181
 H   -0.7845666345    1.8848148036    0.7813237542
 H    0.9000184455   -0.8862995183   -1.9368209985
 H    2.0505044455   -0.0393097136   -0.8767840557
 H    3.2860732359   -1.7231132726    0.6776031500
 H    2.4211441878   -3.1320460005    1.3110217351
 H    2.8341960943   -3.0491527515   -0.4065680837
 H    1.4877705040   -0.1355020600    1.6186714453
 H   -0.0013708429   -1.0478059961    1.9900409440
 H    0.3863398106   -3.5880928997   -0.7378749554
 H   -0.2353947356   -3.2441006568    0.8680935575
 H   -1.0652536995   -2.1302847820   -1.8254895238
 H   -2.1046837974   -2.6573256147   -0.5263481616
 H   -1.9715176962   -0.5269858761    0.5813275119
 H   -1.8645589187   -0.0653489297   -1.1096693592