16

 O    0.0211353839    1.4160846335    0.3848983161
 C    0.0086240506    0.0887191605   -0.1027833868
 C   -1.3573757104   -0.5324458244   -0.0298126316
 C   -1.9517007150   -1.1381789916    1.2148533932
 C   -1.6885273287   -1.9984256255   -0.0135396916
 N   -2.7386329268   -2.0965739348   -0.9785965475
 C   -3.1458583049   -0.8559143366   -1.4297942115
 O   -4.0768370368   -0.5859003320   -2.1314091732
 O   -2.2742507666    0.0855651571   -0.9231266762
 H   -0.5893019755    1.9258237220   -0.1594803403
 H    0.3699283410    0.0346891871   -1.1411503111
 H    0.7002666078   -0.4825956022    0.5242318208
 H   -1.2778343869   -1.2602771115    2.0558588338
 H   -2.9798832851   -0.9049881115    1.4691573531
 H   -0.9372067009   -2.7799457318   -0.0136612662
 H   -3.4082304356   -2.8483714683   -0.9975918809