19

 C   -0.0789662696    1.6151525330   -0.0134427679
 C    1.4739194734    1.5897770100    0.0368754440
 C    2.0541090820    1.3804974461    1.4042849840
 C    1.6574782943    0.2177240300    1.9607514907
 C    2.6798144432   -0.9106148230    1.7576420582
 C    1.7853837046   -1.1055423591    0.4687816163
 C    1.4331329866    0.0660809626   -0.5587132948
 C   -0.0407162189    0.0870456721   -0.0338764186
 C    0.5434640619   -0.5731948548    1.2400062864
 H   -0.5870565327    2.1173240411    0.8135708434
 H   -0.4453900610    2.0187698979   -0.9621739721
 H    2.0029240249    2.3426829815   -0.5489585004
 H    3.0658330828    1.7381314213    1.5886220954
 H    3.7278852019   -0.6192251921    1.6690447858
 H    2.5825558097   -1.8016023581    2.3905726057
 H    1.7656905481   -2.0963145068    0.0018278851
 H    1.6908820701   -0.0449457975   -1.6116852720
 H   -0.8346060858   -0.4930509893   -0.5087050152
 H   -0.0587593854   -1.2276565148    1.8722068160