16

 O    0.2121669027    1.3794922689    0.2243261580
 C    0.1907839223   -0.0177081180    0.1100742951
 C   -1.1957158253   -0.6980438532    0.2810675932
 C   -2.4023281890    0.2137541836    0.4257069409
 C   -3.7063742650   -0.5071776465    0.1441796316
 O   -4.6386018785   -0.5405091088    0.9051193924
 O   -1.0738433535   -1.2499390919   -1.0855579951
 C    0.1048690466   -0.5745080747   -1.2985089345
 N    0.8127716477   -0.4196096540   -2.3199232293
 H    0.7295581673    1.7191493808   -0.5152797667
 H    0.9737980885   -0.4859472094    0.7198714478
 H   -1.2151789375   -1.5217177087    0.9990534286
 H   -2.4359954496    0.6303009304    1.4362695733
 H   -2.2983387266    1.0450919977   -0.2821921238
 H   -3.7490756592   -1.0131045035   -0.8444143240
 H    0.4269925892   -0.8952442128   -3.1369711674