15

 C    0.0772312662   -1.2007174523    0.0428707694
 C    0.0367158449    0.0004508257    0.0363818833
 C   -0.0053830200    1.4382448112    0.0427411559
 C   -1.0758613825    2.0626281424   -0.6907124797
 C   -1.9526805484    2.6099393067   -1.3048590674
 C    0.4380458261    2.2455227124    1.2888981285
 C    1.6247671922    1.5424539561    1.9365339534
 O    2.3552669847    1.5601229654    0.6728795731
 C    1.2961786123    2.2680772993    0.0655833857
 H    0.1118193117   -2.2620374164    0.0329096220
 H   -2.7334619267    3.0783471174   -1.8513391292
 H   -0.2171626075    2.9831699868    1.7294938716
 H    2.1391838232    2.1603893368    2.6787779325
 H    1.4718058030    0.5270754125    2.3126616962
 H    1.5157428409    3.0075427461   -0.6950321253