20

 C   -0.1666587853    1.4547510893    0.0099803365
 N   -0.0029607692    0.0097042192    0.0906434902
 C    1.3207107159   -0.5311230160   -0.2185227861
 C    0.7942209626   -0.5527074462    1.1746100555
 C    1.4090169539    0.3079331208    2.2939573390
 O    1.7454707968   -0.5817688515    3.3538271470
 C    0.9899149870   -1.7607231879    3.2132665434
 C   -0.5059854816   -1.6528034745    3.1009331479
 C    0.3560186054   -1.8191074122    1.8561396502
 H    0.7307802977    2.0314349819    0.2881999523
 H   -0.4312175367    1.7211552083   -1.0181107014
 H   -0.9902186614    1.7672286170    0.6599594394
 H    1.3367813746   -1.4345524540   -0.8242177247
 H    2.1233362224    0.1741800128   -0.4360054571
 H    2.3189867514    0.8360386267    1.9967844070
 H    0.6832842199    1.0579578383    2.6430355444
 H    1.4591681930   -2.6025280857    3.7079421277
 H   -1.0903352446   -2.5129016603    3.4096966182
 H   -0.9848253965   -0.6968866522    3.2852656572
 H    0.2901717149   -2.7288947038    1.2726431935