20

 C   -0.2087357356    1.5788493470   -0.0471731077
 C   -0.2512710824    0.0628210056   -0.2501801938
 C    1.0051265032   -0.4690568094   -0.9557473765
 C    0.9607201349   -1.9703509449   -1.1714751110
 O    0.0394272847   -2.4656943466   -2.1540814736
 C    1.4340515347   -2.6680663055   -2.3952355350
 C    2.0573211993   -1.9867092716   -3.5840970592
 C    0.9786105391   -2.7502418247    0.0615958480
 N    1.0150953433   -3.3472896496    1.0507932992
 H    0.6488439975    1.8740937754    0.5674728981
 H   -0.1285931299    2.1069739417   -1.0039200778
 H   -1.1143116937    1.9337355629    0.4533272560
 H   -0.3624696541   -0.4380838295    0.7187751513
 H   -1.1296428780   -0.2121437285   -0.8452984345
 H    1.1181255202    0.0238322921   -1.9249098101
 H    1.8986299181   -0.2294884136   -0.3655287342
 H    1.7469714106   -3.7038378118   -2.2527745645
 H    1.7013154509   -0.9631578121   -3.7079560471
 H    3.1475715197   -1.9753777240   -3.4849458591
 H    1.8096826574   -2.5431960429   -4.4937192785