18

 C    0.0037413081    1.5131430993   -0.0526652017
 C   -0.0102123766    0.0144491838    0.0333851521
 C   -1.1168542453   -0.7268587554   -0.0725051964
 C   -1.0783284075   -2.2058212226   -0.0152647145
 C   -0.1715811239   -2.9496905931   -1.0081697559
 C    0.2412876994   -2.7859384303    0.4245973273
 O    1.2593081061   -1.9350538341    0.8535655994
 C    1.3286458224   -0.6585026899    0.2318672032
 H    0.6636370839    1.8647725199   -0.8573493798
 H   -0.9970016951    1.9101084395   -0.2435458916
 H    0.3798023998    1.9626184487    0.8757011830
 H   -2.0835015226   -0.2468141332   -0.2045518460
 H   -1.9916136598   -2.7046814563    0.2913321381
 H   -0.4715736229   -3.9392930619   -1.3365580750
 H    0.3044624558   -2.3463105229   -1.7726496937
 H    0.2343262338   -3.6666146610    1.0572563035
 H    1.8647377759   -0.7319316744   -0.7313212358
 H    1.9619294785   -0.0531620462    0.8909616438