17

 O    0.2150912485    1.4346187776   -0.0289516461
 C    0.0413752566    0.0523356982   -0.0264901586
 C    0.0998287861   -0.6965430943    1.3276125163
 O   -0.8806416093    0.0562198808    2.0878508975
 C   -2.0297613430   -0.3166099453    1.3035945790
 C   -2.0840881067   -1.8484708940    1.5537788947
 O   -3.0937648248   -2.5332498512    0.8460344804
 C   -0.8028115449   -1.8275618886    0.7130663438
 C   -1.3568818668   -0.5927878980   -0.1036761811
 H   -0.1942766963    1.7476162541    0.7888865503
 H    0.7099725324   -0.3856049578   -0.7727476352
 H    1.0031573548   -0.8565588956    1.9131387035
 H   -2.8665488290    0.3600551365    1.4729097306
 H   -2.0201497785   -2.1615219092    2.6043202019
 H   -3.9295586882   -2.3782036313    1.2979631715
 H   -0.3442358111   -2.7121982735    0.2784859755
 H   -1.9746455100   -0.6617940784   -0.9932084639