23

 C   -0.0379347978    1.5252379712   -0.3221945048
 C    0.0201057842    0.0562334127    0.0961576561
 O    0.5948804537   -0.0869378993    1.3957756658
 C   -1.3487881177   -0.6295252974    0.0096133974
 C   -1.3004963938   -2.1210922074    0.3671144493
 C   -2.6725918954   -2.7470704737    0.3552145971
 O   -3.2895375346   -2.9626291140   -0.9235573241
 C   -2.9924092835   -4.1065245571   -0.1134664131
 C   -1.9939867398   -5.1014274872   -0.6477867955
 H    0.9493764720    1.9860455731   -0.2310654574
 H   -0.3783295366    1.6306194867   -1.3572920460
 H   -0.7365325652    2.0827703127    0.3148722042
 H    0.7201207903   -0.4736001529   -0.5629448781
 H    0.0571847457    0.4288355065    2.0075258890
 H   -2.0466395828   -0.1082276118    0.6828384732
 H   -1.7533150340   -0.5117030157   -1.0027354466
 H   -0.6410005768   -2.6397689663   -0.3357233026
 H   -0.8591830465   -2.2366010974    1.3638996034
 H   -3.3584004953   -2.3171960066    1.0913218800
 H   -3.8831863892   -4.5666857006    0.3218407939
 H   -1.1147241367   -4.6130705273   -1.0717235485
 H   -1.6682021389   -5.7790926369    0.1490277637
 H   -2.4543843411   -5.7086599415   -1.4343377765