18

 C   -0.1626033524    1.5403528586    0.0442855765
 C   -0.0252082441    0.0124227629   -0.0269654464
 C    0.6745592307   -0.4001096475   -1.3087638738
 O    0.3098757262   -1.2811351647   -2.0435684031
 C    0.7802730839   -0.5389319360    1.1593028152
 C    0.0881310410   -0.5142920349    2.5436624195
 O    0.1400088347   -1.9484064491    2.6481623301
 C    0.7790046373   -2.0727910495    1.3607871080
 H    0.8170470115    2.0274326873   -0.0212487930
 H   -0.7849392212    1.9234729257   -0.7698215241
 H   -0.6224829540    1.8443207395    0.9892295540
 H   -1.0127511936   -0.4627713040   -0.0335160691
 H    1.6081760332    0.1750529061   -1.5225437232
 H    1.7813817935   -0.0971350194    1.1684625166
 H    0.6450728407   -0.0207573218    3.3496247842
 H   -0.9441227999   -0.1382881823    2.5443171846
 H    0.1663564051   -2.6350955920    0.6453733906
 H    1.7645512574   -2.5475675091    1.4360312735