19

 C    0.1367741394    1.3636833855    0.5299933873
 C   -0.0258374495    0.0465985563   -0.2063090182
 O    0.8645477443   -0.4174857849   -0.8914402111
 C   -1.3217759743   -0.6616823905   -0.0489882840
 C   -2.4664255331   -0.3818329612    0.9373200349
 C   -2.6391075797   -1.9150752183    1.1731345086
 C   -1.5125759586   -2.2052470018    0.1756272058
 C   -1.7923809977   -1.5823491061   -1.1445431944
 O   -3.0879648719   -1.4022241182   -1.6367279814
 H    1.0843838055    1.8236186299    0.2479264654
 H   -0.6936486925    2.0414528211    0.3031406073
 H    0.1235643882    1.1973621893    1.6134332556
 H   -2.1347197745    0.1387461487    1.8374761276
 H   -3.3273550228    0.1421960711    0.5168182567
 H   -2.3854157349   -2.2126946181    2.1918141224
 H   -3.6144650175   -2.3347437747    0.9132573793
 H   -0.7178550321   -2.9318589359    0.3002366260
 H   -1.0220980222   -1.7479925110   -1.8960749312
 H   -3.4178682563   -2.2606703811   -1.9230093964