21

 C   -0.3998818868    1.4431399431    0.0979443235
 C    0.0434095997   -0.0123611662   -0.0158777975
 C    1.1392636962   -0.2674641612   -1.0914229793
 O    1.8552991988   -1.4496557023   -0.7176122637
 C    1.5954599158   -1.7413888905    0.6592928234
 C    2.7928856020   -1.7514423697    1.6278946089
 C    2.2085188888   -1.1219170247    2.9279619267
 C    1.0934141587   -0.2354771769    2.3977484488
 C    0.7635904217   -0.5900010420    1.1590674021
 H    0.4469070316    2.0879079066    0.3549818359
 H   -0.8274194925    1.8017882749   -0.8439861522
 H   -1.1618855262    1.5621728511    0.8743590928
 H   -0.8237728675   -0.6426054927   -0.2613295566
 H    0.7257131675   -0.4165810063   -2.0945275161
 H    1.8235960872    0.5946294363   -1.1276360303
 H    1.0553742928   -2.7013128155    0.7003774013
 H    3.2263237712   -2.7427644731    1.7829097427
 H    3.5705523630   -1.0992749571    1.2174851734
 H    1.8252974018   -1.8958299199    3.6079735805
 H    2.9556743148   -0.5580009388    3.4972015085
 H    0.6718385113    0.5872838251    2.9646247373