21

 C   -0.0892005253   -0.5287203341   -2.3425225039
 C   -0.3634296112   -1.6347085897   -1.3558159964
 O    0.7312058473   -2.4859048970   -0.9904963787
 C    0.1146768072   -1.6884984887    0.0406815004
 C    0.9856894392   -0.6025592019    0.6359117895
 C   -0.6836653388   -2.5118047356    1.0429649522
 C    0.1991340054   -3.3678293868    1.9249027137
 C    0.5394213663   -3.0038785836    3.3072743974
 O   -0.4418314276   -4.0035822307    3.0325420386
 H    0.8344230025    0.0069236979   -2.1177529429
 H    0.0011444318   -0.9445445416   -3.3516089898
 H   -0.9178902374    0.1877889868   -2.3505564948
 H   -1.2845091932   -2.1855876911   -1.5634771576
 H    1.5709462903   -0.0901066104   -0.1280899084
 H    0.3718534841    0.1375960813    1.1611142946
 H    1.6847315109   -1.0299993945    1.3614499436
 H   -1.2975634514   -1.8554776940    1.6710199643
 H   -1.3665870761   -3.1723791371    0.4974951921
 H    0.8933504959   -4.0109995532    1.3830560837
 H    1.4646241358   -3.3649305278    3.7547555622
 H    0.1541439944   -2.0754122882    3.7283741103