15

 C   -0.0147822305    1.4793363188   -0.0091881189
 N    0.0038343011    0.0273112063   -0.0182493905
 C   -0.0300609063   -0.8094142720   -1.1110899172
 C    0.0370815065   -2.0908871897   -0.6144610751
 C    0.0244339490   -3.3061601912   -1.4215346689
 O    0.0815606848   -4.4396743812   -1.0044663324
 N    0.1163792157   -2.0645902717    0.7729692897
 C    0.0958505500   -0.7998768544    1.0704133460
 O    0.1515476556   -0.2566999412    2.2956255986
 H    0.9524857504    1.8887612531   -0.3172882164
 H   -0.7901230151    1.8469787002   -0.6856715973
 H   -0.2355752156    1.8190141237    1.0025905616
 H   -0.1011805752   -0.4270919136   -2.1165177011
 H   -0.0456673491   -3.0954355708   -2.5148739916
 H    0.1935824885   -0.9944194664    2.9178583835