22

 C   -0.2122149055    1.3935185692   -0.0224991424
 N    0.0483493240   -0.0362157390    0.0598699338
 C    1.4415501172   -0.4588316427   -0.1144195835
 C    0.7813479166   -0.5335572630    1.2119808748
 C    1.2355286633    0.2053704080    2.4954992652
 C    0.8510551872   -1.0533100882    3.2862492731
 C   -0.6005669244   -1.3748690917    3.0563721290
 C    0.4029147188   -1.7729269193    2.0038153976
 C    0.6032458219   -3.1873308303    1.5431347462
 H    0.5923927322    2.0194706003    0.3976972440
 H   -0.3460068219    1.6735313188   -1.0725068548
 H   -1.1396993582    1.6272419319    0.5104236048
 H    1.5929923872   -1.3495301504   -0.7198680270
 H    2.1985997741    0.3147030790   -0.2492837506
 H    2.3070053444    0.4203782053    2.5021311660
 H    0.6922396380    1.1183356986    2.7635348974
 H    1.4062111560   -1.4557524698    4.1247474906
 H   -0.9954038027   -2.1983942625    3.6440297023
 H   -1.3187583897   -0.5791843383    2.8705838778
 H   -0.0979166590   -3.4421827216    0.7395432674
 H    1.6186867053   -3.3465716429    1.1630468022
 H    0.4372486451   -3.8951272014    2.3617823860