24

 C   -0.9169832604    0.9597034886   -0.0353095025
 C    0.0759246457   -0.1880540874   -0.1933639289
 N    0.9564313207    0.0108833182   -1.3643753434
 C    2.0299873840    1.0015031661   -1.1867435195
 C    2.3038264857   -0.4444215861   -0.9864989444
 C    2.3027658990   -0.9989424998    0.4285026394
 C    0.9503654168   -0.5557107305    1.0684345665
 C    1.1525236013    0.5970166066    2.0723384584
 C    0.2957749967   -1.7231541712    1.8273897107
 H   -0.4178849261    1.9083695582    0.1834454729
 H   -1.4866738941    1.0854630235   -0.9602215392
 H   -1.6253278320    0.7565133574    0.7742487537
 H   -0.5026838358   -1.0870061618   -0.4427019129
 H    2.3429670055    1.4875597483   -2.1069159925
 H    2.0189523742    1.6570227374   -0.3226177417
 H    2.8596222094   -0.9904316863   -1.7447271495
 H    2.3624981360   -2.0920965986    0.3821112731
 H    3.1632522832   -0.6599073817    1.0149022077
 H    1.6476790856    1.4697736701    1.6401663145
 H    0.1992207605    0.9331395081    2.4919859036
 H    1.7737574606    0.2549964767    2.9076979820
 H    0.9118274467   -2.0378608327    2.6770388086
 H   -0.6864424740   -1.4377397323    2.2219528322
 H    0.1543454806   -2.5910475209    1.1749906411