19

 C    0.0775317084    1.4498412653   -0.2720958882
 C    0.0192070629   -0.0554678271   -0.0390463733
 C    1.0869239488   -0.8751398872   -0.8373322827
 C    1.7500499424   -1.2737966612    0.4925910676
 C    0.7093156527   -0.4986107354    1.2714929800
 N    0.8451772566   -1.9331065273    1.4120257284
 C   -0.1910946968   -2.8601034231    0.9726429025
 C    0.3727227410   -4.1998186796    0.7782065568
 N    0.8102207018   -5.2545484589    0.6052493974
 H    1.0985029444    1.8279905923   -0.1484114197
 H   -0.2553970132    1.7039810832   -1.2835366509
 H   -0.5641935157    1.9836167728    0.4373538669
 H   -1.0156517057   -0.4002840067   -0.1489483244
 H    0.7375663975   -1.6931134066   -1.4751834261
 H    1.7280928297   -0.2244340484   -1.4364231469
 H    2.8137474304   -1.3879022683    0.6679652742
 H    0.8101774417    0.1104871189    2.1647126039
 H   -0.9539997001   -2.9137676267    1.7574129481
 H   -0.7070632067   -2.5779372359    0.0435673863