18

 C    0.0207417353    1.4982952781    0.0590496694
 C    0.0252926631    0.0009723993    0.0308437029
 C    0.0272054468   -0.8094298397   -1.0791825762
 N    0.0355396363   -2.1181219694   -0.6554114083
 C    0.0256630133   -2.1736707083    0.7181131741
 C    0.0191624199   -3.4515047249    1.4847908922
 C    0.0253633732   -0.8699707512    1.1712646854
 N    0.0175377209   -0.5136898363    2.5549027667
 H    0.8614778822    1.8979697893    0.6399548056
 H    0.0918393729    1.9128229402   -0.9507691145
 H   -0.8942640375    1.9025858669    0.5117641051
 H    0.0239319963   -0.5632157743   -2.1295398857
 H    0.0355016364   -2.9200646647   -1.2602151070
 H    0.9598814820   -4.0095894205    1.3882506137
 H   -0.1259277123   -3.2186758704    2.5421846087
 H   -0.7903644385   -4.1206051308    1.1669351352
 H    0.9409732219   -0.2280992210    2.8696335827
 H   -0.5943933422    0.2798411778    2.7180906600