21

 C    0.0088699857    1.5349923263    0.0177492660
 C   -0.0392818095    0.0265185093   -0.0180447863
 C    0.4375707415   -0.7449502284   -1.2735535299
 C   -0.5496830574   -1.8661465026   -0.8818298516
 C   -0.1283475072   -2.6011603950    0.4529335892
 C    1.1755245017   -2.0271417239    1.0510228593
 C    0.3918102150   -0.7219099383    1.3150355779
 C   -0.9486231755   -1.5410243012    1.2740311824
 C   -1.3665931060   -0.8262753063   -0.0349811671
 H    1.0451120620    1.8940707274    0.0603949029
 H   -0.4586507223    1.9705269181   -0.8727082193
 H   -0.5124330856    1.9315122141    0.8970340127
 H    0.0902062963   -0.2341901792   -2.1787487574
 H    1.5011149925   -0.9780525323   -1.3902975734
 H   -0.9871789096   -2.4958339491   -1.6568150648
 H   -0.3153924556   -3.6749379025    0.4866467549
 H    1.4081997170   -2.5251770662    1.9981918850
 H    2.0825847914   -1.9979174629    0.4387766369
 H    0.6853070775   -0.0690810748    2.1391054049
 H   -1.5680625333   -1.7659349729    2.1411246228
 H   -2.3479912986   -0.4341567195   -0.3011494751