15

 C    0.2731993586    1.4403620747   -0.0439257641
 C    0.0637541937   -0.0376412872   -0.0303344740
 C    0.3207384246   -0.9770562017   -1.0008781625
 N   -0.0556679096   -2.1554152004   -0.4408583174
 C   -0.0585054206   -3.4947432630   -0.9928806477
 C    1.2617922869   -3.9110870814   -1.4771010133
 N    2.2916733609   -4.2376483930   -1.8839330939
 N   -0.5249383642   -1.9613280966    0.8116797414
 N   -0.4536550343   -0.6893818355    1.0560872408
 H    0.9706651274    1.7428712637    0.7432476873
 H    0.6765768298    1.7707615325   -1.0040355791
 H   -0.6681695054    1.9692310001    0.1340675550
 H    0.7340138690   -0.9120698917   -1.9934924097
 H   -0.3897496043   -4.1564828315   -0.1882794866
 H   -0.7784031025   -3.5735059889   -1.8154214261