19

 C   -0.0016447720    1.4650858559    0.0322471761
 C    0.0104430095   -0.0315837732    0.0982963692
 O    0.7865639668   -0.7066268702   -0.9498353181
 C    0.8177986812   -1.8004347754   -0.0264808020
 C   -0.6764981598   -2.1663166396    0.4198961170
 C   -0.2545903765   -1.8464325358    1.8783792272
 C    0.7483581336   -0.8898534461    1.2116549791
 C   -1.3117335421   -0.8267268894   -0.0272565912
 O   -2.3166713063   -0.2931894198    0.8125371642
 H    1.0042804677    1.8740626460    0.1602203872
 H   -0.3900733598    1.7985879597   -0.9359404162
 H   -0.6521424030    1.8623840006    0.8164966788
 H    1.5438151937   -2.5843157119   -0.2367651622
 H   -1.1698343994   -3.0973804806    0.1424949842
 H   -1.0168609269   -1.4440925509    2.5459592218
 H    0.2655460468   -2.6835487709    2.3524738760
 H    1.6175339907   -0.4478074594    1.6962353911
 H   -1.6321159768   -0.8372608741   -1.0760255807
 H   -3.0857725674   -0.8699230651    0.7705368484