23

 C    0.1232060442    1.5557473341    0.2289023423
 C    0.0223064355    0.0500807709    0.0664001882
 C    1.0352509476   -0.6153301231   -0.8399064956
 C    1.1384640462   -0.7838817645    0.6571252608
 C   -1.3641763722   -0.5597859528    0.0944005985
 C   -2.3315947909   -0.2921489710    1.2865217643
 C   -3.4998380051   -0.3228354572    0.2833422226
 O   -4.5102865346    0.6223696468    0.5496686648
 C   -2.4844777474   -0.0467309692   -0.8597967085
 H    1.1685511272    1.8775945832    0.1940177069
 H   -0.4088647074    2.0874556540   -0.5676791431
 H   -0.2901234284    1.8904116155    1.1866677726
 H    0.7150346500   -1.4687686500   -1.4287804522
 H    1.7686393475    0.0124184016   -1.3352532203
 H    1.9416366967   -0.2702965544    1.1752141816
 H    0.8880357635   -1.7511878123    1.0804079794
 H   -1.2612554267   -1.6431484483   -0.0371992287
 H   -2.3413370628   -0.9968189390    2.1208535146
 H   -2.2230426199    0.7239575979    1.6761461873
 H   -3.9175443558   -1.3369190303    0.1970047931
 H   -5.1853573909    0.5429361268   -0.1318019063
 H   -2.4121964022    1.0321515088   -1.0248400087
 H   -2.6193776243   -0.5519428076   -1.8197826637