14

 O   -0.0512656279    1.4463617151   -0.0082035826
 C   -0.0042108580    0.0367017325   -0.0207470479
 C   -1.3856750854   -0.5859889666    0.0634307680
 O   -2.0827105892   -0.1856560766   -1.1413322655
 C   -3.3382710481   -0.5678057593   -1.2442392054
 N   -4.0181426886   -1.2955907484   -0.3999380975
 O   -5.2466655336   -1.3910893471   -0.9883962360
 N   -5.2317240837   -0.6992116991   -2.1860896999
 N   -4.0875133005   -0.2020030084   -2.3461265407
 H   -0.5476347063    1.7240979173   -0.7857225742
 H    0.5129080595   -0.3510401749   -0.9116212375
 H    0.5692656763   -0.2722261527    0.8589927193
 H   -1.3425528586   -1.6798433658    0.1077362551
 H   -1.9388714060   -0.2113071459    0.9302732448