16

 C    0.3470604024    1.4488264847   -0.2887895263
 C   -0.0176156797   -0.0028282477   -0.0527895866
 O    0.8041814910   -0.9210111321   -0.8806558954
 C    1.3764997848   -1.4738226211    0.2456190637
 N    2.3181366325   -2.2870955167    0.3879031302
 C    0.5357165424   -0.6808299864    1.2277499755
 O    1.2392237045    0.1601160961    2.1024723212
 C   -1.4790170738   -0.2750335681   -0.3627487140
 O   -2.3369825346   -0.3625003879    0.4743583215
 H    1.4066998074    1.6046880173   -0.0793200061
 H    0.1368042776    1.7335475601   -1.3241059847
 H   -0.2341350457    2.0897616369    0.3802770658
 H    2.7128636370   -2.5832737910   -0.5061438056
 H   -0.2279540150   -1.2705405745    1.7484516489
 H    2.0089427637   -0.3306356808    2.4133329985
 H   -1.6924523846   -0.3834824586   -1.4490884867