20

 O   -0.0906639572    1.4240130131    0.1263839683
 C    0.0226660770    0.0166107820   -0.0334754374
 C   -1.3903107017   -0.5585754113    0.0053951255
 C   -1.4078556482   -2.0731747228   -0.1981976217
 C   -2.8058711280   -2.6262197651    0.0903443409
 C   -3.1930781839   -2.3387469353    1.5448448120
 C   -2.9295411151   -0.9051309182    1.9995074722
 O   -3.4723435960   -0.4313587308    2.9811307328
 N   -2.0090067780   -0.1994905449    1.2749961037
 H    0.7846738488    1.7886702913    0.2830669343
 H    0.4942295182   -0.2415903491   -0.9942240018
 H    0.6172998421   -0.4319175718    0.7762677367
 H   -1.9487120165   -0.0878813089   -0.8206884040
 H   -1.0963462351   -2.2996938909   -1.2229183063
 H   -0.6800984658   -2.5440145151    0.4763477594
 H   -3.5283279152   -2.1564378005   -0.5893777670
 H   -2.8445734235   -3.7023493071   -0.1069133930
 H   -4.2474359709   -2.5464555535    1.7423811506
 H   -2.6203996580   -2.9873456575    2.2207763886
 H   -1.8707572030    0.7559457361    1.5753525463