19

 C   -0.2695817855    1.3054852402    0.1174791691
 O   -0.0314094617   -0.0802546310    0.0224228658
 C    0.3439466805   -0.4935377344   -1.2729511635
 C    0.4403997667   -2.0135691129   -1.2681886892
 N   -0.8511128195   -2.6544418993   -1.0335863974
 C   -1.6885493545   -2.9382542535   -2.1062222351
 N   -1.3484398161   -2.6609237647   -3.3005332259
 C   -1.2838044469   -2.9097044995    0.2597478809
 O   -2.3576842729   -3.3822575141    0.5476651724
 H    0.6316882955    1.8906267152   -0.1228256539
 H   -1.0780758314    1.6259722322   -0.5572600861
 H   -0.5634377575    1.5160086722    1.1483040886
 H   -0.3931649917   -0.1672483770   -2.0217861136
 H    1.3208238055   -0.0664130406   -1.5554802854
 H    0.8173133675   -2.3623311243   -2.2306526841
 H    1.1290880636   -2.3293598860   -0.4791808401
 H   -2.6170244112   -3.4060453584   -1.7759192788
 H   -2.0783341476   -2.9533911897   -3.9473726330
 H   -0.5196931630   -2.6322087043    1.0045704392