15

 C   -0.0353123294    1.4414891399    0.0815304621
 C   -0.0424099739   -0.0401044079   -0.0406335972
 N   -1.0575956490   -0.8287781185   -0.2084896590
 C   -0.4603047162   -2.0751362349   -0.2438949142
 N   -1.1993455890   -3.2185038150   -0.4331026192
 C   -0.7719999552   -4.2995664513    0.1122466287
 N   -1.3462157570   -5.4966036728   -0.1344330809
 N    0.8525409183   -2.0495673074   -0.1257895722
 O    1.1340511566   -0.6803220251    0.0221588019
 H    0.5731398901    1.8905123832   -0.7093226532
 H   -1.0572086919    1.8122100253    0.0057427994
 H    0.3914339066    1.7484363833    1.0412836085
 H    0.0838389956   -4.3332381335    0.7938257007
 H   -1.1361652206   -6.2914226290    0.4418348596
 H   -2.1805764750   -5.5215375664   -0.6991409650