16

 O   -0.1959791967    1.4101247294   -0.0188292336
 C   -0.0919051560    0.0338722788    0.0408332845
 C   -0.3395711894   -0.8604385198   -1.1360902775
 C   -1.2550903425   -0.9578899801    0.0740517434
 C   -0.5447140882   -1.7136659712    1.1686999812
 C   -1.1021994234   -2.4651356471    2.2896668318
 O   -0.4148764596   -3.1266634901    1.2156159003
 C    0.6410645300   -0.7251687238    1.1626090567
 H    0.5346663608    1.7466455161   -0.5492306864
 H   -0.7953835502   -0.3620469636   -1.9857843653
 H    0.3330052067   -1.6767352639   -1.3871985922
 H   -2.3205872620   -0.7814498199   -0.0028308870
 H   -0.5861881579   -2.4690480140    3.2495223544
 H   -2.1747931215   -2.6510565060    2.3399108844
 H    1.6242052205   -1.1424646877    0.9231899583
 H    0.7011738795   -0.1406341171    2.0841198171