16

 C   -0.0357901947    1.4975849984    0.0744263639
 C    1.3700173365    2.1321824082   -0.0395161332
 C    2.1820990911    1.4033127060   -1.0646918416
 N    3.1633243781    1.8970784802   -1.7692139895
 O    3.6484696929    0.8211174043   -2.5273584989
 C    2.9296302802   -0.2777274182   -2.2377346296
 C    1.9726766645    0.0101034902   -1.3160052230
 C    0.9051276432   -0.7100722536   -0.6481881062
 C   -0.0247771997   -0.0156880390    0.0231059653
 H   -0.5138242015    1.8403993029    0.9974543844
 H   -0.6710264047    1.8673997692   -0.7446939518
 H    1.3073318986    3.1989251102   -0.2675459759
 H    1.8832228105    2.0417386159    0.9271567977
 H    3.2083248893   -1.1733130635   -2.7713725730
 H    0.8653888494   -1.7926616141   -0.7091181996
 H   -0.8422061635   -0.5368288172    0.5121053810