15

 C   -0.0252070358    1.4541198802    0.1432366017
 C    0.0109438314   -0.0155286360   -0.0525073434
 N   -0.0208552389   -0.7055560832   -1.1298389659
 C    0.0355012622   -2.0478351597   -0.7251840490
 C    0.0089238225   -3.1893538175   -1.6125302410
 O   -0.0550284850   -3.1645584659   -2.8216184337
 C    0.1061863339   -2.0671540385    0.6523623079
 N    0.2490250658   -3.0411253713    1.5973174493
 O    0.0907459740   -0.7955599927    1.1019161522
 H    0.8772148323    1.8081210818    0.6527974501
 H   -0.0945321698    1.9330180716   -0.8335440038
 H   -0.8864097741    1.7520524660    0.7506437994
 H    0.0524997359   -4.1664172261   -1.0673799572
 H    0.0076403912   -3.9749665885    1.3039528919
 H   -0.0841150455   -2.8021828903    2.5198228714