21

 C   -0.1132975366    1.4993104470    0.1304488937
 C   -0.0222725289   -0.0214020204    0.0319132327
 C   -1.3472201116   -0.6258640942   -0.4141473283
 O    1.0558197604   -0.4150736590   -0.8699481624
 C    1.9284960353   -0.7451199321    0.2282147623
 C    0.7490222970   -0.6687422346    1.2276536022
 O    0.8949294934    0.1750050094    2.3412982385
 C    0.2477755032   -2.0324940698    1.6898223263
 O    1.1657887390   -2.4576930569    2.6975331349
 H    0.8408909364    1.9349865092    0.4312998609
 H   -0.3953123198    1.9072716581   -0.8451706257
 H   -0.8643671709    1.7977392461    0.8676659445
 H   -1.6364120075   -0.1943349065   -1.3777327070
 H   -1.2792589249   -1.7084299975   -0.5438105246
 H   -2.1421459292   -0.4027389486    0.3050774901
 H    2.4171009919   -1.7161394601    0.0926498872
 H    2.6866018890    0.0269512797    0.4107468975
 H    1.2222919406   -0.3875116489    3.0560046154
 H   -0.7668339138   -1.9333443295    2.1009436740
 H    0.2205958404   -2.7436844898    0.8542343104
 H    0.7985414266   -3.2231978216    3.1477078375