19

 C   -1.2052166347    0.3345950597    0.5585466569
 C    0.1403736904   -0.1404303676    0.0362893331
 O    1.1481488907   -0.0246476469    0.6974314110
 C    0.1306212506   -0.8894230594   -1.2763799031
 C    1.4103881681   -1.6251772134   -1.6540460188
 C    0.2465231298   -2.4022321597   -1.1358841138
 C   -0.6626567856   -0.3760714616   -2.4559571329
 C   -0.5308593316    1.1043650050   -2.7719816954
 O   -1.2792179028   -1.1221043794   -3.1835728000
 H   -1.8142236595    0.8183607204   -0.2092024452
 H   -1.7691460176   -0.5428717230    0.8980121629
 H   -1.0569290720    1.0071123145    1.4042293406
 H    1.6402830334   -1.6966474396   -2.7111466471
 H    2.2510529078   -1.4465551045   -0.9939892944
 H    0.3061718057   -2.7971731135   -0.1279729428
 H   -0.3509729986   -2.9726483909   -1.8372512943
 H    0.4702835369    1.2777963720   -3.1853169048
 H   -1.2742369307    1.3909329182   -3.5167689821
 H   -0.6163362902    1.7389309297   -1.8863240797