22

 C   -0.0357741509    1.5854260708    0.0203070229
 C    0.0544791862    0.0608141952    0.0278488973
 N    0.6818983256   -0.4899117625   -1.2032726329
 C    2.0787858708   -0.1269255947   -1.4878625115
 C    1.7675509846   -1.4010272251   -0.7891228302
 C    1.8296847530   -1.4752622533    0.7201881118
 C    2.1919183706   -0.2402289838    1.5159020296
 C    0.7414217292   -0.5676268073    1.2600381560
 C   -0.1457873746   -0.9480968336    2.4235418896
 H    0.9515484022    2.0537255829    0.0712069729
 H   -0.5313137881    1.9338943174   -0.8904678145
 H   -0.6152466997    1.9372300063    0.8798406685
 H   -0.9712323231   -0.3308522134    0.0158686437
 H    2.3269984123   -0.1335384082   -2.5466850292
 H    2.5630058526    0.6705343835   -0.9342759561
 H    1.8450122063   -2.3438300458   -1.3247614170
 H    2.0209241073   -2.4473274301    1.1613457444
 H    2.5512307168   -0.4038443704    2.5278621114
 H    2.6695405100    0.6001259796    1.0269939686
 H   -0.5962550079   -0.0628041341    2.8889196019
 H   -0.9624686182   -1.6061879173    2.1045675090
 H    0.4227994850   -1.4700062759    3.1996870339