17

 O    0.0002772590    1.4026472115    0.0495529119
 C    0.0284103412    0.0060200530    0.0310208582
 C   -0.5285346828   -0.7757990300    1.2120854312
 C   -1.2952367716   -0.6634820860   -0.0900213720
 C   -2.5833863438    0.1398457030   -0.2214509293
 O   -3.5482576102   -0.8151981635   -0.6888634646
 C   -2.9135799019   -1.9461663744   -1.1225553844
 N   -3.4637433530   -2.9798219857   -1.5993723186
 N   -1.5460594724   -1.7711670724   -0.9674912827
 H    0.6768435029    1.7111093295    0.6619764455
 H    0.8659895246   -0.4387331273   -0.5081736388
 H   -0.0584886705   -1.7223673442    1.4611011476
 H   -0.8967388945   -0.2067501628    2.0603776653
 H   -2.9340645865    0.5611273799    0.7222254098
 H   -2.4804697226    0.9435155577   -0.9581397894
 H   -4.4721198149   -2.8536325135   -1.6439906987
 H   -1.0015413231   -2.6165713946   -0.9011238910