23

 C    0.0050429961    1.5589867623    0.1415881569
 C   -0.0237975792    0.0264142879    0.0117927150
 C   -1.4800415672   -0.4587671839    0.0324304281
 O   -2.0402475412   -0.0953949231    1.2914087530
 C    0.7258740684   -0.5000916407   -1.2386231864
 C    0.7785671352   -2.0405969161   -1.2860135882
 O    0.0308664078   -0.0050091786   -2.3848580003
 C    2.1655073481    0.0438055573   -1.2895268852
 O    2.7117711001   -0.3576970547   -2.5479851257
 H    0.9871307432    1.9343479474    0.4426035071
 H   -0.2660835968    2.0233362981   -0.8111420749
 H   -0.7139386961    1.8700167105    0.9017145396
 H    0.4641273948   -0.4129164660    0.8921598314
 H   -2.0272214239    0.0048661172   -0.7999783755
 H   -1.5275977460   -1.5472622153   -0.1007311564
 H   -2.9828184401   -0.2803083275    1.2598154624
 H   -0.2078018999   -2.4550929778   -1.5002125837
 H    1.4596582461   -2.3632269136   -2.0773688843
 H    1.1361261786   -2.4570888618   -0.3380050823
 H    0.6495189413   -0.0973956885   -3.1208761523
 H    2.1532862706    1.1356889986   -1.2168335662
 H    2.7581281390   -0.3588124489   -0.4546162812
 H    3.4764326811    0.1918594172   -2.7374685007