19

 C    0.7651979827   -0.8599670781    1.3395335378
 N    0.1122054051   -0.2276193856    0.1891337531
 C   -1.2475909742   -0.6749493968   -0.0255668835
 C   -1.8097618575   -0.5719719390   -1.4917782102
 N   -2.0985591955   -2.0423713525   -1.5615110674
 C   -0.7949845928   -2.7029766882   -1.3907999746
 C   -1.4661066424   -2.1846723730   -0.1836626914
 C   -2.2605338073   -0.0487986664    0.9200741217
 O   -1.9977799914    0.8495308196    1.6795103384
 H    1.7733743768   -0.4496545029    1.4418507600
 H    0.2377865271   -0.7181040921    2.2947229778
 H    0.8613811706   -1.9347109767    1.1541330778
 H    0.0824723819    0.7755608939    0.3540242190
 H   -2.7353248571   -0.0001290989   -1.5869586282
 H   -1.0761670854   -0.2157891880   -2.2199674035
 H   -0.8431103722   -3.7750343176   -1.5539560260
 H    0.1022091183   -2.2126097427   -1.7586562390
 H   -1.8956643691   -2.8335985672    0.5728761849
 H   -3.2956282976   -0.4519816877    0.8361306233