19

 C   -0.0385968910    1.4543272934   -0.2909240216
 C    0.0540803665   -0.0273047238    0.0052771515
 C    1.3916919916   -0.7646442027   -0.0289318601
 O    2.5687028515   -0.0233275663   -0.1685532063
 C    0.6718906940   -0.5507276935    1.2853775701
 N    1.1771169314    0.3921870762    2.2568547728
 C   -0.0136661206   -1.7415892327    1.9420610082
 C    0.9045015681   -2.5296812689    2.7687619119
 N    1.6462287292   -3.1281369410    3.4225303794
 H    0.9158443941    1.9612233742   -0.1300890339
 H   -0.3284463629    1.6195484719   -1.3340354165
 H   -0.7847597761    1.9388434333    0.3458639493
 H   -0.7910938696   -0.6054589815   -0.3623393517
 H    1.4264249287   -1.7634479683   -0.4647651484
 H    2.6436266753    0.2594541984   -1.0861978406
 H    1.7466108998   -0.1120805117    2.9346609695
 H    1.8215167372    1.0261147553    1.7931679901
 H   -0.8335648828   -1.3852813555    2.5767881725
 H   -0.4484911143   -2.3985512170    1.1826588037