18

 C    0.0760095291    1.4550431036   -0.2546926477
 C    0.0995941859   -0.0351263416   -0.0599584855
 N   -0.8609042826   -0.7194058027    0.8388966172
 C    0.5869847557   -0.7593640822    1.1363849763
 C    1.2301653241   -2.0416263879    0.6595498311
 O    0.8215924482   -2.1931732160   -0.7009693768
 C    0.4429093415   -0.9404722937   -1.2454030448
 C   -0.7573270969   -1.1403037459   -2.1587088676
 O   -1.1383206084   -0.2987219871   -2.9310552929
 H    1.0354338857    1.8171738644   -0.6391650305
 H   -0.6971178801    1.7353560474   -0.9771082017
 H   -0.1278771454    1.9699834570    0.6895766775
 H   -1.3050690035   -0.0210651423    1.4317173277
 H    0.9809254421   -0.2381992995    2.0026981841
 H    2.3256936892   -1.9672308365    0.7381641412
 H    0.8958757876   -2.9302165097    1.2038996487
 H    1.2567553398   -0.4802666748   -1.8278762208
 H   -1.2672139019   -2.1172784725   -2.0285412154