19

 C   -0.6139398290    1.3967814105   -0.2187907621
 C    0.0192989517    0.0205979258    0.0622972346
 C    0.8638582687   -0.4701241170   -1.1139954944
 O    1.9233715631    0.4286513950   -1.4623724860
 C    3.0515692959    0.5045030544   -0.7129936617
 O    3.9236626692    1.2570423182   -1.0473785654
 C    3.1489881179   -0.3892086953    0.5208474453
 C    2.0752497253   -0.1643036994    1.5647362928
 C    0.7694327996    0.0170931228    1.3701102416
 H    0.1583905538    2.1517414409   -0.3855331735
 H   -1.2518380657    1.3576705811   -1.1079102568
 H   -1.2297905067    1.7199336323    0.6256452749
 H   -0.8013428846   -0.7077191147    0.1565248830
 H    1.2599353054   -1.4723184342   -0.9166610731
 H    0.2497552081   -0.5261372430   -2.0164575363
 H    3.1695691576   -1.4400742837    0.1994874746
 H    4.1305350102   -0.1804778160    0.9477090095
 H    2.4443016431   -0.1400874617    2.5866800749
 H    0.1487261364    0.1940296338    2.2468659983