20

 C   -0.2050175198    1.5693712847   -0.0576605450
 C   -0.0188240888    0.0404483456   -0.0458721760
 C    0.7224346811   -0.4759605251    1.1504343188
 C    2.0720961668   -0.7623497051    1.2812860356
 C    3.2069100721   -0.6397615983    0.3176112034
 N    2.2436611595   -1.2142690393    2.5479973856
 N    1.0957575661   -1.2378927107    3.2746550540
 C    0.1765322404   -0.7959128008    2.4248568257
 N   -1.1762653724   -0.7587736430    2.7816654429
 H    0.7622845929    2.0817340821   -0.0653069403
 H   -0.7695607519    1.8927930890   -0.9385877903
 H   -0.7460942851    1.9124951739    0.8311091854
 H   -1.0039370235   -0.4412571204   -0.0876317529
 H    0.5015499689   -0.2589901617   -0.9638740334
 H    3.7536727035    0.3030469608    0.4406868612
 H    3.9259615337   -1.4568039823    0.4406591184
 H    2.8407984590   -0.6731857085   -0.7117504093
 H    3.0958033353   -1.5299670839    2.9765328050
 H   -1.2902508185   -0.9156544618    3.7757328155
 H   -1.6332827191    0.1040963848    2.5160960955