18

 O    0.1680348766    1.3017778085   -0.0802943107
 C    0.0350868416   -0.0907313539    0.0005800324
 C   -0.4332692897   -0.6757528067    1.3015716947
 C   -1.3530047059   -0.6607301968    0.0488305203
 C   -1.3736656142   -2.2034451616    0.0434160219
 C   -0.2879526855   -2.9766607064   -0.7680386228
 C    0.6383601436   -2.9927315202    0.4946720493
 C   -0.4519541590   -2.2185447782    1.2992009569
 H   -0.5335782113    1.7076889244    0.4400718916
 H    0.8259614404   -0.5471955213   -0.5853528431
 H   -0.4602926969   -0.0528267376    2.1903060412
 H   -2.2019844469   -0.0246866161   -0.1819933591
 H   -2.3735395015   -2.6372813301    0.0767724757
 H   -0.6124865891   -3.9736290262   -1.0754066576
 H    0.1032443720   -2.4626457339   -1.6496899799
 H    0.8215511923   -3.9985173378    0.8801971941
 H    1.6034350719   -2.4895991029    0.3937671426
 H   -0.7887579785   -2.6630277532    2.2362391324