19

 O   -0.0147010629    1.2294981796   -0.6030956030
 C    0.0291807017   -0.0078381312    0.0984822023
 C   -1.3518825678   -0.6105156878    0.0395297939
 C   -1.9461486522   -1.2874683997   -1.1570440669
 C   -0.9115311838   -2.1117685401   -1.9276065947
 C   -0.6086299135   -2.9331761657   -0.6360471702
 C   -1.6490309823   -2.0955554732    0.1396867273
 C   -2.5422655188   -2.6268789425    1.1118318995
 C   -3.2876676738   -3.0990624785    1.9316776355
 H    0.8396789414    1.6597098840   -0.5015318544
 H    0.7753755860   -0.6836897194   -0.3416819745
 H    0.3103110250    0.1418399250    1.1527208857
 H   -2.0874265864   -0.0187575576    0.5785500135
 H   -2.9171900980   -0.9930494367   -1.5358075655
 H   -1.3602718623   -2.7279942338   -2.7086319254
 H   -0.0846296074   -1.5455501766   -2.3663774949
 H   -0.9274770540   -3.9726563767   -0.7270873078
 H    0.4143565554   -2.9175896961   -0.2489508244
 H   -3.9474314765   -3.5090115828    2.6551273939