18

 C    0.1334231661   -1.3601729819    0.1422472005
 C    0.0175433627   -0.1634016149    0.1164306526
 C   -0.1031757255    1.2903509729    0.0376099099
 C    1.2412086067    2.0096848454    0.1851823014
 C    2.3041839285    1.5099218287    1.0849570783
 N    2.4769272005    1.4534095791   -0.3803809309
 C   -0.7648990048    1.6928691511   -1.2785901507
 C   -2.2132090828    1.8816186715   -1.3865829965
 O   -1.3252066239    3.0024394233   -1.3032771566
 H    0.2166417833   -2.4185606672    0.1810692987
 H   -0.7604631020    1.6428600319    0.8445258277
 H    1.1390345835    3.0830069061    0.0432734968
 H    2.9525842879    2.2137950329    1.5985012646
 H    2.1220523706    0.5790597334    1.6146897642
 H    2.3043205205    0.4975467752   -0.6891881581
 H   -0.2031013588    1.4217673284   -2.1727042350
 H   -2.7075165273    1.7479259733   -2.3470083168
 H   -2.8416012153    1.7181211808   -0.5121437903