24

 C   -0.1198454515    1.6501008152   -0.0321044834
 C   -0.0797991768    0.1429326744    0.2366176817
 C   -1.4299779150   -0.5451175849    0.0285082245
 C   -1.8508408630   -0.7400947406   -1.4613699729
 C   -1.4076194377   -2.2230394581   -1.3693275517
 C   -1.3956036524   -2.0957746849    0.1759038922
 N   -2.3299597548   -3.1975530048   -1.9205423672
 C   -2.0937610385   -3.5974051119   -3.3058224952
 C   -1.7823254207   -4.5259240583   -2.1853944546
 H    0.8623094014    2.1090388714    0.1188456612
 H   -0.4319804898    1.8651970315   -1.0597761076
 H   -0.8282365073    2.1499049650    0.6380674597
 H    0.6758744127   -0.3261261231   -0.4084296194
 H    0.2515859811   -0.0354409224    1.2683616781
 H   -2.1821817626   -0.0471940622    0.6488881980
 H   -2.9327121316   -0.6741078570   -1.6006293004
 H   -1.3576107035   -0.1143644786   -2.2105861961
 H   -0.3868354884   -2.3601223259   -1.7662117166
 H   -0.5439313280   -2.5266995333    0.7103458939
 H   -2.3213772574   -2.4948356620    0.5978911315
 H   -2.9815492593   -3.7429164072   -3.9144725224
 H   -1.2502638941   -3.1500328660   -3.8297057251
 H   -0.7308047051   -4.6988327653   -1.9606918677
 H   -2.4386053179   -5.3618129608   -1.9609396703