17

 N    0.0239928655    1.2165882008    0.0576708568
 C   -0.0570956403   -0.0403893030    0.0504070558
 O    0.9705154241   -0.9487393070    0.1110123330
 C    0.2661430916   -2.2566747456    0.0675895075
 C    1.0855476752   -3.0743493929   -0.9585593726
 N    0.3223536589   -2.3389492959   -2.0715512655
 C   -0.7423333640   -2.0587982385   -1.0145948884
 C   -1.2610565031   -0.9232260029   -0.0307184346
 C   -0.8531606550   -2.0048440794    1.1135789091
 H    1.0000935674    1.5130105103    0.1197541149
 H    2.1678993916   -2.9322698753   -0.9548454664
 H    0.8352324647   -4.1365168017   -0.9865836858
 H    0.8408618047   -1.4887205964   -2.2820931074
 H   -1.4912761327   -2.8487389022   -1.0833294235
 H   -2.2399167911   -0.4544288641   -0.0847278210
 H   -1.5802257265   -2.8129748289    1.1940340313
 H   -0.5845146111   -1.6062177473    2.0939204566