17

 C    0.3695326538    1.4753473214    0.0699163113
 C    0.0788784021   -0.0128055901    0.0005721521
 O   -1.3062761872   -0.2845735495   -0.1353735656
 C    0.9488403072   -0.8864046949   -0.9754504346
 C    1.3474921943   -1.8181806374    0.2141019316
 C    0.5609652239   -0.9012682026    1.1785763351
 O    1.8129938659   -0.4386565695    1.7690287582
 C    2.5593180516   -1.2895263456    0.9718453611
 O    3.7374981189   -1.4359809129    0.9825910433
 H    1.4202871335    1.6634826682    0.3015742887
 H    0.1426335442    1.9517222385   -0.8917770008
 H   -0.2475785431    1.9449267590    0.8415676922
 H   -1.6160446570    0.1353691435   -0.9453869589
 H    0.3287950906   -1.3933123555   -1.7162914551
 H    1.7817894902   -0.3891566217   -1.4769015624
 H    1.2335520603   -2.8940879459    0.1112237640
 H   -0.1639404491   -1.2108624151    1.9286761898