23

 C   -0.6591184754    1.7676832627    0.3717141479
 C   -0.3800424800    0.2696959499    0.2337602214
 C   -1.6459187330   -0.6043782209    0.1233383145
 C   -1.2962729084   -2.1079769109    0.0048147688
 C   -0.5583285206   -2.6949920514    1.2122196535
 O   -2.4519193275   -0.3984110023    1.3051292042
 C   -3.7847347138   -0.0403621600    0.9565032148
 C   -3.7691664636    0.1175152421   -0.5380797333
 C   -2.5647467299   -0.1872657501   -1.0035142526
 H    0.2743889409    2.3256037275    0.4929075561
 H   -1.1780727464    2.1672055110   -0.5050107905
 H   -1.2846026625    1.9585072213    1.2480000444
 H    0.2453094236    0.0785342056   -0.6480356324
 H    0.1947700201   -0.0691611247    1.1017539008
 H   -2.2379732625   -2.6499045585   -0.1402750640
 H   -0.7082247654   -2.2596907910   -0.9098386448
 H    0.4558963338   -2.2971800594    1.3117255792
 H   -1.1027860304   -2.4730533246    2.1339323389
 H   -0.4744348553   -3.7820695646    1.1172674703
 H   -4.4921461605   -0.8206963888    1.2829029148
 H   -4.0654122292    0.8865692231    1.4794040093
 H   -4.6346977982    0.4236073562   -1.1123630354
 H   -2.2465770356   -0.1805558022   -2.0388468962