16

 C   -0.0492842591   -1.1947033528    0.0003939812
 C   -0.0424674971    0.0047159121   -0.0376286464
 C    0.0051743771    1.4679182214   -0.0591639355
 C    1.4576400646    1.9886610095    0.1513970840
 C    1.5280323281    3.4778921111    0.3828583299
 C    2.6985500463    4.2646736497   -0.0244799750
 O    1.4808490029    4.3199917545   -0.7670401631
 C   -0.5931527831    1.9826630233   -1.3034516729
 N   -1.0786613155    2.3738446783   -2.2751325607
 H   -0.0702281398   -2.2566080157    0.0262794420
 H   -0.6110447723    1.8474954471    0.7685898673
 H    1.8610144628    1.4653615580    1.0248196564
 H    2.0667228762    1.7142681918   -0.7137897669
 H    0.9378897316    3.8457806559    1.2255211578
 H    2.9571212216    5.1695986880    0.5228239974
 H    3.5297243856    3.7695139778   -0.5249726857