19

 C   -0.0431118706    1.4612979697    0.0068841150
 N    0.0210602419    0.0142669891   -0.0037058856
 C    0.0691584632   -0.8290237537   -1.0942906897
 C    0.0903777783   -0.3348590404   -2.5005618813
 N    0.0926328603   -2.0862332384   -0.7225773870
 C    0.0512053498   -2.0959736327    0.6620968398
 C    0.0645813625   -3.3622591129    1.4546165177
 C    0.0056836255   -0.8019278860    1.1052325024
 O   -0.0497498153   -0.2133598774    2.3303498140
 H    0.6661492202    1.8767941808   -0.7135719628
 H   -1.0473020704    1.8236746691   -0.2411360365
 H    0.2180533510    1.8168990947    1.0041861534
 H    0.9656624015    0.2931249956   -2.7099016957
 H    0.1244702272   -1.2003142289   -3.1636981039
 H   -0.8000063132    0.2561935891   -2.7486602424
 H    0.9991634819   -3.9189928285    1.3187221404
 H   -0.0491983379   -3.1692434652    2.5283023167
 H   -0.7538013972   -4.0264933057    1.1557782766
 H    0.0634443915   -0.8981282181    2.9965840889