12

 N   -0.0188942115    1.3570609655    0.0373358160
 C    0.0310088139   -0.0125063881    0.1155137623
 O    1.0715335578   -0.6246946826    0.2642969839
 C   -1.2723243602   -0.7127501399    0.0482902918
 C   -2.5595989406   -0.2709810707    0.1259053749
 O   -3.4151175698   -1.2913877882    0.0432041448
 N   -2.6905406068   -2.4827872397   -0.0941643733
 C   -1.4358366900   -2.1239308431   -0.0826436625
 H    0.8727287583    1.8217699282   -0.0423862249
 H   -0.8060715529    1.8149781331   -0.3912083361
 H   -3.0065555496    0.7029287509    0.2577223297
 H   -0.6560646886   -2.8660866956   -0.1685593865