18

 O   -0.5555873117    0.7905983642    0.7548055883
 C    0.1541113289    1.0244763843   -0.1934235875
 C    1.3717363677    1.8731035228   -0.1445507331
 C    1.8943539237    2.3659465425    1.2014899055
 C    2.4289942495    3.7849493596    0.9859266107
 C    3.6249683569    4.0037964863    0.0993454958
 C    2.2363221974    4.1476061036   -0.4769998131
 C    1.5978830827    2.9649488488   -1.1763901921
 N    2.2824397601    1.6896865301   -1.2947963965
 H   -0.0613898686    0.6245485561   -1.2085431795
 H    1.0507900184    2.3743050386    1.8977068312
 H    2.6450855750    1.6871701451    1.6232674615
 H    2.2469123008    4.5138705577    1.7677926883
 H    4.1881131367    4.9197462564    0.2437943661
 H    4.2509220369    3.1626889358   -0.1839908845
 H    1.9004429747    5.1308150821   -0.7837308211
 H    0.8815182857    3.1717104444   -1.9659420064
 H    3.2547027352    1.7411544015   -1.0048587135