20

 C    0.2092141218    1.6668979522    0.0791377118
 C    0.4016813124    0.1541132380   -0.0426120819
 C    0.5320029634   -0.5433962438    1.3211057766
 O   -0.6035418155   -0.2801643115    2.1494585117
 C    0.7756434263   -2.0268335378    1.2049384740
 C    0.2584875952   -2.9766412316    2.0612479407
 N    0.7062691940   -4.2073121639    1.6538981650
 C    1.5073345871   -4.0674276680    0.5506216543
 C    1.5698861884   -2.7281564917    0.2465685778
 H    1.0813602949    2.1383762699    0.5461752762
 H    0.0659781570    2.1287282220   -0.9024281929
 H   -0.6607605175    1.8947158029    0.7003243674
 H   -0.4419198680   -0.2965416719   -0.5835754539
 H    1.2961847145   -0.0637428130   -0.6381349533
 H    1.3631891360   -0.0714886433    1.8644667193
 H   -1.3447353805   -0.7583517956    1.7587705556
 H   -0.3710953879   -2.8629133215    2.9277876684
 H    0.4767501394   -5.0797116785    2.0958802083
 H    1.9560575629   -4.9246368684    0.0748446732
 H    2.1253437961   -2.2983316745   -0.5725775481