14

 N    0.0197007488   -1.1638025161   -0.0705039487
 C    0.0529170813   -0.0105966383    0.0007327231
 C    0.0698011899    1.4219483379    0.1406880215
 O    0.2797011658    2.2002626694   -1.0376450032
 C    1.2826580616    2.2648899028   -0.0276376664
 C    1.1971536134    3.4594415387    0.9159798670
 C   -0.1478772722    3.3244699572    1.6247598737
 O   -1.2907440136    3.3732509256    0.7671897775
 C   -0.8281982416    2.0955215049    1.1782999195
 H    2.2465809399    1.8472634344   -0.3076265083
 H    2.0112074570    3.4069130404    1.6470517072
 H    1.2855660174    4.4078946318    0.3775736349
 H   -0.2893912338    3.7578358458    2.6116353017
 H   -1.4982147740    1.4920258655    1.7819329205