18

 C   -0.0701992349    1.5579553869   -0.0289716076
 C    0.0333062385    0.0249876293   -0.0331530775
 N    0.7557902773   -0.5165915315   -1.1838589522
 C    0.7258392342   -0.5312596930    1.2447886482
 C    0.0687893969   -0.0371779773    2.5618865422
 C    0.7921735539   -0.4670961170    3.7560915507
 N    1.3771286401   -0.7837733590    4.7002405654
 C    0.7340270528   -1.9978900168    1.2147661645
 N    0.7020240163   -3.1522067197    1.2354430327
 H    0.9168104738    2.0182501775    0.1020103095
 H   -0.4696868322    1.8951612547   -0.9899740592
 H   -0.7338665116    1.9450139738    0.7505317143
 H   -0.9776005090   -0.3994843181   -0.0668987751
 H    0.2165374081   -0.3839295494   -2.0329101750
 H    1.6338230896   -0.0209271035   -1.3161198411
 H    1.7693786181   -0.1907228778    1.2369009297
 H    0.0353674107    1.0552735931    2.5644830821
 H   -0.9641773327   -0.3967980823    2.6202734083