19

 C   -0.0354588413    1.5938682489    0.0098342155
 C    0.1505567260    0.0789694030    0.0536182225
 C    0.6878036376   -0.4853031148   -1.2848827243
 C    1.2031326386   -1.9092447058   -1.2025728977
 O    2.5238127510   -2.0633581662   -0.6641499186
 C    1.4272064649   -2.5844298897    0.0885653212
 C    1.1514329253   -1.8759563551    1.3952335905
 C    1.0278782307   -0.3633525250    1.2230531607
 O    1.5505499141    0.4126303356    1.9858814347
 H    0.9281069667    2.0960026251   -0.1147015471
 H   -0.6854600633    1.8796342676   -0.8231234059
 H   -0.4774096148    1.9634836923    0.9381322503
 H   -0.8229216709   -0.4051880142    0.2297909895
 H   -0.1070867118   -0.4275995769   -2.0360352879
 H    1.5070721330    0.1478987591   -1.6462562192
 H    1.0185810713   -2.5332897666   -2.0772619947
 H    1.3840857199   -3.6738679716    0.1231532277
 H    0.2050554492   -2.2477477560    1.8132500571
 H    1.9384708436   -2.0827345296    2.1260708459