19

 C   -0.0022931906    1.5809196348    0.0354280112
 C    1.2820783069    0.8057816924    0.0064035815
 C    2.1244819412    0.7381573815    1.2658826936
 O    1.3179822046    0.6925336412    2.4342524743
 C    0.5253224226   -0.4723333131    2.5014620949
 C   -0.7829840962   -0.2064167026    3.2539922579
 O   -1.5385604074   -0.1996313020    2.0231867739
 C   -0.3935618400   -0.6882498879    1.2744115510
 C   -0.0468872531    0.0702323122    0.0186146395
 H   -0.2769560428    2.0677082609    0.9635232890
 H   -0.3159089822    2.0981558799   -0.8639662778
 H    1.8525623364    0.7884581100   -0.9175690397
 H    2.7981151423   -0.1351065005    1.2301719141
 H    2.7450593000    1.6341639733    1.3692477624
 H    1.1302783348   -1.3340946566    2.8151454708
 H   -1.0965051829   -1.0139442990    3.9283177579
 H   -0.8244563242    0.7539708440    3.7777254441
 H   -0.5257066962   -1.7536489860    1.0416121041
 H   -0.3626729035   -0.3944902827   -0.9093587027