21

 C   -0.0160582864    1.3791357918   -0.0802546366
 C   -0.0227669181   -0.1095849772   -0.0021733446
 O    0.9355060300   -0.8510804454   -0.7634242931
 C    0.1496095151   -2.0460139561   -0.4572192919
 C    0.2576619957   -3.1268164373   -1.4872206455
 C    0.4231964799   -2.2524854624    1.0586554198
 C   -0.3566664861   -0.9551397983    1.2478268617
 C   -1.1002145447   -1.1389694326   -0.0794316110
 C   -2.5445617388   -1.1369938001   -0.4596244668
 H    0.9222103698    1.7848824804    0.3134251266
 H   -0.1278423135    1.7187414539   -1.1150198902
 H   -0.8380791583    1.7952666217    0.5101337908
 H    1.2966287597   -3.4653153428   -1.5678822030
 H   -0.3623314115   -3.9859798618   -1.2135996712
 H   -0.0588597411   -2.7638439003   -2.4695315798
 H   -0.1222631906   -3.1135369208    1.4561306849
 H    1.4761735356   -2.2938972398    1.3568026254
 H   -0.7328176511   -0.5138865313    2.1632634300
 H   -3.0569767797   -0.2738347456   -0.0202544424
 H   -2.6762368399   -1.0806942660   -1.5464095568
 H   -3.0605003058   -2.0375675501   -0.1062123064