16

 C   -0.0514196833    1.4221792865   -0.0812775729
 C    0.0925591634   -0.0683091263    0.0757361254
 N    0.3267677636   -0.7475910164    1.1217214266
 O   -0.0675172813   -0.6738184615   -1.1237065946
 C    0.0410533422   -2.0811546839   -1.1336101294
 C   -0.1655126597   -2.5815502837   -2.5535338721
 O   -0.3857171276   -1.8687400080   -3.5027014404
 C   -0.0721109634   -4.0294297364   -2.6697625877
 C    0.0069921628   -5.2272625691   -2.7553018527
 H    0.0744238384    1.9298473768    0.8760036862
 H    0.6921540702    1.7982988222   -0.7902309076
 H   -1.0369094803    1.6627762070   -0.4910474006
 H    0.4192484964   -0.1393202597    1.9317242921
 H    1.0222055954   -2.4094752988   -0.7660767194
 H   -0.6992687506   -2.5443736513   -0.4681119316
 H    0.0743839537   -6.2845658575   -2.8448737715