25

 C   -0.1191653551    1.4334536968    0.1930947457
 C    0.0120599244   -0.0781829007   -0.0058600722
 C    0.7394129966   -0.4365583290   -1.2968692837
 O    0.8040832129   -1.8460255962   -1.3796090445
 C    1.4495111135   -2.4281764544   -2.5180924277
 C    0.7244397166   -2.0800899484   -3.8254650811
 C    2.9359499065   -2.0513860757   -2.5864426478
 C    1.3044084076   -3.9306870311   -2.2242393208
 O    1.9048711921   -4.6675479748   -3.2787673959
 H    0.8626425174    1.9179866595    0.2372966699
 H   -0.6799589102    1.8976793254   -0.6258515007
 H   -0.6436513759    1.6637009726    1.1250371405
 H    0.5540445799   -0.5274359077    0.8343160391
 H   -0.9783192487   -0.5475583382   -0.0234436428
 H    0.2004433110   -0.0111158172   -2.1578255741
 H    1.7464641649    0.0090295970   -1.2923888397
 H    0.8848272868   -1.0388125619   -4.1189701301
 H    1.0938374723   -2.7203697165   -4.6298216994
 H   -0.3516868302   -2.2479587261   -3.7155466255
 H    3.4072424939   -2.1991093756   -1.6095246332
 H    3.4416821917   -2.6899553061   -3.3143629290
 H    3.0819681975   -1.0103274241   -2.8881065886
 H    1.7844913697   -4.1404879098   -1.2575235834
 H    0.2336263214   -4.1606623622   -2.1264981318
 H    1.8063523336   -5.6032922255   -3.0845910533