19

 C   -0.0531006728    1.5588594769   -0.0362697654
 C    1.4735292040    1.3824308052   -0.0193333584
 C    1.2833678172    0.0469953063    0.8058528592
 C   -0.0698473593    0.0161953250    0.0141005416
 C    0.6119988096   -0.4688958320   -1.2760134821
 C    1.4625233486   -1.6251759953   -0.8349514171
 C    2.2018187764   -1.0079940956    0.1539494831
 C    3.1414607250   -0.1948936620   -0.7807661940
 C    1.8811043913    0.6565615971   -1.3063291315
 H   -0.4268864103    2.0063953846    0.8891220648
 H   -0.5166426979    2.0507010447   -0.8984469834
 H    2.1514116300    2.1668087763    0.3197960171
 H    1.2564884750    0.1303173503    1.8906395929
 H   -0.9450584268   -0.5474484833    0.3371667572
 H    0.0076829144   -0.5531391610   -2.1797825586
 H    1.9391893324   -2.2713877596   -1.5707580881
 H    3.8778486588    0.4552969888   -0.2951585509
 H    3.6363279642   -0.7885424766   -1.5509323570
 H    2.0090542703    1.2824891603   -2.1947258094