20

 C   -0.2397752492    1.4279418184   -0.1216371264
 C   -0.3366204280   -0.0930539812   -0.3428373993
 C   -1.6758822765   -0.6189589711   -0.0990236337
 C   -2.7992164949   -1.0169235088    0.0902738261
 C   -4.1303275400   -1.5580257918    0.3969017164
 N   -4.2595418393   -3.0116532929    0.2463886595
 C   -4.2142784836   -3.4616629701   -1.1434972376
 C   -4.4758058322   -1.2197865989    1.8542288492
 O   -5.2430722852   -0.3624640538    2.1926837828
 H    0.7793087922    1.7749640041   -0.3154371426
 H   -0.9201046558    1.9615180485   -0.7904700286
 H   -0.5043245089    1.6887012691    0.9064524950
 H   -0.0344838108   -0.3352176058   -1.3698121702
 H    0.3802554646   -0.6060769726    0.3109549471
 H   -4.8915273789   -1.0777517481   -0.2277357975
 H   -3.5050188586   -3.4552870600    0.7622822539
 H   -3.3110630026   -3.1432191284   -1.6875347635
 H   -4.2687052796   -4.5534760607   -1.1662790083
 H   -5.0873361640   -3.0720694463   -1.6778250742
 H   -3.9376091785   -1.8564934096    2.5930066319